REMARK  Name = ZINC63043385
REMARK  6 active torsions:
REMARK  status: ('A' for Active; 'I' for Inactive)
REMARK    1  A    between atoms: C_1  and  C_2
REMARK    2  A    between atoms: C_2  and  C_3
REMARK    3  A    between atoms: C_2  and  C_4
REMARK    4  A    between atoms: C_4  and  C_6
REMARK    5  A    between atoms: C_6  and  C_7
REMARK    6  A    between atoms: C_12  and  N_13
REMARK                            x       y       z     vdW  Elec       q    Type
REMARK                         _______ _______ _______ _____ _____    ______ ____
ROOT
ATOM      1  C   UNL     1       2.853  -0.584  -2.459  0.00  0.00    -0.012 A 
ATOM      2  C   UNL     1       3.492  -1.810  -2.450  0.00  0.00    +0.055 A 
ATOM      3  C   UNL     1       4.125  -2.271  -3.594  0.00  0.00    +0.162 A 
ATOM      4  C   UNL     1       4.115  -1.498  -4.750  0.00  0.00    +0.164 A 
ATOM      5  C   UNL     1       3.475  -0.269  -4.751  0.00  0.00    +0.082 A 
ATOM      6  C   UNL     1       2.840   0.183  -3.609  0.00  0.00    +0.133 A 
ATOM      7  O   UNL     1       4.724  -1.936  -5.885  0.00  0.00    -0.485 OA
ATOM      8  C   UNL     1       5.672  -3.000  -5.739  0.00  0.00    +0.270 C 
ATOM      9  C   UNL     1       5.051  -4.075  -4.836  0.00  0.00    +0.270 C 
ATOM     10  O   UNL     1       4.753  -3.479  -3.569  0.00  0.00    -0.485 OA
ENDROOT
BRANCH   6  11
ATOM     11  N   UNL     1       2.151   1.493  -3.616  0.00  0.00    +0.057 N 
ATOM     12  O   UNL     1       2.052   2.118  -4.646  0.00  0.00    -0.126 OA
ATOM     13  O   UNL     1       1.688   1.938  -2.591  0.00  0.00    -0.126 OA
ENDBRANCH   6  11
BRANCH   1  14
ATOM     14  C   UNL     1       2.165  -0.085  -1.215  0.00  0.00    +0.057 C 
BRANCH  14  15
ATOM     15  C   UNL     1       3.076   0.908  -0.491  0.00  0.00    +0.087 C 
ATOM     16 CL   UNL     1       4.551   0.054   0.095  0.00  0.00    -0.121 Cl
BRANCH  15  18
ATOM     17  C   UNL     1       2.031   0.414   1.724  0.00  0.00    +0.009 C 
ATOM     18  C   UNL     1       2.329   1.512   0.700  0.00  0.00    +0.001 C 
ATOM     19  C   UNL     1       3.193   2.595   1.349  0.00  0.00    +0.009 C 
ENDBRANCH  15  18
ENDBRANCH  14  15
ENDBRANCH   1  14
TORSDOF 4
