REMARK  Name = ZINC40033241
REMARK  9 active torsions:
REMARK  status: ('A' for Active; 'I' for Inactive)
REMARK    1  A    between atoms: C_1  and  C_2
REMARK    2  A    between atoms: C_2  and  O_3
REMARK    3  A    between atoms: O_3  and  C_4
REMARK    4  A    between atoms: C_7  and  N_10
REMARK    5  A    between atoms: N_17  and  N_18
REMARK    6  A    between atoms: C_19  and  C_20
REMARK    7  A    between atoms: C_25  and  N_26
REMARK    8  A    between atoms: C_36  and  C_37
REMARK    9  A    between atoms: C_36  and  C_38
REMARK                            x       y       z     vdW  Elec       q    Type
REMARK                         _______ _______ _______ _____ _____    ______ ____
ROOT
ATOM      1  N   UNL     1       1.998  -6.383  -1.411  0.00  0.00    -0.248 N 
ATOM      2  C   UNL     1       2.302  -6.738  -2.678  0.00  0.00    +0.264 A 
ATOM      3  O   UNL     1       2.508  -5.889  -3.531  0.00  0.00    -0.267 OA
ATOM      4  C   UNL     1       2.376  -8.101  -2.993  0.00  0.00    +0.049 A 
ATOM      5  C   UNL     1       2.136  -9.032  -1.993  0.00  0.00    +0.084 A 
ATOM      6  N   UNL     1       1.832  -8.622  -0.757  0.00  0.00    -0.214 NA
ATOM      7  C   UNL     1       1.769  -7.339  -0.466  0.00  0.00    +0.223 A 
ATOM      8  N   UNL     1       1.461  -6.956   0.814  0.00  0.00    -0.206 N 
ATOM      9  C   UNL     1       2.229 -10.473  -2.321  0.00  0.00    +0.004 A 
ATOM     10  C   UNL     1       1.647 -11.433  -1.497  0.00  0.00    +0.010 A 
ATOM     11  C   UNL     1       1.745 -12.769  -1.829  0.00  0.00    +0.001 A 
ATOM     12  C   UNL     1       2.418 -13.151  -2.976  0.00  0.00    +0.000 A 
ATOM     13  C   UNL     1       3.000 -12.201  -3.796  0.00  0.00    +0.004 A 
ATOM     14  C   UNL     1       2.911 -10.862  -3.474  0.00  0.00    -0.037 A 
ATOM     15  C   UNL     1       3.552  -9.823  -4.354  0.00  0.00    +0.047 C 
ATOM     16  C   UNL     1       2.706  -8.553  -4.387  0.00  0.00    +0.001 C 
ATOM     17  C   UNL     1       1.408  -8.831  -5.148  0.00  0.00    +0.016 C 
ATOM     18  C   UNL     1       3.483  -7.448  -5.106  0.00  0.00    +0.016 C 
ATOM     19  H   UNL     1       1.491  -6.019   1.060  0.00  0.00    +0.177 HD
ENDROOT
BRANCH   1  23
ATOM     20  C   UNL     1       1.775  -2.348  -0.380  0.00  0.00    +0.121 A 
ATOM     21  C   UNL     1       0.668  -2.988  -0.918  0.00  0.00    +0.047 A 
ATOM     22  C   UNL     1       0.741  -4.324  -1.260  0.00  0.00    +0.030 A 
ATOM     23  C   UNL     1       1.923  -5.027  -1.065  0.00  0.00    +0.053 A 
ATOM     24  C   UNL     1       3.031  -4.385  -0.526  0.00  0.00    +0.030 A 
ATOM     25  C   UNL     1       2.958  -3.048  -0.189  0.00  0.00    +0.047 A 
BRANCH  20  26
ATOM     26  O   UNL     1       1.702  -1.033  -0.043  0.00  0.00    -0.492 OA
BRANCH  26  28
ATOM     27  C   UNL     1       0.564   1.088   0.169  0.00  0.00    +0.048 C 
ATOM     28  C   UNL     1       0.454  -0.374  -0.266  0.00  0.00    +0.225 C 
ENDBRANCH  26  28
ENDBRANCH  20  26
ENDBRANCH   1  23
BRANCH   8  29
ATOM     29  N   UNL     1       1.103  -7.920   1.766  0.00  0.00    -0.187 NA
ATOM     30  C   UNL     1       0.811  -7.557   2.978  0.00  0.00    +0.140 C 
BRANCH  30  31
ATOM     31  C   UNL     1       0.434  -8.571   3.980  0.00  0.00    +0.025 A 
ATOM     32  C   UNL     1       0.525  -9.931   3.671  0.00  0.00    +0.012 A 
ATOM     33  C   UNL     1       0.171 -10.874   4.613  0.00  0.00    +0.001 A 
ATOM     34  C   UNL     1      -0.275 -10.476   5.862  0.00  0.00    +0.002 A 
ATOM     35  C   UNL     1      -0.368  -9.131   6.174  0.00  0.00    +0.033 A 
ATOM     36  C   UNL     1      -0.010  -8.177   5.244  0.00  0.00    +0.135 A 
BRANCH  36  37
ATOM     37  N   UNL     1      -0.104  -6.739   5.582  0.00  0.00    +0.057 N 
ATOM     38  O   UNL     1      -0.520  -6.399   6.665  0.00  0.00    -0.126 OA
ATOM     39  O   UNL     1       0.236  -5.905   4.776  0.00  0.00    -0.126 OA
ENDBRANCH  36  37
ENDBRANCH  30  31
ENDBRANCH   8  29
TORSDOF 6
