REMARK  Name = ZINC39652909
REMARK  8 active torsions:
REMARK  status: ('A' for Active; 'I' for Inactive)
REMARK    1  A    between atoms: C_1  and  N_2
REMARK    2  A    between atoms: N_2  and  C_3
REMARK    3  A    between atoms: N_2  and  C_4
REMARK    4  A    between atoms: C_8  and  C_10
REMARK    5  A    between atoms: C_14  and  C_23
REMARK    6  A    between atoms: N_25  and  C_26
REMARK    7  A    between atoms: C_26  and  C_27
REMARK    8  A    between atoms: C_27  and  C_28
REMARK                            x       y       z     vdW  Elec       q    Type
REMARK                         _______ _______ _______ _____ _____    ______ ____
ROOT
ATOM      1  C   UNL     1      -0.134   0.267  -5.086  0.00  0.00    +0.247 C 
ATOM      2  O   UNL     1      -0.281   1.469  -5.189  0.00  0.00    -0.270 OA
ATOM      3  N   UNL     1       0.002  -0.492  -6.191  0.00  0.00    -0.296 N 
ATOM      4  C   UNL     1       0.059  -1.971  -6.277  0.00  0.00    +0.121 C 
ATOM      5  C   UNL     1      -0.755  -2.321  -7.543  0.00  0.00    +0.100 C 
ATOM      6  C   UNL     1      -0.704  -1.048  -8.406  0.00  0.00    -0.004 C 
ATOM      7  C   UNL     1       0.122  -0.037  -7.597  0.00  0.00    +0.115 C 
ATOM      8  C   UNL     1      -0.024  -1.342  -9.739  0.00  0.00    -0.010 C 
ATOM      9  C   UNL     1      -0.038  -0.077 -10.603  0.00  0.00    -0.082 C 
ATOM     10  N   UNL     1      -1.424   0.354 -10.822  0.00  0.00    +0.379 N 
ATOM     11  C   UNL     1      -2.041   0.723  -9.542  0.00  0.00    -0.082 C 
ATOM     12  C   UNL     1      -2.112  -0.508  -8.634  0.00  0.00    -0.010 C 
ATOM     13  H   UNL     1      -1.433   1.151 -11.440  0.00  0.00    -0.086 HD
ATOM     14  H   UNL     1      -1.946  -0.400 -11.241  0.00  0.00    -0.086 HD
ENDROOT
BRANCH   1  19
ATOM     15  C   UNL     1      -0.639  -0.306  -1.404  0.00  0.00    +0.030 A 
ATOM     16  C   UNL     1      -0.042  -1.551  -1.243  0.00  0.00    +0.023 A 
ATOM     17  C   UNL     1       0.520  -2.198  -2.327  0.00  0.00    +0.003 A 
ATOM     18  C   UNL     1       0.493  -1.613  -3.576  0.00  0.00    +0.013 A 
ATOM     19  C   UNL     1      -0.104  -0.363  -3.749  0.00  0.00    +0.039 A 
ATOM     20  C   UNL     1      -0.676   0.288  -2.656  0.00  0.00    +0.036 A 
BRANCH  15  22
ATOM     21  C   UNL     1      -1.841   1.653  -0.476  0.00  0.00    +0.129 C 
ATOM     22  N   UNL     1      -1.207   0.344  -0.305  0.00  0.00    -0.336 N 
ATOM     23  C   UNL     1      -1.168  -0.284   1.018  0.00  0.00    +0.129 C 
ENDBRANCH  15  22
ENDBRANCH   1  19
BRANCH   5  24
ATOM     24  C   UNL     1      -2.178  -2.652  -7.176  0.00  0.00    +0.218 C 
ATOM     25  O   UNL     1      -2.692  -2.134  -6.207  0.00  0.00    -0.275 OA
ATOM     26  N   UNL     1      -2.881  -3.525  -7.925  0.00  0.00    -0.315 N 
ATOM     27  H   UNL     1      -2.470  -3.940  -8.700  0.00  0.00    +0.149 HD
BRANCH  26  28
ATOM     28  C   UNL     1      -4.265  -3.848  -7.569  0.00  0.00    +0.109 C 
BRANCH  28  29
ATOM     29  C   UNL     1      -4.828  -4.855  -8.573  0.00  0.00    +0.054 C 
BRANCH  29  30
ATOM     30  C   UNL     1      -6.252  -5.187  -8.206  0.00  0.00    -0.046 A 
ATOM     31  C   UNL     1      -6.518  -6.237  -7.347  0.00  0.00    +0.005 A 
ATOM     32  C   UNL     1      -7.823  -6.541  -7.010  0.00  0.00    +0.015 A 
ATOM     33  C   UNL     1      -8.864  -5.795  -7.533  0.00  0.00    +0.018 A 
ATOM     34  C   UNL     1      -8.598  -4.745  -8.393  0.00  0.00    +0.015 A 
ATOM     35  C   UNL     1      -7.292  -4.438  -8.726  0.00  0.00    +0.005 A 
ATOM     36 BR   UNL     1     -10.650  -6.212  -7.074  0.00  0.00    -0.050 Br
ENDBRANCH  29  30
ENDBRANCH  28  29
ENDBRANCH  26  28
ENDBRANCH   5  24
TORSDOF 6
