REMARK  Name = ZINC36584128
REMARK  15 active torsions:
REMARK  status: ('A' for Active; 'I' for Inactive)
REMARK    1  A    between atoms: C_1  and  C_2
REMARK    2  A    between atoms: C_5  and  S_8
REMARK    3  A    between atoms: S_8  and  C_11
REMARK    4  A    between atoms: C_11  and  N_12
REMARK    5  A    between atoms: C_13  and  C_15
REMARK    6  A    between atoms: C_15  and  C_17
REMARK    7  A    between atoms: C_15  and  N_26
REMARK    8  A    between atoms: C_17  and  C_19
REMARK    9  A    between atoms: C_17  and  C_20
REMARK   10  A    between atoms: N_26  and  C_36
REMARK   11  A    between atoms: C_27  and  C_29
REMARK   12  A    between atoms: C_34  and  O_35
REMARK   13  A    between atoms: C_36  and  C_37
REMARK   14  A    between atoms: C_36  and  C_38
REMARK   15  A    between atoms: C_36  and  C_39
REMARK                            x       y       z     vdW  Elec       q    Type
REMARK                         _______ _______ _______ _____ _____    ______ ____
ROOT
ATOM      1  C   UNL     1       3.609  -8.382   2.165  0.00  0.00    +0.170 C 
ENDROOT
BRANCH   1   3
ATOM      2  N   UNL     1       3.534  -9.551  -0.014  0.00  0.00    -0.295 N 
ATOM      3  C   UNL     1       3.792  -9.608   1.308  0.00  0.00    +0.235 C 
ATOM      4  O   UNL     1       4.170 -10.646   1.808  0.00  0.00    -0.274 OA
ATOM      5  H   UNL     1       3.231  -8.721  -0.413  0.00  0.00    +0.150 HD
BRANCH   2   6
ATOM      6  C   UNL     1       3.712 -10.743  -0.847  0.00  0.00    +0.278 C 
BRANCH   6   7
ATOM      7  S   UNL     1       2.125 -11.605  -1.015  0.00  0.00    +0.013 S 
ATOM      8  O   UNL     1       1.503 -11.738   0.255  0.00  0.00    -0.168 OA
ATOM      9  O   UNL     1       2.268 -12.729  -1.873  0.00  0.00    -0.168 OA
BRANCH   7  14
ATOM     10  C   UNL     1      -1.405  -7.780  -4.066  0.00  0.00    +0.044 C 
ATOM     11  C   UNL     1      -0.524  -8.736  -3.304  0.00  0.00    -0.050 A 
ATOM     12  C   UNL     1       0.252  -9.654  -3.987  0.00  0.00    +0.005 A 
ATOM     13  C   UNL     1       1.061 -10.530  -3.288  0.00  0.00    +0.027 A 
ATOM     14  C   UNL     1       1.095 -10.488  -1.906  0.00  0.00    +0.090 A 
ATOM     15  C   UNL     1       0.320  -9.569  -1.224  0.00  0.00    +0.027 A 
ATOM     16  C   UNL     1      -0.486  -8.690  -1.923  0.00  0.00    +0.005 A 
ENDBRANCH   7  14
ENDBRANCH   6   7
ENDBRANCH   2   6
ENDBRANCH   1   3
BRANCH   1  17
ATOM     17  N   UNL     1       3.843  -8.729   3.569  0.00  0.00    -0.280 N 
ATOM     18  C   UNL     1       4.955  -9.404   3.920  0.00  0.00    +0.251 C 
ATOM     19  O   UNL     1       5.973  -9.280   3.267  0.00  0.00    -0.270 OA
BRANCH  18  20
ATOM     20  C   UNL     1       4.938 -10.294   5.096  0.00  0.00    +0.078 A 
ATOM     21  C   UNL     1       3.819 -10.331   5.933  0.00  0.00    +0.017 A 
ATOM     22  C   UNL     1       3.809 -11.165   7.030  0.00  0.00    +0.001 A 
ATOM     23  C   UNL     1       4.903 -11.968   7.308  0.00  0.00    +0.004 A 
ATOM     24  C   UNL     1       6.015 -11.941   6.489  0.00  0.00    +0.046 A 
ATOM     25  C   UNL     1       6.040 -11.112   5.378  0.00  0.00    +0.129 A 
BRANCH  25  26
ATOM     26  O   UNL     1       7.130 -11.089   4.570  0.00  0.00    -0.506 OA
ATOM     27  H   UNL     1       7.875 -10.589   4.929  0.00  0.00    +0.292 HD
ENDBRANCH  25  26
ENDBRANCH  18  20
BRANCH  17  28
ATOM     28  C   UNL     1       2.869  -8.341   4.592  0.00  0.00    +0.030 C 
ATOM     29  C   UNL     1       2.229  -7.005   4.207  0.00  0.00    +0.031 C 
ATOM     30  C   UNL     1       1.784  -9.414   4.696  0.00  0.00    +0.031 C 
ATOM     31  C   UNL     1       3.575  -8.197   5.941  0.00  0.00    +0.031 C 
ENDBRANCH  17  28
ENDBRANCH   1  17
BRANCH   1  32
ATOM     32  C   UNL     1       4.604  -7.304   1.732  0.00  0.00    +0.045 C 
ATOM     33  C   UNL     1       3.879  -5.964   1.599  0.00  0.00    +0.015 C 
BRANCH  32  34
ATOM     34  C   UNL     1       5.695  -7.184   2.765  0.00  0.00    -0.042 A 
ATOM     35  C   UNL     1       5.384  -6.809   4.059  0.00  0.00    +0.004 A 
ATOM     36  C   UNL     1       6.385  -6.699   5.006  0.00  0.00    +0.000 A 
ATOM     37  C   UNL     1       7.696  -6.965   4.660  0.00  0.00    +0.000 A 
ATOM     38  C   UNL     1       8.007  -7.341   3.367  0.00  0.00    +0.000 A 
ATOM     39  C   UNL     1       7.006  -7.456   2.421  0.00  0.00    +0.004 A 
ENDBRANCH  32  34
ENDBRANCH   1  32
TORSDOF 10
