REMARK  Name = ZINC04476345
REMARK  7 active torsions:
REMARK  status: ('A' for Active; 'I' for Inactive)
REMARK    1  A    between atoms: C_1  and  C_2
REMARK    2  A    between atoms: C_2  and  C_3
REMARK    3  A    between atoms: C_2  and  N_52
REMARK    4  A    between atoms: C_6  and  C_7
REMARK    5  A    between atoms: C_16  and  C_24
REMARK    6  A    between atoms: C_18  and  C_22
REMARK    7  A    between atoms: C_19  and  N_21
REMARK                            x       y       z     vdW  Elec       q    Type
REMARK                         _______ _______ _______ _____ _____    ______ ____
ROOT
ATOM      1  C   UNL     1      -1.323  -0.734   0.459  0.00  0.00    -0.038 C 
ATOM      2  C   UNL     1      -0.035   0.004   0.160  0.00  0.00    -0.021 C 
ATOM      3  C   UNL     1      -0.016   1.341   0.009  0.00  0.00    +0.014 C 
ATOM      4  C   UNL     1       1.202  -0.797   0.048  0.00  0.00    +0.130 C 
ATOM      5  C   UNL     1       1.192  -2.080   0.409  0.00  0.00    -0.031 C 
ATOM      6  C   UNL     1      -0.063  -2.745   0.916  0.00  0.00    -0.042 C 
ATOM      7  C   UNL     1       2.449  -2.910   0.309  0.00  0.00    +0.093 C 
ATOM      8  C   UNL     1       3.440  -2.253  -0.609  0.00  0.00    +0.098 C 
ATOM      9  C   UNL     1       3.323  -0.939  -0.925  0.00  0.00    +0.199 C 
ATOM     10  O   UNL     1       2.321  -0.196  -0.426  0.00  0.00    -0.441 OA
ATOM     11  N   UNL     1      -0.996  -1.754   1.478  0.00  0.00    +0.387 N 
ATOM     12  H   UNL     1      -0.551  -1.294   2.280  0.00  0.00    -0.081 HD
ENDROOT
BRANCH   3  13
ATOM     13  C   UNL     1      -1.281   2.093  -0.045  0.00  0.00    -0.007 A 
ATOM     14  C   UNL     1      -2.434   1.512  -0.592  0.00  0.00    +0.011 A 
ATOM     15  C   UNL     1      -3.596   2.262  -0.619  0.00  0.00    +0.020 A 
ATOM     16  C   UNL     1      -3.584   3.549  -0.110  0.00  0.00    +0.111 A 
ATOM     17  N   UNL     1      -2.485   4.071   0.399  0.00  0.00    -0.263 NA
ATOM     18  C   UNL     1      -1.355   3.397   0.453  0.00  0.00    +0.118 A 
ENDBRANCH   3  13
BRANCH   7  19
ATOM     19  C   UNL     1       3.058  -3.053   1.680  0.00  0.00    -0.017 A 
ATOM     20  C   UNL     1       3.213  -4.306   2.253  0.00  0.00    +0.007 A 
ATOM     21  C   UNL     1       3.778  -4.389   3.516  0.00  0.00    +0.020 A 
ATOM     22  C   UNL     1       4.165  -3.228   4.159  0.00  0.00    +0.111 A 
ATOM     23  N   UNL     1       4.002  -2.053   3.583  0.00  0.00    -0.263 NA
ATOM     24  C   UNL     1       3.474  -1.936   2.380  0.00  0.00    +0.115 A 
ENDBRANCH   7  19
BRANCH  11  26
ATOM     25  C   UNL     1      -3.141  -1.395   2.603  0.00  0.00    -0.013 C 
ATOM     26  C   UNL     1      -2.232  -2.427   1.934  0.00  0.00    -0.074 C 
ATOM     27  C   UNL     1      -2.965  -3.061   0.750  0.00  0.00    -0.013 C 
ENDBRANCH  11  26
BRANCH   9  28
ATOM     28  N   UNL     1       4.241  -0.361  -1.767  0.00  0.00    -0.328 N 
ATOM     29  H   UNL     1       4.163   0.578  -1.998  0.00  0.00    +0.145 HD
ATOM     30  H   UNL     1       4.967  -0.891  -2.131  0.00  0.00    +0.145 HD
ENDBRANCH   9  28
BRANCH   8  31
ATOM     31  C   UNL     1       4.518  -3.020  -1.155  0.00  0.00    +0.101 C 
ATOM     32  N   UNL     1       5.373  -3.630  -1.589  0.00  0.00    -0.191 NA
ENDBRANCH   8  31
TORSDOF 5
