REMARK  Name = ZINC21864600
REMARK  8 active torsions:
REMARK  status: ('A' for Active; 'I' for Inactive)
REMARK    1  A    between atoms: C_1  and  C_2
REMARK    2  A    between atoms: N_8  and  C_9
REMARK    3  A    between atoms: C_9  and  C_10
REMARK    4  A    between atoms: C_10  and  N_11
REMARK    5  A    between atoms: C_17  and  C_32
REMARK    6  A    between atoms: C_20  and  C_21
REMARK    7  A    between atoms: C_20  and  C_22
REMARK    8  A    between atoms: N_24  and  C_25
REMARK                            x       y       z     vdW  Elec       q    Type
REMARK                         _______ _______ _______ _____ _____    ______ ____
ROOT
ATOM      1  N   UNL     1       0.710  -0.473   1.188  0.00  0.00    -0.282 N 
ATOM      2  C   UNL     1       1.211  -1.727   1.274  0.00  0.00    +0.264 C 
ATOM      3  O   UNL     1       1.634  -2.179   2.322  0.00  0.00    -0.268 OA
ATOM      4  C   UNL     1       1.217  -2.514   0.036  0.00  0.00    +0.105 A 
ATOM      5  C   UNL     1       1.480  -3.838  -0.181  0.00  0.00    +0.033 A 
ATOM      6  C   UNL     1       1.342  -4.070  -1.551  0.00  0.00    +0.032 A 
ATOM      7  C   UNL     1       1.002  -2.868  -2.152  0.00  0.00    +0.085 A 
ATOM      8  N   UNL     1       0.939  -1.916  -1.189  0.00  0.00    -0.331 N 
ATOM      9  C   UNL     1       0.653  -0.482  -1.296  0.00  0.00    +0.157 C 
ATOM     10  C   UNL     1       0.002  -0.004   0.002  0.00  0.00    +0.128 C 
ATOM     11  C   UNL     1      -0.019   1.526   0.010  0.00  0.00    +0.043 C 
ENDROOT
BRANCH   7  12
ATOM     12  C   UNL     1       0.754  -2.661  -3.585  0.00  0.00    +0.151 A 
ATOM     13  C   UNL     1       0.729  -3.632  -4.542  0.00  0.00    +0.051 A 
ATOM     14  C   UNL     1       0.455  -2.990  -5.764  0.00  0.00    +0.042 A 
ATOM     15  C   UNL     1       0.335  -1.673  -5.501  0.00  0.00    +0.196 A 
ATOM     16  O   UNL     1       0.516  -1.477  -4.185  0.00  0.00    -0.461 OA
ENDBRANCH   7  12
BRANCH  10  17
ATOM     17  C   UNL     1      -1.417  -0.510   0.049  0.00  0.00    +0.238 C 
ATOM     18  O   UNL     1      -2.322   0.185  -0.360  0.00  0.00    -0.273 OA
ATOM     19  N   UNL     1      -1.679  -1.736   0.546  0.00  0.00    -0.311 N 
ATOM     20  H   UNL     1      -0.857  -2.366   0.917  0.00  0.00    +0.149 HD
BRANCH  19  21
ATOM     21  C   UNL     1      -3.058  -2.228   0.592  0.00  0.00    +0.073 C 
ATOM     22  C   UNL     1      -3.751  -1.655   1.845  0.00  0.00    +0.022 C 
ATOM     23  C   UNL     1      -5.240  -1.720   1.640  0.00  0.00    +0.002 C 
ATOM     24  C   UNL     1      -5.862  -3.000   2.231  0.00  0.00    +0.000 C 
ATOM     25  C   UNL     1      -5.011  -4.256   1.962  0.00  0.00    +0.000 C 
ATOM     26  C   UNL     1      -4.458  -4.289   0.564  0.00  0.00    +0.002 C 
ATOM     27  C   UNL     1      -3.039  -3.683   0.584  0.00  0.00    +0.022 C 
ENDBRANCH  19  21
ENDBRANCH  10  17
BRANCH   1  28
ATOM     28  C   UNL     1       0.884   0.441   2.320  0.00  0.00    +0.091 C 
BRANCH  28  29
ATOM     29  C   UNL     1      -0.302   0.300   3.276  0.00  0.00    -0.059 C 
BRANCH  29  36
ATOM     30  C   UNL     1       1.179  -0.532   5.519  0.00  0.00    -0.013 C 
ATOM     31  C   UNL     1       1.130   0.944   5.119  0.00  0.00    -0.072 C 
ATOM     32  C   UNL     1       1.209   1.815   6.375  0.00  0.00    -0.016 C 
ATOM     33  C   UNL     1       1.138   3.291   5.972  0.00  0.00    -0.003 C 
ATOM     34  C   UNL     1      -0.157   3.538   5.194  0.00  0.00    -0.019 C 
ATOM     35  C   UNL     1      -0.197   2.616   3.972  0.00  0.00    -0.078 C 
ATOM     36  N   UNL     1      -0.127   1.217   4.411  0.00  0.00    +0.382 N 
ATOM     37  H   UNL     1      -0.954   1.045   5.116  0.00  0.00    -0.081 HD
ENDBRANCH  29  36
ENDBRANCH  28  29
ENDBRANCH   1  28
TORSDOF 6
