REMARK  Name = ZINC22195774
REMARK  7 active torsions:
REMARK  status: ('A' for Active; 'I' for Inactive)
REMARK    1  A    between atoms: C_1  and  C_2
REMARK    2  A    between atoms: N_5  and  S_8
REMARK    3  A    between atoms: S_8  and  C_11
REMARK    4  A    between atoms: C_14  and  N_20
REMARK    5  A    between atoms: C_15  and  N_17
REMARK    6  A    between atoms: C_23  and  N_26
REMARK    7  A    between atoms: C_27  and  C_29
REMARK                            x       y       z     vdW  Elec       q    Type
REMARK                         _______ _______ _______ _____ _____    ______ ____
ROOT
ATOM      1  C   UNL     1       8.478  10.854   1.124  0.00  0.00    +0.108 A 
ATOM      2  C   UNL     1       7.320  11.310   0.522  0.00  0.00    +0.030 A 
ATOM      3  C   UNL     1       6.217  10.484   0.428  0.00  0.00    +0.027 A 
ATOM      4  C   UNL     1       6.273   9.193   0.938  0.00  0.00    +0.060 A 
ATOM      5  C   UNL     1       7.436   8.740   1.546  0.00  0.00    +0.149 A 
ATOM      6  C   UNL     1       8.537   9.569   1.632  0.00  0.00    +0.063 A 
ENDROOT
BRANCH   4   7
ATOM      7  N   UNL     1       5.160   8.354   0.844  0.00  0.00    -0.328 N 
ATOM      8  C   UNL     1       4.036   8.882   1.628  0.00  0.00    +0.107 C 
ATOM      9  C   UNL     1       2.888   7.870   1.621  0.00  0.00    +0.041 C 
ATOM     10  C   UNL     1       2.450   7.613   0.176  0.00  0.00    +0.076 C 
ATOM     11  C   UNL     1       3.650   7.110  -0.631  0.00  0.00    +0.041 C 
ATOM     12  C   UNL     1       4.777   8.144  -0.558  0.00  0.00    +0.107 C 
BRANCH  10  13
ATOM     13  N   UNL     1       1.390   6.601   0.159  0.00  0.00    -0.308 N 
ATOM     14  C   UNL     1       0.513   6.562  -0.864  0.00  0.00    +0.244 C 
ATOM     15  O   UNL     1       0.602   7.365  -1.771  0.00  0.00    -0.270 OA
ATOM     16  H   UNL     1       1.310   5.874   0.981  0.00  0.00    +0.149 HD
BRANCH  14  17
ATOM     17  C   UNL     1      -0.556   5.541  -0.881  0.00  0.00    +0.037 A 
ATOM     18  C   UNL     1      -1.466   5.497  -1.939  0.00  0.00    +0.013 A 
ATOM     19  C   UNL     1      -2.462   4.543  -1.949  0.00  0.00    +0.001 A 
ATOM     20  C   UNL     1      -2.563   3.633  -0.911  0.00  0.00    +0.000 A 
ATOM     21  C   UNL     1      -1.661   3.668   0.137  0.00  0.00    +0.001 A 
ATOM     22  C   UNL     1      -0.660   4.617   0.160  0.00  0.00    +0.013 A 
ENDBRANCH  14  17
ENDBRANCH  10  13
ENDBRANCH   4   7
BRANCH   1  23
ATOM     23  S   UNL     1       9.883  11.912   1.243  0.00  0.00    +0.061 S 
ATOM     24  O   UNL     1      11.019  11.066   1.360  0.00  0.00    -0.153 OA
ATOM     25  O   UNL     1       9.754  12.876   0.207  0.00  0.00    -0.153 OA
BRANCH  23  30
ATOM     26  C   UNL     1      11.379  15.592   5.377  0.00  0.00    +0.007 C 
ATOM     27  C   UNL     1      10.474  14.544   4.725  0.00  0.00    -0.012 C 
ATOM     28  C   UNL     1      11.259  13.246   4.527  0.00  0.00    +0.020 C 
ATOM     29  C   UNL     1      10.340  12.188   3.906  0.00  0.00    +0.110 C 
ATOM     30  N   UNL     1       9.755  12.735   2.674  0.00  0.00    -0.177 NA
ATOM     31  C   UNL     1       9.061  14.028   2.735  0.00  0.00    +0.110 C 
ATOM     32  C   UNL     1       9.989  15.062   3.369  0.00  0.00    +0.020 C 
ENDBRANCH  23  30
ENDBRANCH   1  23
BRANCH   5  33
ATOM     33  N   UNL     1       7.499   7.367   2.096  0.00  0.00    +0.058 N 
ATOM     34  O   UNL     1       8.484   7.001   2.711  0.00  0.00    -0.126 OA
ATOM     35  O   UNL     1       6.564   6.603   1.934  0.00  0.00    -0.126 OA
ENDBRANCH   5  33
TORSDOF 6
