REMARK  Name = ZINC36784821
REMARK  13 active torsions:
REMARK  status: ('A' for Active; 'I' for Inactive)
REMARK    1  A    between atoms: C_1  and  C_2
REMARK    2  A    between atoms: C_2  and  C_3
REMARK    3  A    between atoms: C_3  and  C_26
REMARK    4  A    between atoms: N_6  and  N_10
REMARK    5  A    between atoms: C_11  and  C_13
REMARK    6  A    between atoms: C_13  and  S_14
REMARK    7  A    between atoms: S_14  and  C_15
REMARK    8  A    between atoms: C_17  and  C_25
REMARK    9  A    between atoms: C_18  and  C_24
REMARK   10  A    between atoms: N_19  and  C_20
REMARK   11  A    between atoms: C_20  and  C_21
REMARK   12  A    between atoms: C_21  and  C_22
REMARK   13  A    between atoms: C_21  and  C_23
REMARK                            x       y       z     vdW  Elec       q    Type
REMARK                         _______ _______ _______ _____ _____    ______ ____
ROOT
ATOM      1  N   UNL     1       0.872   1.536  -4.285  0.00  0.00    -0.223 N 
ATOM      2  C   UNL     1       0.759   2.878  -4.253  0.00  0.00    +0.240 C 
ATOM      3  O   UNL     1       0.810   3.466  -3.194  0.00  0.00    -0.273 OA
ATOM      4  H   UNL     1       0.832   1.066  -5.133  0.00  0.00    +0.174 HD
ENDROOT
BRANCH   1   8
ATOM      5  C   UNL     1       0.718  -0.497  -1.257  0.00  0.00    +0.139 C 
ATOM      6  C   UNL     1       0.081   0.093  -2.499  0.00  0.00    +0.268 C 
ATOM      7  O   UNL     1      -1.061  -0.057  -2.878  0.00  0.00    -0.271 OA
ATOM      8  N   UNL     1       1.047   0.819  -3.095  0.00  0.00    -0.137 N 
ATOM      9  C   UNL     1       2.195   0.770  -2.408  0.00  0.00    +0.327 C 
ATOM     10  O   UNL     1       3.210   1.345  -2.748  0.00  0.00    -0.251 OA
ATOM     11  N   UNL     1       2.099   0.013  -1.301  0.00  0.00    -0.280 N 
ATOM     12  H   UNL     1       2.803  -0.163  -0.657  0.00  0.00    +0.152 HD
BRANCH   5  13
ATOM     13  C   UNL     1       0.707  -2.003  -1.315  0.00  0.00    -0.015 A 
ATOM     14  C   UNL     1      -0.340  -2.709  -0.752  0.00  0.00    +0.006 A 
ATOM     15  C   UNL     1      -0.350  -4.090  -0.806  0.00  0.00    +0.000 A 
ATOM     16  C   UNL     1       0.686  -4.766  -1.424  0.00  0.00    +0.000 A 
ATOM     17  C   UNL     1       1.732  -4.060  -1.988  0.00  0.00    +0.000 A 
ATOM     18  C   UNL     1       1.740  -2.679  -1.938  0.00  0.00    +0.006 A 
ENDBRANCH   5  13
BRANCH   5  20
ATOM     19  C   UNL     1      -0.019   1.526   0.010  0.00  0.00    +0.007 C 
ATOM     20  C   UNL     1       0.002  -0.004   0.002  0.00  0.00    +0.037 C 
ENDBRANCH   5  20
ENDBRANCH   1   8
BRANCH   2  21
ATOM     21  C   UNL     1       0.571   3.650  -5.535  0.00  0.00    +0.174 C 
BRANCH  21  22
ATOM     22  S   UNL     1       0.454   5.421  -5.162  0.00  0.00    -0.080 S 
BRANCH  22  23
ATOM     23  C   UNL     1       0.239   6.175  -6.740  0.00  0.00    +0.148 A 
ATOM     24  N   UNL     1       0.178   5.545  -7.890  0.00  0.00    -0.338 N 
ATOM     25  C   UNL     1       0.009   6.440  -8.878  0.00  0.00    +0.034 A 
ATOM     26  C   UNL     1      -0.039   7.667  -8.334  0.00  0.00    +0.037 A 
ATOM     27  N   UNL     1       0.102   7.509  -6.973  0.00  0.00    -0.324 N 
ATOM     28  C   UNL     1      -0.216   8.969  -9.072  0.00  0.00    +0.065 C 
ATOM     29  C   UNL     1      -0.108   6.121 -10.347  0.00  0.00    +0.065 C 
ATOM     30  H   UNL     1       0.245   4.585  -8.008  0.00  0.00    +0.168 HD
BRANCH  27  31
ATOM     31  C   UNL     1       0.106   8.574  -5.968  0.00  0.00    +0.127 C 
BRANCH  31  32
ATOM     32  C   UNL     1       1.538   9.069  -5.755  0.00  0.00    +0.003 C 
ATOM     33  C   UNL     1       2.048   9.723  -7.040  0.00  0.00    +0.009 C 
ATOM     34  C   UNL     1       1.560  10.092  -4.618  0.00  0.00    +0.009 C 
ENDBRANCH  31  32
ENDBRANCH  27  31
ENDBRANCH  22  23
ENDBRANCH  21  22
ENDBRANCH   2  21
TORSDOF 8
