REMARK  Name = ZINC06782267
REMARK  3 active torsions:
REMARK  status: ('A' for Active; 'I' for Inactive)
REMARK    1  A    between atoms: C_10  and  N_12
REMARK    2  A    between atoms: C_13  and  C_15
REMARK    3  A    between atoms: C_15  and  N_16
REMARK                            x       y       z     vdW  Elec       q    Type
REMARK                         _______ _______ _______ _____ _____    ______ ____
ROOT
ATOM      1  C   UNL     1      -2.482   0.853   0.018  0.00  0.00    +0.221 C 
ENDROOT
BRANCH   1   2
ATOM      2  N   UNL     1      -3.608   1.789   0.029  0.00  0.00    -0.296 N 
ATOM      3  C   UNL     1      -4.139   2.221   1.245  0.00  0.00    +0.069 A 
ATOM      4  C   UNL     1      -3.587   1.766   2.436  0.00  0.00    +0.028 A 
ATOM      5  C   UNL     1      -4.102   2.193   3.644  0.00  0.00    +0.002 A 
ATOM      6  C   UNL     1      -5.166   3.077   3.674  0.00  0.00    +0.002 A 
ATOM      7  C   UNL     1      -5.719   3.539   2.496  0.00  0.00    +0.028 A 
ATOM      8  C   UNL     1      -5.207   3.116   1.276  0.00  0.00    +0.070 A 
ATOM      9  N   UNL     1      -5.770   3.586   0.085  0.00  0.00    -0.310 N 
ATOM     10  C   UNL     1      -6.795   4.438  -0.165  0.00  0.00    +0.092 A 
ATOM     11  C   UNL     1      -6.945   4.565  -1.506  0.00  0.00    +0.020 A 
ATOM     12  C   UNL     1      -5.980   3.764  -2.125  0.00  0.00    +0.033 A 
ATOM     13  C   UNL     1      -5.254   3.159  -1.122  0.00  0.00    +0.112 A 
ATOM     14  C   UNL     1      -4.128   2.224  -1.136  0.00  0.00    +0.276 A 
ATOM     15  O   UNL     1      -3.665   1.840  -2.195  0.00  0.00    -0.265 OA
ENDBRANCH   1   2
BRANCH   1  17
ATOM     16  N   UNL     1      -0.011   0.966   0.007  0.00  0.00    -0.307 N 
ATOM     17  C   UNL     1      -1.187   1.624   0.017  0.00  0.00    +0.233 C 
ATOM     18  O   UNL     1      -1.204   2.837   0.023  0.00  0.00    -0.274 OA
ATOM     19  H   UNL     1       0.002  -0.004   0.002  0.00  0.00    +0.149 HD
BRANCH  16  29
ATOM     20  C   UNL     1       2.117   2.803  -4.045  0.00  0.00    +0.000 A 
ATOM     21  C   UNL     1       0.828   2.887  -3.550  0.00  0.00    +0.000 A 
ATOM     22  C   UNL     1       0.572   2.529  -2.243  0.00  0.00    +0.006 A 
ATOM     23  C   UNL     1       1.597   2.084  -1.419  0.00  0.00    -0.024 A 
ATOM     24  C   UNL     1       2.879   1.995  -1.913  0.00  0.00    -0.042 A 
ATOM     25  C   UNL     1       3.136   2.358  -3.229  0.00  0.00    +0.004 A 
ATOM     26  C   UNL     1       4.036   1.507  -1.081  0.00  0.00    +0.035 C 
ATOM     27  C   UNL     1       3.692   1.566   0.406  0.00  0.00    +0.007 C 
ATOM     28  C   UNL     1       2.349   0.857   0.619  0.00  0.00    +0.027 C 
ATOM     29  C   UNL     1       1.248   1.716  -0.001  0.00  0.00    +0.103 C 
ENDBRANCH  16  29
ENDBRANCH   1  17
TORSDOF 3
