REMARK  Name = ZINC06185835
REMARK  3 active torsions:
REMARK  status: ('A' for Active; 'I' for Inactive)
REMARK    1  A    between atoms: C_1  and  C_2
REMARK    2  A    between atoms: C_3  and  C_19
REMARK    3  A    between atoms: C_4  and  C_12
REMARK                            x       y       z     vdW  Elec       q    Type
REMARK                         _______ _______ _______ _____ _____    ______ ____
ROOT
ATOM      1  C   UNL     1      -0.013   1.086   0.008  0.00  0.00    +0.062 C 
ATOM      2  C   UNL     1      -0.742   1.585  -1.213  0.00  0.00    +0.034 C 
ATOM      3  C   UNL     1      -0.876   3.067  -1.411  0.00  0.00    +0.148 C 
ATOM      4  C   UNL     1      -0.881   3.435  -2.899  0.00  0.00    +0.161 C 
ATOM      5  N   UNL     1      -1.704   2.456  -3.603  0.00  0.00    -0.201 N 
ATOM      6  C   UNL     1      -1.853   1.167  -3.167  0.00  0.00    +0.270 A 
ATOM      7  N   UNL     1      -2.650   0.571  -4.012  0.00  0.00    -0.088 NA
ATOM      8  N   UNL     1      -3.006   1.388  -4.944  0.00  0.00    -0.021 NA
ATOM      9  N   UNL     1      -2.469   2.552  -4.761  0.00  0.00    -0.042 NA
ATOM     10  N   UNL     1      -1.218   0.717  -2.046  0.00  0.00    -0.218 NA
ENDROOT
BRANCH   4  11
ATOM     11  C   UNL     1       0.527   3.399  -3.437  0.00  0.00    -0.004 A 
ATOM     12  C   UNL     1       1.253   2.223  -3.395  0.00  0.00    +0.007 A 
ATOM     13  C   UNL     1       2.544   2.190  -3.888  0.00  0.00    +0.000 A 
ATOM     14  C   UNL     1       3.109   3.332  -4.424  0.00  0.00    +0.001 A 
ATOM     15  C   UNL     1       2.384   4.508  -4.467  0.00  0.00    +0.020 A 
ATOM     16  C   UNL     1       1.090   4.540  -3.978  0.00  0.00    +0.046 A 
ATOM     17 CL   UNL     1       0.176   6.015  -4.038  0.00  0.00    -0.083 Cl
ENDBRANCH   4  11
BRANCH   3  18
ATOM     18  C   UNL     1      -2.165   3.533  -0.784  0.00  0.00    +0.221 C 
ATOM     19  O   UNL     1      -3.012   4.069  -1.466  0.00  0.00    -0.275 OA
ATOM     20  N   UNL     1      -2.376   3.355   0.535  0.00  0.00    -0.329 N 
ATOM     21  H   UNL     1      -1.698   2.926   1.081  0.00  0.00    +0.145 HD
ATOM     22  H   UNL     1      -3.205   3.655   0.939  0.00  0.00    +0.145 HD
ENDBRANCH   3  18
TORSDOF 2
