REMARK  Name = ZINC01509959
REMARK  7 active torsions:
REMARK  status: ('A' for Active; 'I' for Inactive)
REMARK    1  A    between atoms: C_1  and  C_2
REMARK    2  A    between atoms: C_2  and  C_3
REMARK    3  A    between atoms: C_3  and  N_4
REMARK    4  A    between atoms: N_12  and  C_28
REMARK    5  A    between atoms: N_16  and  N_17
REMARK    6  A    between atoms: C_18  and  C_19
REMARK    7  A    between atoms: C_20  and  C_21
REMARK                            x       y       z     vdW  Elec       q    Type
REMARK                         _______ _______ _______ _____ _____    ______ ____
ROOT
ATOM      1  N   UNL     1       7.140   8.386  -0.643  0.00  0.00    -0.305 N 
ATOM      2  C   UNL     1       6.686   9.695  -0.717  0.00  0.00    +0.153 A 
ATOM      3  C   UNL     1       7.311  10.949  -0.839  0.00  0.00    +0.280 A 
ATOM      4  O   UNL     1       8.525  11.027  -0.909  0.00  0.00    -0.265 OA
ATOM      5  N   UNL     1       6.553  12.064  -0.877  0.00  0.00    -0.273 N 
ATOM      6  H   UNL     1       6.995  12.957  -0.963  0.00  0.00    +0.173 HD
ATOM      7  C   UNL     1       5.213  11.993  -0.801  0.00  0.00    +0.331 A 
ATOM      8  O   UNL     1       4.562  13.019  -0.840  0.00  0.00    -0.246 OA
ATOM      9  N   UNL     1       4.574  10.814  -0.684  0.00  0.00    -0.280 N 
ATOM     10  C   UNL     1       5.298   9.633  -0.639  0.00  0.00    +0.170 A 
ATOM     11  N   UNL     1       4.958   8.348  -0.530  0.00  0.00    -0.195 NA
ATOM     12  C   UNL     1       6.039   7.595  -0.534  0.00  0.00    +0.218 A 
ATOM     13  N   UNL     1       6.052   6.222  -0.438  0.00  0.00    -0.206 N 
ATOM     14  C   UNL     1       3.111  10.779  -0.604  0.00  0.00    +0.155 C 
ATOM     15  H   UNL     1       6.896   5.743  -0.448  0.00  0.00    +0.177 HD
ENDROOT
BRANCH  13  16
ATOM     16  N   UNL     1       4.847   5.516  -0.324  0.00  0.00    -0.187 NA
ATOM     17  C   UNL     1       4.860   4.217  -0.232  0.00  0.00    +0.145 C 
BRANCH  17  18
ATOM     18  C   UNL     1       3.640   3.502  -0.117  0.00  0.00    +0.038 C 
ATOM     19  C   UNL     1       3.653   2.155  -0.022  0.00  0.00    +0.024 C 
ATOM     20 BR   UNL     1       1.996   4.436  -0.096  0.00  0.00    -0.049 Br
BRANCH  19  21
ATOM     21  C   UNL     1       2.390   1.402  -0.072  0.00  0.00    -0.024 A 
ATOM     22  C   UNL     1       2.229   0.247   0.700  0.00  0.00    +0.008 A 
ATOM     23  C   UNL     1       1.042  -0.453   0.648  0.00  0.00    +0.001 A 
ATOM     24  C   UNL     1       0.011  -0.015  -0.165  0.00  0.00    +0.000 A 
ATOM     25  C   UNL     1       0.163   1.127  -0.932  0.00  0.00    +0.001 A 
ATOM     26  C   UNL     1       1.343   1.838  -0.891  0.00  0.00    +0.008 A 
ENDBRANCH  19  21
ENDBRANCH  17  18
ENDBRANCH  13  16
BRANCH   1  27
ATOM     27  C   UNL     1       8.536   7.942  -0.679  0.00  0.00    +0.125 C 
BRANCH  27  29
ATOM     28  C   UNL     1      10.410   7.222  -2.166  0.00  0.00    +0.005 C 
ATOM     29  C   UNL     1       8.953   7.686  -2.129  0.00  0.00    +0.018 C 
ENDBRANCH  27  29
ENDBRANCH   1  27
TORSDOF 5
