REMARK  Name = ZINC16491816
REMARK  8 active torsions:
REMARK  status: ('A' for Active; 'I' for Inactive)
REMARK    1  A    between atoms: C_1  and  C_2
REMARK    2  A    between atoms: C_4  and  C_33
REMARK    3  A    between atoms: C_6  and  S_8
REMARK    4  A    between atoms: S_8  and  C_9
REMARK    5  A    between atoms: C_9  and  C_10
REMARK    6  A    between atoms: C_13  and  C_16
REMARK    7  A    between atoms: N_18  and  N_19
REMARK    8  A    between atoms: C_20  and  C_22
REMARK                            x       y       z     vdW  Elec       q    Type
REMARK                         _______ _______ _______ _____ _____    ______ ____
ROOT
ATOM      1  C   UNL     1      -4.840   1.454   0.033  0.00  0.00    +0.260 C 
ATOM      2  O   UNL     1      -4.836   0.238   0.026  0.00  0.00    -0.269 OA
ATOM      3  N   UNL     1      -3.675   2.131   0.031  0.00  0.00    -0.230 N 
ATOM      4  H   UNL     1      -3.678   3.101   0.036  0.00  0.00    +0.173 HD
ENDROOT
BRANCH   1   8
ATOM      5  C   UNL     1      -8.525   3.566   0.061  0.00  0.00    -0.037 A 
ATOM      6  C   UNL     1      -8.524   2.182   0.054  0.00  0.00    +0.005 A 
ATOM      7  C   UNL     1      -7.331   1.490   0.045  0.00  0.00    +0.013 A 
ATOM      8  C   UNL     1      -6.123   2.189   0.043  0.00  0.00    +0.038 A 
ATOM      9  C   UNL     1      -6.130   3.585   0.056  0.00  0.00    +0.013 A 
ATOM     10  C   UNL     1      -7.331   4.264   0.059  0.00  0.00    +0.005 A 
BRANCH   5  11
ATOM     11  C   UNL     1      -9.833   4.315   0.071  0.00  0.00    +0.112 C 
BRANCH  11  12
ATOM     12  S   UNL     1     -10.348   4.607   1.782  0.00  0.00    -0.081 S 
BRANCH  12  18
ATOM     13  C   UNL     1     -13.820   6.604  -1.403  0.00  0.00    +0.066 C 
ATOM     14  C   UNL     1     -13.379   6.348   0.015  0.00  0.00    +0.043 A 
ATOM     15  C   UNL     1     -14.151   6.788   1.079  0.00  0.00    +0.046 A 
ATOM     16  C   UNL     1     -13.709   6.531   2.368  0.00  0.00    +0.043 A 
ATOM     17  N   UNL     1     -12.572   5.879   2.543  0.00  0.00    -0.227 NA
ATOM     18  C   UNL     1     -11.857   5.472   1.503  0.00  0.00    +0.189 A 
ATOM     19  N   UNL     1     -12.249   5.706   0.258  0.00  0.00    -0.227 NA
ATOM     20  C   UNL     1     -14.515   6.990   3.556  0.00  0.00    +0.066 C 
ENDBRANCH  12  18
ENDBRANCH  11  12
ENDBRANCH   5  11
ENDBRANCH   1   8
BRANCH   3  21
ATOM     21  N   UNL     1      -2.459   1.435   0.021  0.00  0.00    -0.230 N 
ATOM     22  C   UNL     1      -1.294   2.112   0.020  0.00  0.00    +0.267 C 
ATOM     23  O   UNL     1      -1.298   3.328   0.026  0.00  0.00    -0.268 OA
ATOM     24  H   UNL     1      -2.456   0.465   0.016  0.00  0.00    +0.173 HD
BRANCH  22  25
ATOM     25  C   UNL     1      -0.017   1.380   0.010  0.00  0.00    +0.123 A 
ATOM     26  C   UNL     1       0.002  -0.004   0.002  0.00  0.00    +0.031 A 
ATOM     27  C   UNL     1       1.255  -0.668  -0.013  0.00  0.00    +0.018 A 
ATOM     28  C   UNL     1       1.310  -2.070  -0.021  0.00  0.00    +0.011 A 
ATOM     29  C   UNL     1       2.519  -2.703  -0.035  0.00  0.00    +0.001 A 
ATOM     30  C   UNL     1       3.698  -1.969  -0.043  0.00  0.00    +0.004 A 
ATOM     31  C   UNL     1       3.667  -0.591  -0.036  0.00  0.00    +0.047 A 
ATOM     32  C   UNL     1       2.447   0.077  -0.021  0.00  0.00    +0.139 A 
ATOM     33  O   UNL     1       2.420   1.427  -0.013  0.00  0.00    -0.422 OA
ATOM     34  C   UNL     1       1.259   2.104   0.001  0.00  0.00    +0.350 A 
ATOM     35  O   UNL     1       1.266   3.321   0.008  0.00  0.00    -0.244 OA
ENDBRANCH  22  25
ENDBRANCH   3  21
TORSDOF 6
