REMARK  Name = ZINC12765806
REMARK  7 active torsions:
REMARK  status: ('A' for Active; 'I' for Inactive)
REMARK    1  A    between atoms: C_1  and  C_2
REMARK    2  A    between atoms: C_4  and  C_7
REMARK    3  A    between atoms: C_10  and  N_13
REMARK    4  A    between atoms: N_13  and  C_14
REMARK    5  A    between atoms: C_14  and  C_16
REMARK    6  A    between atoms: C_14  and  C_17
REMARK    7  A    between atoms: N_19  and  C_20
REMARK                            x       y       z     vdW  Elec       q    Type
REMARK                         _______ _______ _______ _____ _____    ______ ____
ROOT
ATOM      1  N   UNL     1       2.387   1.023   0.343  0.00  0.00    -0.333 N 
ATOM      2  H   UNL     1       2.239   0.178   0.796  0.00  0.00    +0.147 HD
ENDROOT
BRANCH   1   6
ATOM      3  C   UNL     1       6.183   1.984  -1.084  0.00  0.00    +0.001 A 
ATOM      4  C   UNL     1       5.969   0.770  -0.433  0.00  0.00    +0.012 A 
ATOM      5  C   UNL     1       4.712   0.454   0.038  0.00  0.00    +0.023 A 
ATOM      6  C   UNL     1       3.660   1.345  -0.135  0.00  0.00    +0.028 A 
ATOM      7  C   UNL     1       3.870   2.553  -0.789  0.00  0.00    +0.023 A 
ATOM      8  C   UNL     1       5.126   2.876  -1.257  0.00  0.00    +0.012 A 
BRANCH   3  12
ATOM      9  C   UNL     1      11.014   0.973  -1.801  0.00  0.00    +0.073 C 
ATOM     10  C   UNL     1       9.750   1.788  -1.884  0.00  0.00    +0.076 A 
ATOM     11  N   UNL     1       8.554   1.496  -1.434  0.00  0.00    -0.244 NA
ATOM     12  C   UNL     1       7.535   2.326  -1.592  0.00  0.00    +0.078 A 
ATOM     13  C   UNL     1       7.768   3.513  -2.234  0.00  0.00    +0.075 A 
ATOM     14  S   UNL     1       9.511   3.354  -2.594  0.00  0.00    -0.080 S 
ENDBRANCH   3  12
ENDBRANCH   1   6
BRANCH   1  15
ATOM     15  C   UNL     1       1.277   1.961   0.161  0.00  0.00    +0.154 C 
ATOM     16  C   UNL     1       1.284   2.986   1.297  0.00  0.00    +0.038 C 
BRANCH  15  17
ATOM     17  C   UNL     1      -0.027   1.205   0.175  0.00  0.00    +0.237 C 
ATOM     18  O   UNL     1      -0.028   0.001   0.322  0.00  0.00    -0.273 OA
ATOM     19  N   UNL     1      -1.191   1.867   0.018  0.00  0.00    -0.284 N 
ATOM     20  H   UNL     1      -1.196   2.836  -0.023  0.00  0.00    +0.155 HD
BRANCH  19  21
ATOM     21  C   UNL     1      -2.391   1.155  -0.086  0.00  0.00    +0.034 A 
ATOM     22  C   UNL     1      -2.412  -0.088  -0.704  0.00  0.00    +0.024 A 
ATOM     23  C   UNL     1      -3.597  -0.791  -0.800  0.00  0.00    +0.017 A 
ATOM     24  C   UNL     1      -4.765  -0.252  -0.292  0.00  0.00    +0.018 A 
ATOM     25  C   UNL     1      -4.749   0.990   0.319  0.00  0.00    +0.017 A 
ATOM     26  C   UNL     1      -3.566   1.694   0.423  0.00  0.00    +0.024 A 
ATOM     27 BR   UNL     1      -6.388  -1.213  -0.431  0.00  0.00    -0.050 Br
ENDBRANCH  19  21
ENDBRANCH  15  17
ENDBRANCH   1  15
TORSDOF 5
