REMARK  Name = ZINC34856419
REMARK  13 active torsions:
REMARK  status: ('A' for Active; 'I' for Inactive)
REMARK    1  A    between atoms: C_1  and  C_2
REMARK    2  A    between atoms: C_5  and  S_8
REMARK    3  A    between atoms: S_8  and  N_11
REMARK    4  A    between atoms: N_11  and  C_12
REMARK    5  A    between atoms: N_11  and  C_19
REMARK    6  A    between atoms: C_12  and  C_13
REMARK    7  A    between atoms: C_13  and  N_14
REMARK    8  A    between atoms: C_19  and  C_20
REMARK    9  A    between atoms: N_22  and  C_23
REMARK   10  A    between atoms: N_22  and  C_30
REMARK   11  A    between atoms: C_23  and  C_24
REMARK   12  A    between atoms: C_30  and  C_31
REMARK   13  A    between atoms: C_32  and  C_36
REMARK                            x       y       z     vdW  Elec       q    Type
REMARK                         _______ _______ _______ _____ _____    ______ ____
ROOT
ATOM      1  N   UNL     1       1.067  -4.810  -0.678  0.00  0.00    -0.170 NA
ENDROOT
BRANCH   1   2
ATOM      2  S   UNL     1      -0.513  -4.445  -1.012  0.00  0.00    +0.061 S 
ATOM      3  O   UNL     1      -1.263  -4.793   0.144  0.00  0.00    -0.153 OA
ATOM      4  O   UNL     1      -0.794  -4.988  -2.294  0.00  0.00    -0.153 OA
BRANCH   2   9
ATOM      5  C   UNL     1      -0.882   1.552  -1.563  0.00  0.00    +0.044 C 
ATOM      6  C   UNL     1      -0.790   0.054  -1.425  0.00  0.00    -0.050 A 
ATOM      7  C   UNL     1      -0.521  -0.726  -2.534  0.00  0.00    +0.005 A 
ATOM      8  C   UNL     1      -0.436  -2.100  -2.407  0.00  0.00    +0.029 A 
ATOM      9  C   UNL     1      -0.620  -2.693  -1.172  0.00  0.00    +0.106 A 
ATOM     10  C   UNL     1      -0.888  -1.913  -0.064  0.00  0.00    +0.029 A 
ATOM     11  C   UNL     1      -0.968  -0.538  -0.189  0.00  0.00    +0.005 A 
ENDBRANCH   2   9
ENDBRANCH   1   2
BRANCH   1  12
ATOM     12  C   UNL     1       1.527  -4.873   0.711  0.00  0.00    +0.091 C 
BRANCH  12  13
ATOM     13  C   UNL     1       1.470  -6.320   1.203  0.00  0.00    -0.062 C 
BRANCH  13  14
ATOM     14  N   UNL     1       1.931  -6.383   2.596  0.00  0.00    +0.381 N 
ATOM     15  C   UNL     1       0.952  -5.714   3.491  0.00  0.00    -0.079 C 
ATOM     16  C   UNL     1       1.257  -6.334   4.877  0.00  0.00    -0.020 C 
ATOM     17  C   UNL     1       1.586  -7.805   4.534  0.00  0.00    -0.020 C 
ATOM     18  C   UNL     1       1.996  -7.789   3.050  0.00  0.00    -0.079 C 
ATOM     19  H   UNL     1       2.837  -5.947   2.683  0.00  0.00    -0.082 HD
ENDBRANCH  13  14
ENDBRANCH  12  13
ENDBRANCH   1  12
BRANCH   1  20
ATOM     20  C   UNL     1       2.005  -5.072  -1.773  0.00  0.00    +0.205 C 
BRANCH  20  21
ATOM     21  C   UNL     1       2.746  -3.804  -2.113  0.00  0.00    +0.232 C 
ATOM     22  O   UNL     1       2.513  -2.783  -1.501  0.00  0.00    -0.274 OA
ATOM     23  N   UNL     1       3.667  -3.805  -3.097  0.00  0.00    -0.291 N 
BRANCH  23  24
ATOM     24  C   UNL     1       4.387  -2.572  -3.427  0.00  0.00    +0.143 C 
BRANCH  24  25
ATOM     25  C   UNL     1       5.703  -2.547  -2.693  0.00  0.00    -0.030 A 
ATOM     26  C   UNL     1       5.779  -1.986  -1.432  0.00  0.00    +0.005 A 
ATOM     27  C   UNL     1       6.986  -1.962  -0.758  0.00  0.00    +0.000 A 
ATOM     28  C   UNL     1       8.116  -2.500  -1.345  0.00  0.00    +0.000 A 
ATOM     29  C   UNL     1       8.039  -3.062  -2.606  0.00  0.00    +0.000 A 
ATOM     30  C   UNL     1       6.832  -3.089  -3.278  0.00  0.00    +0.005 A 
ENDBRANCH  24  25
ENDBRANCH  23  24
BRANCH  23  31
ATOM     31  C   UNL     1       3.948  -5.038  -3.836  0.00  0.00    +0.150 C 
BRANCH  31  32
ATOM     32  C   UNL     1       3.130  -5.064  -5.101  0.00  0.00    +0.010 A 
ATOM     33  C   UNL     1       3.489  -4.702  -6.357  0.00  0.00    -0.039 A 
ATOM     34  C   UNL     1       2.562  -4.811  -7.377  0.00  0.00    +0.011 A 
ATOM     35  C   UNL     1       1.322  -5.277  -7.090  0.00  0.00    +0.046 A 
ATOM     36  S   UNL     1       1.439  -5.585  -5.336  0.00  0.00    -0.100 S 
ATOM     37  C   UNL     1       4.877  -4.187  -6.637  0.00  0.00    +0.044 C 
ENDBRANCH  31  32
ENDBRANCH  23  31
ENDBRANCH  20  21
ENDBRANCH   1  20
TORSDOF 11
