REMARK  Name = ZINC16463826
REMARK  18 active torsions:
REMARK  status: ('A' for Active; 'I' for Inactive)
REMARK    1  A    between atoms: C_1  and  C_2
REMARK    2  A    between atoms: C_2  and  C_3
REMARK    3  A    between atoms: C_2  and  C_4
REMARK    4  A    between atoms: C_4  and  N_5
REMARK    5  A    between atoms: N_5  and  C_6
REMARK    6  A    between atoms: C_6  and  C_7
REMARK    7  A    between atoms: N_9  and  C_10
REMARK    8  A    between atoms: N_9  and  C_25
REMARK    9  A    between atoms: C_10  and  C_11
REMARK   10  A    between atoms: N_15  and  C_16
REMARK   11  A    between atoms: C_16  and  C_17
REMARK   12  A    between atoms: C_21  and  O_23
REMARK   13  A    between atoms: O_23  and  C_24
REMARK   14  A    between atoms: C_25  and  C_26
REMARK   15  A    between atoms: C_25  and  C_27
REMARK   16  A    between atoms: C_25  and  C_28
REMARK   17  A    between atoms: C_29  and  C_31
REMARK   18  A    between atoms: C_35  and  N_37
REMARK                            x       y       z     vdW  Elec       q    Type
REMARK                         _______ _______ _______ _____ _____    ______ ____
ROOT
ATOM      1  C   UNL     1       0.931  -3.496   5.096  0.00  0.00    +0.234 C 
ATOM      2  O   UNL     1      -0.144  -3.755   5.594  0.00  0.00    -0.274 OA
ATOM      3  N   UNL     1       1.004  -2.644   4.055  0.00  0.00    -0.289 N 
ENDROOT
BRANCH   3   4
ATOM      4  C   UNL     1       2.295  -2.379   3.414  0.00  0.00    +0.029 C 
ATOM      5  C   UNL     1       2.150  -1.210   2.438  0.00  0.00    +0.031 C 
ATOM      6  C   UNL     1       3.332  -2.026   4.482  0.00  0.00    +0.031 C 
ATOM      7  C   UNL     1       2.751  -3.626   2.652  0.00  0.00    +0.031 C 
ENDBRANCH   3   4
BRANCH   1   8
ATOM      8  C   UNL     1       2.186  -4.127   5.643  0.00  0.00    +0.204 C 
BRANCH   8   9
ATOM      9  N   UNL     1       1.827  -5.184   6.592  0.00  0.00    -0.288 N 
ATOM     10  C   UNL     1       1.675  -4.893   7.899  0.00  0.00    +0.247 C 
ATOM     11  O   UNL     1       1.943  -3.780   8.309  0.00  0.00    -0.270 OA
BRANCH  10  12
ATOM     12  C   UNL     1       1.181  -5.926   8.834  0.00  0.00    +0.039 A 
ATOM     13  C   UNL     1      -0.021  -6.588   8.576  0.00  0.00    +0.013 A 
ATOM     14  C   UNL     1      -0.474  -7.554   9.450  0.00  0.00    +0.003 A 
ATOM     15  C   UNL     1       0.255  -7.860  10.586  0.00  0.00    +0.033 A 
ATOM     16  C   UNL     1       1.444  -7.204  10.850  0.00  0.00    +0.127 A 
ATOM     17  C   UNL     1       1.911  -6.239   9.982  0.00  0.00    +0.045 A 
BRANCH  16  18
ATOM     18  N   UNL     1       2.216  -7.537  12.068  0.00  0.00    +0.056 N 
ATOM     19  O   UNL     1       3.263  -6.960  12.302  0.00  0.00    -0.126 OA
ATOM     20  O   UNL     1       1.806  -8.389  12.836  0.00  0.00    -0.126 OA
ENDBRANCH  16  18
ENDBRANCH  10  12
BRANCH   9  21
ATOM     21  C   UNL     1       1.634  -6.558   6.121  0.00  0.00    +0.111 C 
BRANCH  21  23
ATOM     22  C   UNL     1       3.617  -7.306   7.444  0.00  0.00    +0.009 C 
ATOM     23  C   UNL     1       2.988  -7.267   6.050  0.00  0.00    +0.000 C 
ATOM     24  C   UNL     1       2.789  -8.696   5.540  0.00  0.00    +0.009 C 
ENDBRANCH  21  23
ENDBRANCH   9  21
ENDBRANCH   8   9
ENDBRANCH   1   8
BRANCH   3  25
ATOM     25  C   UNL     1      -0.207  -1.982   3.564  0.00  0.00    +0.161 C 
BRANCH  25  26
ATOM     26  C   UNL     1      -0.773  -2.764   2.407  0.00  0.00    +0.036 A 
ATOM     27  C   UNL     1      -0.547  -4.069   2.149  0.00  0.00    +0.024 A 
ATOM     28  C   UNL     1      -1.263  -4.398   0.981  0.00  0.00    +0.019 A 
ATOM     29  C   UNL     1      -1.904  -3.284   0.574  0.00  0.00    +0.086 A 
ATOM     30  N   UNL     1      -1.603  -2.276   1.442  0.00  0.00    -0.345 N 
BRANCH  30  31
ATOM     31  C   UNL     1      -2.094  -0.899   1.355  0.00  0.00    +0.156 C 
BRANCH  31  32
ATOM     32  C   UNL     1      -1.112  -0.064   0.575  0.00  0.00    -0.024 A 
ATOM     33  C   UNL     1      -0.176   0.705   1.243  0.00  0.00    +0.005 A 
ATOM     34  C   UNL     1       0.726   1.473   0.530  0.00  0.00    +0.004 A 
ATOM     35  C   UNL     1       0.699   1.469  -0.851  0.00  0.00    +0.045 A 
ATOM     36  C   UNL     1      -0.243   0.704  -1.523  0.00  0.00    +0.120 A 
ATOM     37  C   UNL     1      -1.147  -0.066  -0.805  0.00  0.00    +0.051 A 
BRANCH  36  38
ATOM     38  O   UNL     1      -0.276   0.703  -2.881  0.00  0.00    -0.495 OA
ATOM     39  C   UNL     1       0.686   1.519  -3.554  0.00  0.00    +0.277 C 
ENDBRANCH  36  38
ENDBRANCH  31  32
ENDBRANCH  30  31
ENDBRANCH  25  26
ENDBRANCH   3  25
TORSDOF 12
