REMARK  Name = ZINC02289830
REMARK  6 active torsions:
REMARK  status: ('A' for Active; 'I' for Inactive)
REMARK    1  A    between atoms: C_4  and  C_7
REMARK    2  A    between atoms: N_9  and  C_10
REMARK    3  A    between atoms: C_10  and  C_11
REMARK    4  A    between atoms: N_13  and  N_14
REMARK    5  A    between atoms: N_22  and  C_25
REMARK    6  A    between atoms: C_25  and  C_26
REMARK                            x       y       z     vdW  Elec       q    Type
REMARK                         _______ _______ _______ _____ _____    ______ ____
ROOT
ATOM      1  N   UNL     1       5.551  -6.471  -0.086  0.00  0.00    -0.174 NA
ATOM      2  C   UNL     1       6.560  -7.306  -0.101  0.00  0.00    +0.153 C 
ATOM      3  C   UNL     1       6.506  -8.787  -0.114  0.00  0.00    +0.028 A 
ATOM      4  C   UNL     1       5.459  -9.701  -0.116  0.00  0.00    +0.012 A 
ATOM      5  C   UNL     1       5.732 -11.054  -0.130  0.00  0.00    +0.001 A 
ATOM      6  C   UNL     1       7.044 -11.498  -0.143  0.00  0.00    +0.002 A 
ATOM      7  C   UNL     1       8.090 -10.598  -0.142  0.00  0.00    +0.024 A 
ATOM      8  C   UNL     1       7.835  -9.230  -0.127  0.00  0.00    +0.046 A 
ATOM      9  N   UNL     1       8.687  -8.132  -0.123  0.00  0.00    -0.261 N 
ATOM     10  C   UNL     1       8.000  -6.977  -0.114  0.00  0.00    +0.272 C 
ATOM     11  O   UNL     1       8.480  -5.858  -0.113  0.00  0.00    -0.268 OA
ENDROOT
BRANCH   1  14
ATOM     12  C   UNL     1       4.746  -4.230  -0.067  0.00  0.00    +0.249 C 
ATOM     13  O   UNL     1       3.610  -4.653  -0.058  0.00  0.00    -0.272 OA
ATOM     14  N   UNL     1       5.784  -5.089  -0.081  0.00  0.00    -0.205 N 
ATOM     15  H   UNL     1       6.694  -4.751  -0.089  0.00  0.00    +0.177 HD
BRANCH  12  16
ATOM     16  C   UNL     1       4.997  -2.744  -0.061  0.00  0.00    +0.202 C 
BRANCH  16  19
ATOM     17  C   UNL     1       3.696  -0.685  -0.037  0.00  0.00    +0.244 C 
ATOM     18  O   UNL     1       4.738  -0.060  -0.044  0.00  0.00    -0.270 OA
ATOM     19  N   UNL     1       3.717  -2.032  -0.045  0.00  0.00    -0.303 N 
ATOM     20  H   UNL     1       2.885  -2.531  -0.039  0.00  0.00    +0.150 HD
BRANCH  17  24
ATOM     21  C   UNL     1      -0.017   1.379   0.010  0.00  0.00    +0.000 A 
ATOM     22  C   UNL     1       1.168   2.094   0.002  0.00  0.00    +0.001 A 
ATOM     23  C   UNL     1       2.377   1.429  -0.013  0.00  0.00    +0.013 A 
ATOM     24  C   UNL     1       2.403   0.034  -0.021  0.00  0.00    +0.037 A 
ATOM     25  C   UNL     1       1.204  -0.681  -0.013  0.00  0.00    +0.013 A 
ATOM     26  C   UNL     1       0.002  -0.004   0.002  0.00  0.00    +0.001 A 
ENDBRANCH  17  24
ENDBRANCH  16  19
ENDBRANCH  12  16
ENDBRANCH   1  14
BRANCH   9  27
ATOM     27  C   UNL     1      10.149  -8.222  -0.133  0.00  0.00    +0.149 C 
BRANCH  27  28
ATOM     28  C   UNL     1      10.641  -8.240  -1.558  0.00  0.00    -0.026 A 
ATOM     29  C   UNL     1      10.787  -9.444  -2.222  0.00  0.00    +0.009 A 
ATOM     30  C   UNL     1      11.238  -9.465  -3.529  0.00  0.00    +0.050 A 
ATOM     31  C   UNL     1      11.545  -8.279  -4.176  0.00  0.00    +0.166 A 
ATOM     32  C   UNL     1      11.398  -7.067  -3.507  0.00  0.00    +0.167 A 
ATOM     33  C   UNL     1      10.940  -7.052  -2.199  0.00  0.00    +0.054 A 
ATOM     34  O   UNL     1      11.761  -6.056  -4.350  0.00  0.00    -0.453 OA
ATOM     35  C   UNL     1      12.518  -6.685  -5.401  0.00  0.00    +0.466 C 
ATOM     36  O   UNL     1      11.999  -8.028  -5.438  0.00  0.00    -0.453 OA
ENDBRANCH  27  28
ENDBRANCH   9  27
TORSDOF 6
