REMARK  Name = ZINC34750185
REMARK  11 active torsions:
REMARK  status: ('A' for Active; 'I' for Inactive)
REMARK    1  A    between atoms: C_1  and  C_2
REMARK    2  A    between atoms: C_2  and  N_3
REMARK    3  A    between atoms: C_16  and  S_18
REMARK    4  A    between atoms: S_18  and  C_19
REMARK    5  A    between atoms: C_19  and  C_20
REMARK    6  A    between atoms: N_22  and  C_23
REMARK    7  A    between atoms: N_22  and  C_25
REMARK    8  A    between atoms: C_23  and  C_24
REMARK    9  A    between atoms: C_25  and  C_26
REMARK   10  A    between atoms: C_29  and  C_31
REMARK   11  A    between atoms: C_29  and  C_32
REMARK                            x       y       z     vdW  Elec       q    Type
REMARK                         _______ _______ _______ _____ _____    ______ ____
ROOT
ATOM      1  N   UNL     1       1.209   0.431  -2.074  0.00  0.00    +0.382 N 
ATOM      2  C   UNL     1       2.069   0.255  -3.251  0.00  0.00    -0.060 C 
ATOM      3  C   UNL     1       2.308  -1.239  -3.489  0.00  0.00    +0.088 C 
ATOM      4  N   UNL     1       1.003  -1.911  -3.585  0.00  0.00    -0.318 N 
ATOM      5  C   UNL     1       0.015  -1.660  -2.525  0.00  0.00    +0.088 C 
ATOM      6  C   UNL     1      -0.117  -0.146  -2.333  0.00  0.00    -0.060 C 
ATOM      7  C   UNL     1       0.714  -2.755  -4.642  0.00  0.00    +0.134 A 
ATOM      8  C   UNL     1       1.111  -4.122  -4.601  0.00  0.00    +0.051 A 
ATOM      9  C   UNL     1       1.831  -4.836  -3.548  0.00  0.00    -0.020 A 
ATOM     10  C   UNL     1       2.088  -6.145  -3.759  0.00  0.00    +0.021 A 
ATOM     11  S   UNL     1       1.396  -6.501  -5.348  0.00  0.00    -0.071 S 
ATOM     12  C   UNL     1       0.763  -4.889  -5.731  0.00  0.00    +0.115 A 
ATOM     13  N   UNL     1       0.114  -4.361  -6.751  0.00  0.00    -0.214 NA
ATOM     14  C   UNL     1      -0.231  -3.080  -6.735  0.00  0.00    +0.191 A 
ATOM     15  N   UNL     1       0.061  -2.303  -5.699  0.00  0.00    -0.206 NA
ATOM     16  C   UNL     1       2.808  -7.067  -2.825  0.00  0.00    +0.203 C 
ATOM     17  O   UNL     1       3.455  -6.266  -1.823  0.00  0.00    -0.368 OA
ATOM     18  C   UNL     1       2.596  -5.284  -1.237  0.00  0.00    +0.068 C 
ATOM     19  C   UNL     1       2.292  -4.177  -2.251  0.00  0.00    +0.071 C 
ATOM     20  C   UNL     1       1.287  -5.949  -0.805  0.00  0.00    +0.041 C 
ATOM     21  C   UNL     1       3.282  -4.676  -0.012  0.00  0.00    +0.041 C 
ATOM     22  H   UNL     1       1.627  -0.034  -1.282  0.00  0.00    -0.082 HD
ENDROOT
BRANCH   1  24
ATOM     23  C   UNL     1       2.431   2.439  -1.389  0.00  0.00    -0.017 C 
ATOM     24  C   UNL     1       1.069   1.863  -1.781  0.00  0.00    -0.082 C 
ENDBRANCH   1  24
BRANCH  14  25
ATOM     25  S   UNL     1      -1.097  -2.400  -8.110  0.00  0.00    -0.077 S 
BRANCH  25  26
ATOM     26  C   UNL     1      -1.276  -3.799  -9.251  0.00  0.00    +0.173 C 
BRANCH  26  27
ATOM     27  C   UNL     1      -2.011  -3.348 -10.487  0.00  0.00    +0.226 C 
ATOM     28  O   UNL     1      -2.378  -2.196 -10.588  0.00  0.00    -0.275 OA
ATOM     29  N   UNL     1      -2.261  -4.224 -11.480  0.00  0.00    -0.301 N 
BRANCH  29  30
ATOM     30  C   UNL     1      -2.975  -3.785 -12.682  0.00  0.00    +0.104 C 
ATOM     31  C   UNL     1      -1.968  -3.287 -13.720  0.00  0.00    +0.024 C 
ENDBRANCH  29  30
BRANCH  29  32
ATOM     32  C   UNL     1      -1.818  -5.615 -11.358  0.00  0.00    +0.104 C 
ATOM     33  C   UNL     1      -2.920  -6.444 -10.695  0.00  0.00    +0.024 C 
ENDBRANCH  29  32
ENDBRANCH  26  27
ENDBRANCH  25  26
ENDBRANCH  14  25
TORSDOF 6
