REMARK  Name = ZINC03275249
REMARK  8 active torsions:
REMARK  status: ('A' for Active; 'I' for Inactive)
REMARK    1  A    between atoms: C_1  and  C_2
REMARK    2  A    between atoms: C_4  and  S_10
REMARK    3  A    between atoms: C_5  and  C_9
REMARK    4  A    between atoms: S_10  and  C_11
REMARK    5  A    between atoms: C_11  and  C_12
REMARK    6  A    between atoms: N_14  and  N_15
REMARK    7  A    between atoms: C_16  and  C_17
REMARK    8  A    between atoms: C_20  and  O_23
REMARK                            x       y       z     vdW  Elec       q    Type
REMARK                         _______ _______ _______ _____ _____    ______ ____
ROOT
ATOM      1  C   UNL     1      -0.742   1.585  -1.213  0.00  0.00    +0.242 C 
ATOM      2  O   UNL     1      -1.736   2.268  -1.088  0.00  0.00    -0.273 OA
ATOM      3  N   UNL     1      -0.288   1.272  -2.443  0.00  0.00    -0.206 N 
ATOM      4  H   UNL     1       0.507   0.726  -2.543  0.00  0.00    +0.177 HD
ENDROOT
BRANCH   3   5
ATOM      5  N   UNL     1      -0.966   1.736  -3.578  0.00  0.00    -0.188 NA
ATOM      6  C   UNL     1      -0.530   1.435  -4.763  0.00  0.00    +0.138 C 
BRANCH   6   7
ATOM      7  C   UNL     1      -1.243   1.924  -5.957  0.00  0.00    -0.005 A 
ATOM      8  C   UNL     1      -2.392   2.706  -5.816  0.00  0.00    +0.013 A 
ATOM      9  C   UNL     1      -3.053   3.164  -6.935  0.00  0.00    +0.046 A 
ATOM     10  C   UNL     1      -2.584   2.841  -8.202  0.00  0.00    +0.117 A 
ATOM     11  C   UNL     1      -1.445   2.059  -8.347  0.00  0.00    +0.046 A 
ATOM     12  C   UNL     1      -0.775   1.601  -7.234  0.00  0.00    +0.013 A 
BRANCH  10  13
ATOM     13  O   UNL     1      -3.241   3.290  -9.303  0.00  0.00    -0.507 OA
ATOM     14  H   UNL     1      -3.931   2.691  -9.620  0.00  0.00    +0.292 HD
ENDBRANCH  10  13
ENDBRANCH   6   7
ENDBRANCH   3   5
BRANCH   1  15
ATOM     15  C   UNL     1      -0.013   1.086   0.008  0.00  0.00    +0.171 C 
BRANCH  15  16
ATOM     16  S   UNL     1      -0.862   1.671   1.500  0.00  0.00    -0.116 S 
BRANCH  16  20
ATOM     17  C   UNL     1       3.191  -1.110   3.296  0.00  0.00    +0.045 C 
ATOM     18  C   UNL     1       1.972  -0.273   3.590  0.00  0.00    -0.035 A 
ATOM     19  C   UNL     1       1.218   0.236   2.551  0.00  0.00    +0.019 A 
ATOM     20  C   UNL     1       0.099   1.013   2.823  0.00  0.00    +0.012 A 
ATOM     21  C   UNL     1      -0.265   1.264   4.141  0.00  0.00    -0.036 A 
ATOM     22  C   UNL     1       0.489   0.747   5.175  0.00  0.00    +0.020 A 
ATOM     23  C   UNL     1       1.607  -0.021   4.900  0.00  0.00    +0.021 A 
ATOM     24 BR   UNL     1       2.638  -0.728   6.319  0.00  0.00    -0.050 Br
ATOM     25  C   UNL     1      -1.482   2.101   4.440  0.00  0.00    +0.045 C 
ENDBRANCH  16  20
ENDBRANCH  15  16
ENDBRANCH   1  15
TORSDOF 6
