REMARK  Name = ZINC27019942
REMARK  13 active torsions:
REMARK  status: ('A' for Active; 'I' for Inactive)
REMARK    1  A    between atoms: C_1  and  C_2
REMARK    2  A    between atoms: C_2  and  C_3
REMARK    3  A    between atoms: C_2  and  C_4
REMARK    4  A    between atoms: C_2  and  C_5
REMARK    5  A    between atoms: C_7  and  C_16
REMARK    6  A    between atoms: C_9  and  C_12
REMARK    7  A    between atoms: C_10  and  O_11
REMARK    8  A    between atoms: C_12  and  C_13
REMARK    9  A    between atoms: C_12  and  C_14
REMARK   10  A    between atoms: C_12  and  C_15
REMARK   11  A    between atoms: C_17  and  C_18
REMARK   12  A    between atoms: C_17  and  C_20
REMARK   13  A    between atoms: N_22  and  C_23
REMARK                            x       y       z     vdW  Elec       q    Type
REMARK                         _______ _______ _______ _____ _____    ______ ____
ROOT
ATOM      1  C   UNL     1      -4.834   1.202  -0.256  0.00  0.00    +0.000 A 
ATOM      2  C   UNL     1      -3.693   1.947  -0.168  0.00  0.00    +0.015 A 
ATOM      3  C   UNL     1      -2.448   1.308  -0.076  0.00  0.00    -0.023 A 
ATOM      4  C   UNL     1      -2.383  -0.093  -0.082  0.00  0.00    +0.015 A 
ATOM      5  C   UNL     1      -3.532  -0.827  -0.166  0.00  0.00    +0.000 A 
ATOM      6  C   UNL     1      -4.764  -0.187  -0.256  0.00  0.00    +0.124 A 
ENDROOT
BRANCH   1   8
ATOM      7  C   UNL     1      -5.973   3.404  -0.335  0.00  0.00    +0.015 C 
ATOM      8  C   UNL     1      -6.173   1.887  -0.355  0.00  0.00    -0.009 C 
ATOM      9  C   UNL     1      -6.859   1.481  -1.661  0.00  0.00    +0.015 C 
ATOM     10  C   UNL     1      -7.047   1.473   0.830  0.00  0.00    +0.015 C 
ENDBRANCH   1   8
BRANCH   5  11
ATOM     11  C   UNL     1      -3.465  -2.332  -0.167  0.00  0.00    -0.009 C 
ATOM     12  C   UNL     1      -2.005  -2.777  -0.058  0.00  0.00    +0.015 C 
ATOM     13  C   UNL     1      -4.254  -2.879   1.024  0.00  0.00    +0.015 C 
ATOM     14  C   UNL     1      -4.066  -2.869  -1.467  0.00  0.00    +0.015 C 
ENDBRANCH   5  11
BRANCH   6  15
ATOM     15  O   UNL     1      -5.902  -0.921  -0.344  0.00  0.00    -0.506 OA
ATOM     16  H   UNL     1      -5.848  -2.020  -0.344  0.00  0.00    +0.292 HD
ENDBRANCH   6  15
BRANCH   3  17
ATOM     17  C   UNL     1      -1.220   2.100   0.019  0.00  0.00    +0.032 C 
ATOM     18  C   UNL     1      -0.129   1.601   0.696  0.00  0.00    +0.114 C 
BRANCH  18  19
ATOM     19  C   UNL     1       1.153   2.324   0.661  0.00  0.00    +0.255 C 
ATOM     20  O   UNL     1       1.247   3.365   0.039  0.00  0.00    -0.269 OA
ATOM     21  N   UNL     1       2.222   1.833   1.319  0.00  0.00    -0.306 N 
ATOM     22  H   UNL     1       2.136   0.891   1.881  0.00  0.00    +0.149 HD
BRANCH  21  23
ATOM     23  C   UNL     1       3.497   2.552   1.284  0.00  0.00    +0.096 C 
ATOM     24  C   UNL     1       3.509   3.624   2.387  0.00  0.00    +0.046 C 
ATOM     25  C   UNL     1       4.964   4.152   2.534  0.00  0.00    +0.168 C 
ATOM     26  S   UNL     1       5.910   2.577   2.383  0.00  0.00    -0.029 S 
ATOM     27  O   UNL     1       6.122   2.039   3.681  0.00  0.00    -0.174 OA
ATOM     28  O   UNL     1       7.020   2.786   1.521  0.00  0.00    -0.174 OA
ATOM     29  C   UNL     1       4.657   1.553   1.509  0.00  0.00    +0.188 C 
ENDBRANCH  21  23
ENDBRANCH  18  19
BRANCH  18  30
ATOM     30  C   UNL     1      -0.239   0.376   1.428  0.00  0.00    +0.104 C 
ATOM     31  N   UNL     1      -0.328  -0.597   2.009  0.00  0.00    -0.191 NA
ENDBRANCH  18  30
ENDBRANCH   3  17
TORSDOF 7
