REMARK  Name = ZINC00832396
REMARK  12 active torsions:
REMARK  status: ('A' for Active; 'I' for Inactive)
REMARK    1  A    between atoms: C_1  and  C_2
REMARK    2  A    between atoms: C_2  and  O_3
REMARK    3  A    between atoms: O_3  and  C_4
REMARK    4  A    between atoms: C_4  and  C_6
REMARK    5  A    between atoms: C_7  and  C_35
REMARK    6  A    between atoms: C_14  and  C_15
REMARK    7  A    between atoms: C_19  and  O_21
REMARK    8  A    between atoms: C_23  and  C_25
REMARK    9  A    between atoms: C_28  and  O_33
REMARK   10  A    between atoms: C_29  and  O_31
REMARK   11  A    between atoms: O_31  and  C_32
REMARK   12  A    between atoms: O_33  and  C_34
REMARK                            x       y       z     vdW  Elec       q    Type
REMARK                         _______ _______ _______ _____ _____    ______ ____
ROOT
ATOM      1  C   UNL     1      -2.029   2.130   1.655  0.00  0.00    +0.085 C 
ATOM      2  C   UNL     1      -3.227   1.677   2.130  0.00  0.00    +0.053 C 
ATOM      3  N   UNL     1      -4.265   1.534   1.316  0.00  0.00    -0.228 NA
ATOM      4  C   UNL     1      -4.252   1.797   0.034  0.00  0.00    +0.178 A 
ATOM      5  N   UNL     1      -3.149   2.262  -0.645  0.00  0.00    -0.275 N 
ATOM      6  C   UNL     1      -3.255   2.496  -1.959  0.00  0.00    +0.268 A 
ATOM      7  O   UNL     1      -2.307   2.908  -2.601  0.00  0.00    -0.266 OA
ATOM      8  C   UNL     1      -4.553   2.240  -2.603  0.00  0.00    +0.081 A 
ATOM      9  C   UNL     1      -4.917   2.394  -3.901  0.00  0.00    +0.028 C 
ATOM     10  S   UNL     1      -5.519   1.672  -1.212  0.00  0.00    -0.046 S 
ATOM     11  C   UNL     1      -1.926   2.458   0.183  0.00  0.00    +0.162 C 
ATOM     12  C   UNL     1      -3.371   1.340   3.592  0.00  0.00    +0.066 C 
ENDROOT
BRANCH   9  13
ATOM     13  C   UNL     1      -6.208   1.869  -4.369  0.00  0.00    -0.020 A 
ATOM     14  C   UNL     1      -6.978   1.050  -3.535  0.00  0.00    +0.008 A 
ATOM     15  C   UNL     1      -8.190   0.564  -3.977  0.00  0.00    +0.004 A 
ATOM     16  C   UNL     1      -8.643   0.874  -5.247  0.00  0.00    +0.045 A 
ATOM     17  C   UNL     1      -7.885   1.681  -6.085  0.00  0.00    +0.117 A 
ATOM     18  C   UNL     1      -6.669   2.180  -5.652  0.00  0.00    +0.053 A 
BRANCH  17  19
ATOM     19  O   UNL     1      -8.337   1.980  -7.331  0.00  0.00    -0.507 OA
ATOM     20  H   UNL     1      -8.060   1.351  -8.012  0.00  0.00    +0.292 HD
ENDBRANCH  17  19
ENDBRANCH   9  13
BRANCH  11  21
ATOM     21  C   UNL     1      -0.827   1.610  -0.405  0.00  0.00    -0.016 A 
ATOM     22  C   UNL     1       0.440   2.139  -0.569  0.00  0.00    +0.010 A 
ATOM     23  C   UNL     1       1.449   1.368  -1.114  0.00  0.00    +0.050 A 
ATOM     24  C   UNL     1       1.195   0.057  -1.486  0.00  0.00    +0.162 A 
ATOM     25  C   UNL     1      -0.078  -0.477  -1.316  0.00  0.00    +0.162 A 
ATOM     26  C   UNL     1      -1.087   0.304  -0.775  0.00  0.00    +0.055 A 
BRANCH  25  27
ATOM     27  O   UNL     1      -0.333  -1.762  -1.680  0.00  0.00    -0.491 OA
ATOM     28  C   UNL     1      -1.640  -2.268  -1.405  0.00  0.00    +0.277 C 
ENDBRANCH  25  27
BRANCH  24  29
ATOM     29  O   UNL     1       2.189  -0.705  -2.017  0.00  0.00    -0.491 OA
ATOM     30  C   UNL     1       3.471  -0.091  -2.162  0.00  0.00    +0.277 C 
ENDBRANCH  24  29
ENDBRANCH  11  21
BRANCH   1  31
ATOM     31  C   UNL     1      -0.924   2.285   2.509  0.00  0.00    +0.339 C 
ATOM     32  O   UNL     1      -1.009   1.960   3.679  0.00  0.00    -0.245 OA
BRANCH  31  33
ATOM     33  O   UNL     1       0.232   2.795   2.032  0.00  0.00    -0.462 OA
BRANCH  33  35
ATOM     34  C   UNL     1       2.523   3.532   2.252  0.00  0.00    +0.048 C 
ATOM     35  C   UNL     1       1.347   2.821   2.925  0.00  0.00    +0.229 C 
ENDBRANCH  33  35
ENDBRANCH  31  33
ENDBRANCH   1  31
TORSDOF 8
