REMARK  Name = ZINC40964632
REMARK  3 active torsions:
REMARK  status: ('A' for Active; 'I' for Inactive)
REMARK    1  A    between atoms: C_1  and  O_2
REMARK    2  A    between atoms: O_2  and  C_3
REMARK    3  A    between atoms: C_11  and  C_15
REMARK                            x       y       z     vdW  Elec       q    Type
REMARK                         _______ _______ _______ _____ _____    ______ ____
ROOT
ATOM      1  C   UNL     1       0.606  -0.607  -1.056  0.00  0.00    +0.145 A 
ATOM      2  C   UNL     1       1.167   0.164  -2.053  0.00  0.00    +0.048 A 
ATOM      3  C   UNL     1       1.790  -0.417  -3.144  0.00  0.00    +0.005 A 
ATOM      4  C   UNL     1       1.848  -1.797  -3.233  0.00  0.00    +0.017 A 
ATOM      5  C   UNL     1       1.288  -2.567  -2.239  0.00  0.00    +0.043 A 
ATOM      6  C   UNL     1       0.657  -2.014  -1.121  0.00  0.00    +0.104 A 
ATOM      7  N   UNL     1       0.136  -2.914  -0.181  0.00  0.00    -0.289 N 
ATOM      8  C   UNL     1      -0.548  -2.826   1.028  0.00  0.00    +0.122 A 
ATOM      9  C   UNL     1      -0.778  -4.090   1.458  0.00  0.00    +0.090 A 
ATOM     10  N   UNL     1      -0.256  -4.942   0.550  0.00  0.00    -0.221 NA
ATOM     11  C   UNL     1       0.281  -4.250  -0.414  0.00  0.00    +0.179 A 
ATOM     12  S   UNL     1       1.144  -4.316  -1.967  0.00  0.00    -0.049 S 
ENDROOT
BRANCH   9  13
ATOM     13  C   UNL     1      -1.480  -4.471   2.708  0.00  0.00    +0.002 A 
ATOM     14  C   UNL     1      -1.977  -3.486   3.559  0.00  0.00    +0.011 A 
ATOM     15  C   UNL     1      -2.629  -3.845   4.720  0.00  0.00    +0.016 A 
ATOM     16  C   UNL     1      -2.790  -5.182   5.041  0.00  0.00    +0.018 A 
ATOM     17  C   UNL     1      -2.298  -6.165   4.199  0.00  0.00    +0.016 A 
ATOM     18  C   UNL     1      -1.650  -5.816   3.032  0.00  0.00    +0.011 A 
ATOM     19 BR   UNL     1      -3.683  -5.668   6.635  0.00  0.00    -0.050 Br
ENDBRANCH   9  13
BRANCH   1  21
ATOM     20  C   UNL     1      -0.017   1.425   0.010  0.00  0.00    +0.277 C 
ATOM     21  O   UNL     1       0.002  -0.004   0.002  0.00  0.00    -0.493 OA
ENDBRANCH   1  21
TORSDOF 2
