REMARK  Name = ZINC40586362
REMARK  10 active torsions:
REMARK  status: ('A' for Active; 'I' for Inactive)
REMARK    1  A    between atoms: C_1  and  C_2
REMARK    2  A    between atoms: C_2  and  N_3
REMARK    3  A    between atoms: N_3  and  C_4
REMARK    4  A    between atoms: N_3  and  S_6
REMARK    5  A    between atoms: C_4  and  C_5
REMARK    6  A    between atoms: S_6  and  C_9
REMARK    7  A    between atoms: C_12  and  N_15
REMARK    8  A    between atoms: C_17  and  N_29
REMARK    9  A    between atoms: C_18  and  N_22
REMARK   10  A    between atoms: N_22  and  C_23
REMARK                            x       y       z     vdW  Elec       q    Type
REMARK                         _______ _______ _______ _____ _____    ______ ____
ROOT
ATOM      1  N   UNL     1      -0.658   4.219  -5.504  0.00  0.00    -0.297 N 
ATOM      2  C   UNL     1       0.470   4.913  -5.915  0.00  0.00    +0.159 A 
ATOM      3  C   UNL     1       0.352   6.029  -6.739  0.00  0.00    +0.206 A 
ATOM      4  C   UNL     1       1.514   6.691  -7.123  0.00  0.00    +0.159 A 
ATOM      5  N   UNL     1       2.689   6.236  -6.692  0.00  0.00    -0.218 NA
ATOM      6  C   UNL     1       2.760   5.176  -5.913  0.00  0.00    +0.225 A 
ATOM      7  N   UNL     1       1.682   4.526  -5.523  0.00  0.00    -0.218 NA
ATOM      8  H   UNL     1      -1.541   4.556  -5.723  0.00  0.00    +0.154 HD
ENDROOT
BRANCH   1  12
ATOM      9  C   UNL     1      -0.256   0.690  -3.329  0.00  0.00    +0.106 A 
ATOM     10  C   UNL     1      -1.332   1.526  -3.095  0.00  0.00    +0.030 A 
ATOM     11  C   UNL     1      -1.469   2.697  -3.814  0.00  0.00    +0.025 A 
ATOM     12  C   UNL     1      -0.523   3.035  -4.774  0.00  0.00    +0.033 A 
ATOM     13  C   UNL     1       0.558   2.194  -5.006  0.00  0.00    +0.025 A 
ATOM     14  C   UNL     1       0.691   1.027  -4.279  0.00  0.00    +0.030 A 
BRANCH   9  15
ATOM     15  S   UNL     1      -0.086  -0.803  -2.409  0.00  0.00    +0.061 S 
ATOM     16  O   UNL     1       0.717  -1.674  -3.194  0.00  0.00    -0.153 OA
ATOM     17  O   UNL     1      -1.389  -1.158  -1.967  0.00  0.00    -0.153 OA
BRANCH  15  18
ATOM     18  N   UNL     1       0.793  -0.445  -1.052  0.00  0.00    -0.177 NA
BRANCH  18  20
ATOM     19  C   UNL     1       0.073   1.505   0.237  0.00  0.00    +0.022 C 
ATOM     20  C   UNL     1       0.109  -0.023   0.173  0.00  0.00    +0.106 C 
ENDBRANCH  18  20
BRANCH  18  21
ATOM     21  C   UNL     1       2.254  -0.549  -1.077  0.00  0.00    +0.106 C 
ATOM     22  C   UNL     1       2.677  -1.920  -0.544  0.00  0.00    +0.022 C 
ENDBRANCH  18  21
ENDBRANCH  15  18
ENDBRANCH   9  15
ENDBRANCH   1  12
BRANCH   3  23
ATOM     23  N   UNL     1      -0.976   6.499  -7.194  0.00  0.00    +0.063 N 
ATOM     24  O   UNL     1      -1.589   7.307  -6.537  0.00  0.00    -0.126 OA
ATOM     25  O   UNL     1      -1.446   6.076  -8.224  0.00  0.00    -0.126 OA
ENDBRANCH   3  23
BRANCH   4  26
ATOM     26  N   UNL     1       1.449   7.808  -7.944  0.00  0.00    -0.297 N 
ATOM     27  H   UNL     1       0.588   8.174  -8.199  0.00  0.00    +0.154 HD
BRANCH  26  28
ATOM     28  C   UNL     1       2.622   8.404  -8.403  0.00  0.00    +0.035 A 
ATOM     29  C   UNL     1       3.754   7.638  -8.678  0.00  0.00    +0.041 A 
ATOM     30  C   UNL     1       4.895   8.267  -9.130  0.00  0.00    +0.084 A 
ATOM     31  N   UNL     1       4.924   9.575  -9.302  0.00  0.00    -0.367 N 
ATOM     32  C   UNL     1       3.874  10.335  -9.053  0.00  0.00    +0.084 A 
ATOM     33  C   UNL     1       2.693   9.783  -8.603  0.00  0.00    +0.041 A 
ATOM     34  H   UNL     1       5.741   9.990  -9.621  0.00  0.00    +0.165 HD
ENDBRANCH  26  28
ENDBRANCH   4  26
TORSDOF 8
