REMARK  Name = ZINC08660867
REMARK  6 active torsions:
REMARK  status: ('A' for Active; 'I' for Inactive)
REMARK    1  A    between atoms: C_1  and  O_2
REMARK    2  A    between atoms: O_2  and  C_3
REMARK    3  A    between atoms: C_6  and  N_12
REMARK    4  A    between atoms: C_7  and  N_9
REMARK    5  A    between atoms: C_21  and  C_35
REMARK    6  A    between atoms: C_35  and  O_36
REMARK                            x       y       z     vdW  Elec       q    Type
REMARK                         _______ _______ _______ _____ _____    ______ ____
ROOT
ATOM      1  N   UNL     1       2.573  -2.132  -4.395  0.00  0.00    -0.208 N 
ATOM      2  C   UNL     1       1.944  -2.471  -5.528  0.00  0.00    +0.231 C 
ATOM      3  O   UNL     1       0.745  -2.426  -5.707  0.00  0.00    -0.274 OA
ATOM      4  C   UNL     1       2.967  -2.918  -6.549  0.00  0.00    +0.101 C 
ATOM      5  C   UNL     1       4.306  -2.780  -5.805  0.00  0.00    +0.106 C 
ATOM      6  C   UNL     1       3.905  -2.261  -4.441  0.00  0.00    +0.231 C 
ATOM      7  O   UNL     1       4.667  -2.005  -3.534  0.00  0.00    -0.274 OA
ATOM      8  C   UNL     1       4.999  -4.151  -5.647  0.00  0.00    +0.056 C 
ATOM      9  C   UNL     1       3.981  -5.042  -4.954  0.00  0.00    -0.030 A 
ATOM     10  C   UNL     1       4.188  -5.686  -3.767  0.00  0.00    +0.005 A 
ATOM     11  C   UNL     1       3.168  -6.471  -3.245  0.00  0.00    +0.000 A 
ATOM     12  C   UNL     1       1.966  -6.596  -3.917  0.00  0.00    +0.000 A 
ATOM     13  C   UNL     1       1.762  -5.939  -5.123  0.00  0.00    +0.004 A 
ATOM     14  C   UNL     1       2.769  -5.168  -5.630  0.00  0.00    -0.035 A 
ATOM     15  C   UNL     1       2.677  -4.385  -6.931  0.00  0.00    +0.062 C 
ATOM     16  C   UNL     1       3.889  -4.845  -7.725  0.00  0.00    -0.035 A 
ATOM     17  C   UNL     1       5.119  -4.707  -7.057  0.00  0.00    -0.030 A 
ATOM     18  C   UNL     1       6.293  -5.069  -7.655  0.00  0.00    +0.005 A 
ATOM     19  C   UNL     1       6.258  -5.564  -8.952  0.00  0.00    +0.000 A 
ATOM     20  C   UNL     1       5.056  -5.687  -9.623  0.00  0.00    +0.000 A 
ATOM     21  C   UNL     1       3.847  -5.334  -9.000  0.00  0.00    +0.004 A 
ENDROOT
BRANCH   1  25
ATOM     22  C   UNL     1       0.551  -0.769  -1.010  0.00  0.00    +0.122 A 
ATOM     23  C   UNL     1       0.712  -2.131  -1.220  0.00  0.00    +0.047 A 
ATOM     24  C   UNL     1       1.380  -2.583  -2.341  0.00  0.00    +0.030 A 
ATOM     25  C   UNL     1       1.892  -1.673  -3.257  0.00  0.00    +0.074 A 
ATOM     26  C   UNL     1       1.732  -0.311  -3.045  0.00  0.00    +0.151 A 
ATOM     27  C   UNL     1       1.058   0.140  -1.927  0.00  0.00    +0.080 A 
BRANCH  26  28
ATOM     28  N   UNL     1       2.278   0.659  -4.021  0.00  0.00    +0.058 N 
ATOM     29  O   UNL     1       2.226   1.844  -3.789  0.00  0.00    -0.126 OA
ATOM     30  O   UNL     1       2.776   0.266  -5.051  0.00  0.00    -0.126 OA
ENDBRANCH  26  28
BRANCH  22  32
ATOM     31  C   UNL     1      -0.602  -1.316   0.996  0.00  0.00    +0.277 C 
ATOM     32  O   UNL     1      -0.107  -0.325   0.094  0.00  0.00    -0.495 OA
ENDBRANCH  22  32
ENDBRANCH   1  25
BRANCH   8  33
ATOM     33  C   UNL     1       6.342  -4.064  -4.920  0.00  0.00    +0.172 C 
BRANCH  33  34
ATOM     34  O   UNL     1       6.913  -5.370  -4.817  0.00  0.00    -0.394 OA
ATOM     35  H   UNL     1       7.768  -5.391  -4.365  0.00  0.00    +0.209 HD
ENDBRANCH  33  34
ENDBRANCH   8  33
TORSDOF 5
