REMARK  Name = ZINC60159499
REMARK  6 active torsions:
REMARK  status: ('A' for Active; 'I' for Inactive)
REMARK    1  A    between atoms: C_4  and  C_7
REMARK    2  A    between atoms: C_7  and  N_8
REMARK    3  A    between atoms: C_13  and  C_15
REMARK    4  A    between atoms: C_15  and  N_16
REMARK    5  A    between atoms: C_17  and  C_19
REMARK    6  A    between atoms: C_19  and  N_20
REMARK                            x       y       z     vdW  Elec       q    Type
REMARK                         _______ _______ _______ _____ _____    ______ ____
ROOT
ATOM      1  N   UNL     1       5.953  -0.209  -0.509  0.00  0.00    -0.316 N 
ATOM      2  C   UNL     1       6.714   0.561  -1.312  0.00  0.00    +0.231 C 
ATOM      3  O   UNL     1       7.840   0.860  -0.975  0.00  0.00    -0.274 OA
ATOM      4  H   UNL     1       5.052  -0.448  -0.778  0.00  0.00    +0.149 HD
ENDROOT
BRANCH   1   5
ATOM      5  C   UNL     1       6.485  -0.683   0.771  0.00  0.00    +0.089 C 
BRANCH   5  11
ATOM      6  N   UNL     1       5.141  -2.708   0.485  0.00  0.00    +0.385 N 
ATOM      7  C   UNL     1       4.232  -3.664   1.129  0.00  0.00    -0.078 C 
ATOM      8  C   UNL     1       2.917  -2.965   1.482  0.00  0.00    -0.019 C 
ATOM      9  C   UNL     1       3.203  -1.805   2.441  0.00  0.00    -0.003 C 
ATOM     10  C   UNL     1       4.210  -0.853   1.788  0.00  0.00    -0.014 C 
ATOM     11  C   UNL     1       5.476  -1.630   1.424  0.00  0.00    -0.051 C 
ATOM     12  H   UNL     1       4.691  -2.316  -0.329  0.00  0.00    -0.081 HD
BRANCH   6  13
ATOM     13  C   UNL     1       6.370  -3.401   0.078  0.00  0.00    -0.043 C 
BRANCH  13  17
ATOM     14  C   UNL     1       5.448  -6.287  -2.934  0.00  0.00    +0.000 A 
ATOM     15  C   UNL     1       5.781  -4.994  -3.294  0.00  0.00    +0.000 A 
ATOM     16  C   UNL     1       6.079  -4.061  -2.319  0.00  0.00    +0.002 A 
ATOM     17  C   UNL     1       6.044  -4.419  -0.985  0.00  0.00    -0.064 A 
ATOM     18  C   UNL     1       5.710  -5.711  -0.625  0.00  0.00    +0.002 A 
ATOM     19  C   UNL     1       5.413  -6.646  -1.599  0.00  0.00    +0.000 A 
ENDBRANCH  13  17
ENDBRANCH   6  13
ENDBRANCH   5  11
ENDBRANCH   1   5
BRANCH   2  20
ATOM     20  C   UNL     1       6.167   1.048  -2.628  0.00  0.00    +0.213 C 
BRANCH  20  21
ATOM     21  N   UNL     1       7.180   1.859  -3.308  0.00  0.00    -0.215 N 
ATOM     22  C   UNL     1       7.314   3.194  -3.154  0.00  0.00    +0.251 C 
ATOM     23  O   UNL     1       6.647   3.924  -2.453  0.00  0.00    -0.272 OA
ATOM     24  C   UNL     1       8.472   3.581  -4.038  0.00  0.00    +0.138 C 
ATOM     25  C   UNL     1       9.600   4.227  -3.224  0.00  0.00    +0.045 C 
ATOM     26  C   UNL     1       9.305   5.734  -3.399  0.00  0.00    +0.038 C 
ATOM     27  C   UNL     1       8.546   5.842  -4.705  0.00  0.00    -0.042 A 
ATOM     28  C   UNL     1       8.064   4.595  -5.071  0.00  0.00    -0.012 A 
ATOM     29  C   UNL     1       7.335   4.458  -6.241  0.00  0.00    +0.006 A 
ATOM     30  C   UNL     1       7.087   5.557  -7.040  0.00  0.00    +0.000 A 
ATOM     31  C   UNL     1       7.567   6.800  -6.674  0.00  0.00    +0.000 A 
ATOM     32  C   UNL     1       8.295   6.940  -5.509  0.00  0.00    +0.004 A 
ATOM     33  N   UNL     1       8.905   2.324  -4.649  0.00  0.00    -0.281 N 
ATOM     34  C   UNL     1       8.093   1.367  -4.157  0.00  0.00    +0.310 C 
ATOM     35  O   UNL     1       8.177   0.191  -4.453  0.00  0.00    -0.252 OA
ATOM     36  H   UNL     1       9.633   2.204  -5.278  0.00  0.00    +0.152 HD
ENDBRANCH  20  21
ENDBRANCH   2  20
TORSDOF 6
