REMARK  Name = ZINC08672639
REMARK  14 active torsions:
REMARK  status: ('A' for Active; 'I' for Inactive)
REMARK    1  A    between atoms: C_1  and  C_2
REMARK    2  A    between atoms: C_6  and  C_14
REMARK    3  A    between atoms: C_7  and  O_13
REMARK    4  A    between atoms: C_11  and  C_12
REMARK    5  A    between atoms: C_14  and  C_16
REMARK    6  A    between atoms: C_14  and  N_70
REMARK    7  A    between atoms: N_20  and  C_21
REMARK    8  A    between atoms: C_21  and  C_22
REMARK    9  A    between atoms: C_21  and  C_23
REMARK   10  A    between atoms: C_21  and  C_24
REMARK   11  A    between atoms: C_25  and  C_26
REMARK   12  A    between atoms: C_25  and  N_70
REMARK   13  A    between atoms: C_31  and  C_32
REMARK   14  A    between atoms: C_31  and  N_70
REMARK                            x       y       z     vdW  Elec       q    Type
REMARK                         _______ _______ _______ _____ _____    ______ ____
ROOT
ATOM      1  C   UNL     1      -1.296   1.733   0.177  0.00  0.00    +0.039 C 
ENDROOT
BRANCH   1   7
ATOM      2  C   UNL     1       0.586  -1.549   6.559  0.00  0.00    +0.044 C 
ATOM      3  C   UNL     1      -0.323  -0.660   5.751  0.00  0.00    -0.047 A 
ATOM      4  C   UNL     1      -0.055  -0.445   4.432  0.00  0.00    +0.013 A 
ATOM      5  C   UNL     1      -0.901   0.383   3.679  0.00  0.00    +0.001 A 
ATOM      6  C   UNL     1      -0.660   0.624   2.311  0.00  0.00    +0.017 A 
ATOM      7  C   UNL     1      -1.519   1.443   1.639  0.00  0.00    +0.008 A 
ATOM      8  C   UNL     1      -2.611   2.009   2.308  0.00  0.00    +0.215 A 
ATOM      9  N   UNL     1      -2.834   1.776   3.583  0.00  0.00    -0.213 NA
ATOM     10  C   UNL     1      -2.024   0.986   4.297  0.00  0.00    +0.075 A 
ATOM     11  C   UNL     1      -2.268   0.740   5.659  0.00  0.00    +0.032 A 
ATOM     12  C   UNL     1      -1.427  -0.068   6.361  0.00  0.00    -0.045 A 
ATOM     13  C   UNL     1      -1.694  -0.327   7.821  0.00  0.00    +0.044 C 
BRANCH   8  14
ATOM     14  O   UNL     1      -3.459   2.816   1.625  0.00  0.00    -0.492 OA
ATOM     15  H   UNL     1      -4.240   2.363   1.278  0.00  0.00    +0.294 HD
ENDBRANCH   8  14
ENDBRANCH   1   7
BRANCH   1  16
ATOM     16  C   UNL     1       0.114   1.358  -0.201  0.00  0.00    +0.143 A 
ATOM     17  N   UNL     1       0.576   0.148  -0.397  0.00  0.00    -0.115 NA
ATOM     18  N   UNL     1       1.822   0.243  -0.708  0.00  0.00    -0.023 NA
ATOM     19  N   UNL     1       2.167   1.483  -0.715  0.00  0.00    -0.043 NA
ATOM     20  N   UNL     1       1.141   2.202  -0.407  0.00  0.00    -0.225 N 
BRANCH  20  21
ATOM     21  C   UNL     1       1.102   3.663  -0.302  0.00  0.00    +0.059 C 
ATOM     22  C   UNL     1       0.568   4.061   1.075  0.00  0.00    +0.036 C 
ATOM     23  C   UNL     1       2.514   4.225  -0.484  0.00  0.00    +0.036 C 
ATOM     24  C   UNL     1       0.185   4.228  -1.388  0.00  0.00    +0.036 C 
ENDBRANCH  20  21
ENDBRANCH   1  16
BRANCH   1  25
ATOM     25  N   UNL     1      -2.270   0.958  -0.621  0.00  0.00    +0.396 N 
ATOM     26  H   UNL     1      -3.219   1.278  -0.392  0.00  0.00    -0.080 HD
BRANCH  25  27
ATOM     27  C   UNL     1      -2.026   1.173  -2.063  0.00  0.00    -0.002 C 
BRANCH  27  28
ATOM     28  C   UNL     1      -3.224   0.684  -2.835  0.00  0.00    +0.089 A 
ATOM     29  C   UNL     1      -4.276   1.433  -3.213  0.00  0.00    +0.042 A 
ATOM     30  C   UNL     1      -5.160   0.576  -3.908  0.00  0.00    +0.041 A 
ATOM     31  C   UNL     1      -4.596  -0.645  -3.913  0.00  0.00    +0.195 A 
ATOM     32  O   UNL     1      -3.421  -0.572  -3.267  0.00  0.00    -0.470 OA
ENDBRANCH  27  28
ENDBRANCH  25  27
BRANCH  25  33
ATOM     33  C   UNL     1      -2.157  -0.480  -0.298  0.00  0.00    -0.045 C 
BRANCH  33  34
ATOM     34  C   UNL     1      -3.068  -0.785   0.893  0.00  0.00    +0.102 C 
ATOM     35  C   UNL     1      -2.957  -2.275   1.286  0.00  0.00    +0.032 C 
ATOM     36  C   UNL     1      -4.396  -2.664   1.692  0.00  0.00    +0.030 C 
ATOM     37  C   UNL     1      -5.206  -1.363   1.495  0.00  0.00    +0.160 C 
ATOM     38  O   UNL     1      -4.453  -0.602   0.526  0.00  0.00    -0.378 OA
ENDBRANCH  33  34
ENDBRANCH  25  33
ENDBRANCH   1  25
TORSDOF 9
