REMARK  Name = ZINC35266193
REMARK  6 active torsions:
REMARK  status: ('A' for Active; 'I' for Inactive)
REMARK    1  A    between atoms: N_9  and  C_11
REMARK    2  A    between atoms: C_14  and  N_23
REMARK    3  A    between atoms: C_16  and  C_17
REMARK    4  A    between atoms: N_19  and  C_20
REMARK    5  A    between atoms: C_24  and  C_26
REMARK    6  A    between atoms: C_29  and  N_32
REMARK                            x       y       z     vdW  Elec       q    Type
REMARK                         _______ _______ _______ _____ _____    ______ ____
ROOT
ATOM      1  C   UNL     1       4.421  -2.752   0.979  0.00  0.00    +0.042 A 
ATOM      2  C   UNL     1       5.514  -3.461   0.496  0.00  0.00    +0.026 A 
ATOM      3  C   UNL     1       6.343  -4.134   1.368  0.00  0.00    +0.025 A 
ATOM      4  C   UNL     1       6.092  -4.110   2.737  0.00  0.00    +0.035 A 
ATOM      5  C   UNL     1       5.008  -3.409   3.234  0.00  0.00    +0.038 A 
ATOM      6  C   UNL     1       4.166  -2.718   2.358  0.00  0.00    +0.059 A 
ENDROOT
BRANCH   1  15
ATOM      7  C   UNL     1       2.298  -1.706  -4.721  0.00  0.00    +0.000 A 
ATOM      8  C   UNL     1       1.552  -2.759  -4.226  0.00  0.00    +0.000 A 
ATOM      9  C   UNL     1       1.628  -3.081  -2.887  0.00  0.00    +0.005 A 
ATOM     10  C   UNL     1       2.451  -2.358  -2.034  0.00  0.00    -0.027 A 
ATOM     11  C   UNL     1       3.202  -1.316  -2.527  0.00  0.00    -0.041 A 
ATOM     12  C   UNL     1       3.118  -0.988  -3.876  0.00  0.00    +0.004 A 
ATOM     13  C   UNL     1       4.140  -0.507  -1.670  0.00  0.00    +0.054 C 
ATOM     14  C   UNL     1       3.779  -0.643  -0.192  0.00  0.00    +0.110 C 
ATOM     15  N   UNL     1       3.586  -2.073   0.098  0.00  0.00    -0.325 N 
ATOM     16  C   UNL     1       2.477  -2.754  -0.579  0.00  0.00    +0.140 C 
ENDBRANCH   1  15
BRANCH   6  17
ATOM     17  C   UNL     1       3.012  -1.964   2.880  0.00  0.00    +0.246 C 
ATOM     18  O   UNL     1       2.226  -1.446   2.110  0.00  0.00    -0.270 OA
ATOM     19  N   UNL     1       2.828  -1.848   4.210  0.00  0.00    -0.308 N 
ATOM     20  H   UNL     1       3.455  -2.261   4.824  0.00  0.00    +0.149 HD
BRANCH  19  21
ATOM     21  C   UNL     1       1.682  -1.098   4.729  0.00  0.00    +0.073 C 
ATOM     22  C   UNL     1       1.931  -0.146   5.901  0.00  0.00    +0.024 C 
ATOM     23  C   UNL     1       1.177  -1.458   6.128  0.00  0.00    +0.024 C 
ENDBRANCH  19  21
ENDBRANCH   6  17
BRANCH   4  24
ATOM     24  N   UNL     1       6.940  -4.798   3.615  0.00  0.00    -0.281 N 
ATOM     25  C   UNL     1       8.261  -4.869   3.358  0.00  0.00    +0.248 C 
ATOM     26  O   UNL     1       8.705  -4.409   2.324  0.00  0.00    -0.270 OA
ATOM     27  H   UNL     1       6.576  -5.223   4.407  0.00  0.00    +0.155 HD
BRANCH  25  28
ATOM     28  C   UNL     1       9.170  -5.507   4.334  0.00  0.00    +0.037 A 
ATOM     29  C   UNL     1       8.663  -6.041   5.519  0.00  0.00    +0.015 A 
ATOM     30  C   UNL     1       9.517  -6.635   6.426  0.00  0.00    +0.033 A 
ATOM     31  C   UNL     1      10.873  -6.701   6.162  0.00  0.00    +0.126 A 
ATOM     32  C   UNL     1      11.383  -6.173   4.989  0.00  0.00    +0.033 A 
ATOM     33  C   UNL     1      10.539  -5.582   4.071  0.00  0.00    +0.015 A 
BRANCH  31  34
ATOM     34  N   UNL     1      11.784  -7.340   7.139  0.00  0.00    +0.056 N 
ATOM     35  O   UNL     1      11.341  -7.802   8.165  0.00  0.00    -0.126 OA
ATOM     36  O   UNL     1      12.969  -7.399   6.911  0.00  0.00    -0.126 OA
ENDBRANCH  31  34
ENDBRANCH  25  28
ENDBRANCH   4  24
TORSDOF 6
