REMARK  Name = ZINC63042042
REMARK  7 active torsions:
REMARK  status: ('A' for Active; 'I' for Inactive)
REMARK    1  A    between atoms: C_1  and  C_2
REMARK    2  A    between atoms: C_2  and  C_3
REMARK    3  A    between atoms: C_3  and  C_5
REMARK    4  A    between atoms: C_3  and  C_13
REMARK    5  A    between atoms: C_7  and  C_12
REMARK    6  A    between atoms: C_9  and  C_11
REMARK    7  A    between atoms: C_13  and  C_15
REMARK                            x       y       z     vdW  Elec       q    Type
REMARK                         _______ _______ _______ _____ _____    ______ ____
ROOT
ATOM      1  C   UNL     1      -2.125  -0.137  -1.266  0.00  0.00    +0.134 A 
ATOM      2  N   UNL     1      -1.634  -0.554  -2.416  0.00  0.00    -0.237 NA
ATOM      3  C   UNL     1      -2.214  -0.226  -3.559  0.00  0.00    +0.042 A 
ATOM      4  C   UNL     1      -3.351   0.566  -3.536  0.00  0.00    +0.046 A 
ATOM      5  C   UNL     1      -3.838   0.984  -2.307  0.00  0.00    +0.042 A 
ATOM      6  N   UNL     1      -3.207   0.612  -1.205  0.00  0.00    -0.237 NA
ATOM      7  C   UNL     1      -5.071   1.847  -2.227  0.00  0.00    +0.066 C 
ATOM      8  C   UNL     1      -1.645  -0.706  -4.870  0.00  0.00    +0.066 C 
ENDROOT
BRANCH   1   9
ATOM      9  C   UNL     1      -1.433  -0.534   0.013  0.00  0.00    +0.074 C 
BRANCH   9  10
ATOM     10  C   UNL     1      -1.413  -2.059   0.130  0.00  0.00    +0.088 C 
ATOM     11  C   UNL     1      -0.824  -2.459   1.484  0.00  0.00    +0.025 C 
ATOM     12 CL   UNL     1      -0.402  -2.750  -1.193  0.00  0.00    -0.121 Cl
ENDBRANCH   9  10
BRANCH   9  14
ATOM     13  C   UNL     1      -0.019   1.526   0.010  0.00  0.00    +0.004 C 
ATOM     14  C   UNL     1       0.002  -0.004   0.002  0.00  0.00    +0.009 C 
ENDBRANCH   9  14
ENDBRANCH   1   9
TORSDOF 3
