REMARK  Name = ZINC36369625
REMARK  12 active torsions:
REMARK  status: ('A' for Active; 'I' for Inactive)
REMARK    1  A    between atoms: C_1  and  C_2
REMARK    2  A    between atoms: C_5  and  N_8
REMARK    3  A    between atoms: C_9  and  C_39
REMARK    4  A    between atoms: C_10  and  C_38
REMARK    5  A    between atoms: N_18  and  C_23
REMARK    6  A    between atoms: N_21  and  C_22
REMARK    7  A    between atoms: C_23  and  C_24
REMARK    8  A    between atoms: C_24  and  C_26
REMARK    9  A    between atoms: C_24  and  C_27
REMARK   10  A    between atoms: C_27  and  N_28
REMARK   11  A    between atoms: C_30  and  C_37
REMARK   12  A    between atoms: C_33  and  C_36
REMARK                            x       y       z     vdW  Elec       q    Type
REMARK                         _______ _______ _______ _____ _____    ______ ____
ROOT
ATOM      1  N   UNL     1       0.416  -4.219  -0.025  0.00  0.00    -0.282 N 
ATOM      2  C   UNL     1       0.685  -5.074   1.028  0.00  0.00    +0.043 A 
ATOM      3  C   UNL     1       0.632  -6.323   0.572  0.00  0.00    +0.044 A 
ATOM      4  N   UNL     1       0.329  -6.282  -0.778  0.00  0.00    -0.274 N 
ATOM      5  C   UNL     1       0.191  -4.986  -1.141  0.00  0.00    +0.223 A 
ATOM      6  N   UNL     1      -0.106  -4.922  -2.430  0.00  0.00    -0.193 NA
ATOM      7  C   UNL     1      -0.175  -6.148  -2.941  0.00  0.00    +0.170 A 
ATOM      8  C   UNL     1       0.104  -7.047  -1.913  0.00  0.00    +0.157 A 
ATOM      9  C   UNL     1       0.097  -8.424  -2.187  0.00  0.00    +0.283 A 
ATOM     10  O   UNL     1       0.327  -9.229  -1.301  0.00  0.00    -0.265 OA
ATOM     11  N   UNL     1      -0.166  -8.848  -3.440  0.00  0.00    -0.259 N 
ATOM     12  C   UNL     1      -0.421  -7.973  -4.428  0.00  0.00    +0.333 A 
ATOM     13  O   UNL     1      -0.654  -8.393  -5.546  0.00  0.00    -0.246 OA
ATOM     14  N   UNL     1      -0.445  -6.645  -4.208  0.00  0.00    -0.279 N 
ATOM     15  C   UNL     1      -0.733  -5.724  -5.310  0.00  0.00    +0.155 C 
ATOM     16  C   UNL     1       0.863  -7.569   1.387  0.00  0.00    +0.066 C 
ATOM     17  C   UNL     1       0.987  -4.663   2.446  0.00  0.00    +0.066 C 
ENDROOT
BRANCH   1  22
ATOM     18  C   UNL     1       0.250   1.447   0.227  0.00  0.00    +0.044 C 
ATOM     19  C   UNL     1       0.294  -0.058   0.160  0.00  0.00    -0.050 A 
ATOM     20  C   UNL     1       1.272  -0.686  -0.589  0.00  0.00    +0.005 A 
ATOM     21  C   UNL     1       1.315  -2.066  -0.652  0.00  0.00    +0.026 A 
ATOM     22  C   UNL     1       0.375  -2.821   0.037  0.00  0.00    +0.050 A 
ATOM     23  C   UNL     1      -0.606  -2.186   0.788  0.00  0.00    +0.026 A 
ATOM     24  C   UNL     1      -0.640  -0.807   0.851  0.00  0.00    +0.005 A 
ENDBRANCH   1  22
BRANCH  11  25
ATOM     25  C   UNL     1      -0.173 -10.284  -3.729  0.00  0.00    +0.134 C 
BRANCH  25  26
ATOM     26  C   UNL     1      -1.583 -10.840  -3.515  0.00  0.00    +0.020 C 
ATOM     27  C   UNL     1      -1.958 -10.722  -2.037  0.00  0.00    +0.010 C 
BRANCH  26  28
ATOM     28  C   UNL     1      -1.620 -12.310  -3.935  0.00  0.00    +0.089 C 
BRANCH  28  29
ATOM     29  N   UNL     1      -2.999 -12.809  -3.853  0.00  0.00    -0.297 NA
ATOM     30  C   UNL     1      -3.027 -14.277  -3.795  0.00  0.00    +0.115 C 
ATOM     31  C   UNL     1      -4.476 -14.750  -3.650  0.00  0.00    +0.130 C 
ATOM     32  O   UNL     1      -5.251 -14.236  -4.737  0.00  0.00    -0.371 OA
ATOM     33  C   UNL     1      -5.247 -12.809  -4.822  0.00  0.00    +0.130 C 
ATOM     34  C   UNL     1      -3.806 -12.316  -4.979  0.00  0.00    +0.115 C 
ATOM     35  C   UNL     1      -6.073 -12.367  -6.031  0.00  0.00    +0.039 C 
ATOM     36  C   UNL     1      -5.049 -14.240  -2.326  0.00  0.00    +0.039 C 
ENDBRANCH  28  29
ENDBRANCH  26  28
ENDBRANCH  25  26
ENDBRANCH  11  25
TORSDOF 5
