REMARK  Name = ZINC64369805
REMARK  5 active torsions:
REMARK  status: ('A' for Active; 'I' for Inactive)
REMARK    1  A    between atoms: C_1  and  N_2
REMARK    2  A    between atoms: C_8  and  C_14
REMARK    3  A    between atoms: C_19  and  C_20
REMARK    4  A    between atoms: C_23  and  O_26
REMARK    5  A    between atoms: O_26  and  C_27
REMARK                            x       y       z     vdW  Elec       q    Type
REMARK                         _______ _______ _______ _____ _____    ______ ____
ROOT
ATOM      1  C   UNL     1      -0.096  -5.240  -4.212  0.00  0.00    +0.130 C 
ATOM      2  N   UNL     1       0.418  -5.204  -2.836  0.00  0.00    -0.208 NA
ATOM      3  C   UNL     1       1.764  -4.624  -2.793  0.00  0.00    +0.189 C 
ATOM      4  C   UNL     1       1.672  -3.577  -1.694  0.00  0.00    -0.014 C 
ATOM      5  C   UNL     1       0.418  -3.484  -1.354  0.00  0.00    +0.087 C 
ATOM      6  N   UNL     1      -0.359  -4.402  -2.042  0.00  0.00    -0.283 N 
ATOM      7  C   UNL     1       2.907  -2.930  -1.119  0.00  0.00    +0.042 C 
ATOM      8  C   UNL     1       3.786  -4.075  -0.595  0.00  0.00    +0.104 C 
ATOM      9  C   UNL     1       3.731  -5.273  -1.488  0.00  0.00    +0.215 C 
ATOM     10  O   UNL     1       4.641  -6.066  -1.377  0.00  0.00    -0.276 OA
ATOM     11  N   UNL     1       2.799  -5.577  -2.412  0.00  0.00    -0.295 N 
ATOM     12  H   UNL     1      -1.325  -4.469  -1.971  0.00  0.00    +0.166 HD
ATOM     13  H   UNL     1       2.804  -6.452  -2.830  0.00  0.00    +0.151 HD
ENDROOT
BRANCH   7  14
ATOM     14  C   UNL     1       3.648  -2.151  -2.208  0.00  0.00    +0.091 C 
ATOM     15  C   UNL     1       4.317  -3.099  -3.182  0.00  0.00    +0.118 C 
ATOM     16  N   UNL     1       5.586  -2.859  -3.104  0.00  0.00    -0.161 NA
ATOM     17  N   UNL     1       5.882  -1.854  -2.189  0.00  0.00    -0.153 NA
ATOM     18  C   UNL     1       4.808  -1.375  -1.614  0.00  0.00    +0.080 C 
BRANCH  18  19
ATOM     19  C   UNL     1       4.738  -0.310  -0.603  0.00  0.00    -0.001 A 
ATOM     20  C   UNL     1       3.495   0.180  -0.184  0.00  0.00    +0.013 A 
ATOM     21  C   UNL     1       3.435   1.177   0.763  0.00  0.00    +0.046 A 
ATOM     22  C   UNL     1       4.606   1.697   1.303  0.00  0.00    +0.120 A 
ATOM     23  C   UNL     1       5.842   1.214   0.890  0.00  0.00    +0.046 A 
ATOM     24  C   UNL     1       5.913   0.213  -0.052  0.00  0.00    +0.013 A 
BRANCH  22  25
ATOM     25  O   UNL     1       4.541   2.681   2.237  0.00  0.00    -0.495 OA
ATOM     26  C   UNL     1       5.782   3.171   2.750  0.00  0.00    +0.277 C 
ENDBRANCH  22  25
ENDBRANCH  18  19
ENDBRANCH   7  14
TORSDOF 3
