REMARK  Name = ZINC13102663
REMARK  10 active torsions:
REMARK  status: ('A' for Active; 'I' for Inactive)
REMARK    1  A    between atoms: C_1  and  C_2
REMARK    2  A    between atoms: C_5  and  C_36
REMARK    3  A    between atoms: C_6  and  O_8
REMARK    4  A    between atoms: O_8  and  C_9
REMARK    5  A    between atoms: C_9  and  C_10
REMARK    6  A    between atoms: C_13  and  S_15
REMARK    7  A    between atoms: S_15  and  C_16
REMARK    8  A    between atoms: C_16  and  C_18
REMARK    9  A    between atoms: C_16  and  C_19
REMARK   10  A    between atoms: C_31  and  C_35
REMARK                            x       y       z     vdW  Elec       q    Type
REMARK                         _______ _______ _______ _____ _____    ______ ____
ROOT
ATOM      1  C   UNL     1      -7.306  -3.839  -0.245  0.00  0.00    +0.119 C 
ATOM      2  C   UNL     1      -8.041  -2.763   0.558  0.00  0.00    +0.027 C 
ENDROOT
BRANCH   1   3
ATOM      3  C   UNL     1      -8.309  -4.784  -0.855  0.00  0.00    +0.124 A 
ATOM      4  N   UNL     1      -8.621  -5.935  -0.206  0.00  0.00    -0.309 N 
ATOM      5  H   UNL     1      -8.194  -6.134   0.641  0.00  0.00    +0.170 HD
ATOM      6  C   UNL     1      -9.512  -6.806  -0.716  0.00  0.00    +0.260 A 
ATOM      7  O   UNL     1      -9.782  -7.836  -0.121  0.00  0.00    -0.267 OA
ATOM      8  C   UNL     1     -10.139  -6.503  -1.969  0.00  0.00    +0.075 A 
ATOM      9  C   UNL     1     -11.126  -7.292  -2.705  0.00  0.00    -0.023 A 
ATOM     10  C   UNL     1     -11.566  -6.784  -3.876  0.00  0.00    -0.004 A 
ATOM     11  S   UNL     1     -10.703  -5.246  -4.062  0.00  0.00    -0.073 S 
ATOM     12  C   UNL     1      -9.752  -5.292  -2.563  0.00  0.00    +0.116 A 
ATOM     13  N   UNL     1      -8.867  -4.478  -1.996  0.00  0.00    -0.225 NA
ATOM     14  C   UNL     1     -12.567  -7.391  -4.810  0.00  0.00    +0.046 C 
ATOM     15  C   UNL     1     -13.307  -8.511  -4.065  0.00  0.00    -0.009 C 
ATOM     16  C   UNL     1     -12.276  -9.396  -3.359  0.00  0.00    +0.008 C 
ATOM     17  C   UNL     1     -11.648  -8.632  -2.193  0.00  0.00    +0.037 C 
ATOM     18  C   UNL     1     -14.106  -9.351  -5.064  0.00  0.00    +0.008 C 
ENDBRANCH   1   3
BRANCH   1  19
ATOM     19  S   UNL     1      -6.338  -3.056  -1.558  0.00  0.00    -0.055 S 
BRANCH  19  23
ATOM     20  C   UNL     1      -3.556  -0.875   0.033  0.00  0.00    +0.255 A 
ATOM     21  N   UNL     1      -4.148  -1.357   1.086  0.00  0.00    -0.108 NA
ATOM     22  N   UNL     1      -5.119  -2.120   0.723  0.00  0.00    -0.101 NA
ATOM     23  C   UNL     1      -5.179  -2.151  -0.587  0.00  0.00    +0.278 A 
ATOM     24  O   UNL     1      -4.194  -1.359  -1.051  0.00  0.00    -0.412 OA
BRANCH  20  25
ATOM     25  C   UNL     1      -2.374   0.060   0.026  0.00  0.00    +0.326 C 
BRANCH  25  26
ATOM     26  O   UNL     1      -1.165  -0.701   0.010  0.00  0.00    -0.482 OA
BRANCH  26  32
ATOM     27  C   UNL     1       1.151   3.596   0.010  0.00  0.00    +0.044 C 
ATOM     28  C   UNL     1       1.171   2.089   0.002  0.00  0.00    -0.047 A 
ATOM     29  C   UNL     1       2.377   1.414  -0.013  0.00  0.00    +0.004 A 
ATOM     30  C   UNL     1       2.399   0.032  -0.021  0.00  0.00    +0.007 A 
ATOM     31  C   UNL     1       1.214  -0.679  -0.013  0.00  0.00    -0.009 A 
ATOM     32  C   UNL     1       0.002  -0.004   0.002  0.00  0.00    +0.124 A 
ATOM     33  C   UNL     1      -0.017   1.383   0.010  0.00  0.00    +0.049 A 
ATOM     34  C   UNL     1       1.238  -2.186  -0.022  0.00  0.00    +0.047 C 
ENDBRANCH  26  32
ENDBRANCH  25  26
ENDBRANCH  20  25
ENDBRANCH  19  23
ENDBRANCH   1  19
TORSDOF 6
