REMARK  Name = ZINC18461497
REMARK  9 active torsions:
REMARK  status: ('A' for Active; 'I' for Inactive)
REMARK    1  A    between atoms: C_1  and  C_2
REMARK    2  A    between atoms: C_7  and  N_8
REMARK    3  A    between atoms: C_9  and  C_11
REMARK    4  A    between atoms: C_11  and  C_13
REMARK    5  A    between atoms: C_11  and  O_14
REMARK    6  A    between atoms: O_14  and  C_15
REMARK    7  A    between atoms: C_15  and  C_17
REMARK    8  A    between atoms: C_20  and  O_36
REMARK    9  A    between atoms: C_24  and  C_26
REMARK                            x       y       z     vdW  Elec       q    Type
REMARK                         _______ _______ _______ _____ _____    ______ ____
ROOT
ATOM      1  C   UNL     1      -8.068   2.591   1.559  0.00  0.00    +0.187 C 
ATOM      2  C   UNL     1      -7.458   3.676   2.473  0.00  0.00    +0.066 C 
ATOM      3  C   UNL     1      -8.564   3.892   3.540  0.00  0.00    +0.134 C 
ATOM      4  C   UNL     1      -9.126   2.458   3.701  0.00  0.00    +0.140 C 
ATOM      5  N   UNL     1      -9.090   1.884   2.344  0.00  0.00    -0.285 N 
ATOM      6  C   UNL     1      -9.867   0.877   1.896  0.00  0.00    +0.223 C 
ATOM      7  O   UNL     1      -9.695   0.428   0.783  0.00  0.00    -0.275 OA
ENDROOT
BRANCH   6   8
ATOM      8  C   UNL     1     -10.948   0.310   2.779  0.00  0.00    +0.048 C 
ATOM      9  C   UNL     1     -11.997   1.389   3.058  0.00  0.00    +0.019 C 
ATOM     10  C   UNL     1     -13.095   0.813   3.955  0.00  0.00    -0.009 C 
ATOM     11  C   UNL     1     -13.758  -0.373   3.251  0.00  0.00    +0.007 C 
ATOM     12  C   UNL     1     -12.710  -1.452   2.972  0.00  0.00    -0.009 C 
ATOM     13  C   UNL     1     -11.611  -0.876   2.075  0.00  0.00    +0.019 C 
ATOM     14  C   UNL     1     -12.096  -1.921   4.293  0.00  0.00    +0.007 C 
ATOM     15  C   UNL     1     -11.433  -0.735   4.996  0.00  0.00    -0.009 C 
ATOM     16  C   UNL     1     -12.481   0.344   5.275  0.00  0.00    +0.007 C 
ATOM     17  C   UNL     1     -10.335  -0.159   4.100  0.00  0.00    +0.019 C 
ENDBRANCH   6   8
BRANCH   1  18
ATOM     18  C   UNL     1      -6.995   1.625   1.125  0.00  0.00    +0.329 C 
ATOM     19  O   UNL     1      -7.077   0.458   1.424  0.00  0.00    -0.249 OA
BRANCH  18  20
ATOM     20  O   UNL     1      -5.950   2.062   0.406  0.00  0.00    -0.451 OA
BRANCH  20  21
ATOM     21  C   UNL     1      -4.955   1.076   0.022  0.00  0.00    +0.259 C 
ATOM     22  C   UNL     1      -5.335   0.469  -1.330  0.00  0.00    +0.062 C 
BRANCH  21  24
ATOM     23  N   UNL     1      -2.509   0.997  -0.332  0.00  0.00    -0.282 N 
ATOM     24  C   UNL     1      -3.606   1.739  -0.085  0.00  0.00    +0.258 C 
ATOM     25  O   UNL     1      -3.508   2.940   0.050  0.00  0.00    -0.271 OA
ATOM     26  H   UNL     1      -2.596   0.049  -0.517  0.00  0.00    +0.155 HD
BRANCH  23  33
ATOM     27  C   UNL     1      -0.425  -0.242  -1.821  0.00  0.00    +0.045 C 
ATOM     28  C   UNL     1      -0.198   1.022  -1.034  0.00  0.00    -0.029 A 
ATOM     29  C   UNL     1       1.049   1.617  -1.025  0.00  0.00    +0.006 A 
ATOM     30  C   UNL     1       1.259   2.777  -0.303  0.00  0.00    +0.020 A 
ATOM     31  C   UNL     1       0.221   3.346   0.414  0.00  0.00    +0.043 A 
ATOM     32  C   UNL     1      -1.029   2.756   0.409  0.00  0.00    +0.043 A 
ATOM     33  C   UNL     1      -1.243   1.594  -0.320  0.00  0.00    +0.038 A 
ATOM     34 CL   UNL     1       0.489   4.803   1.320  0.00  0.00    -0.083 Cl
ENDBRANCH  23  33
ENDBRANCH  21  24
ENDBRANCH  20  21
ENDBRANCH  18  20
ENDBRANCH   1  18
BRANCH   3  35
ATOM     35  O   UNL     1      -9.570   4.786   3.060  0.00  0.00    -0.390 OA
ATOM     36  H   UNL     1     -10.283   4.952   3.693  0.00  0.00    +0.210 HD
ENDBRANCH   3  35
TORSDOF 7
