REMARK  Name = ZINC45293881
REMARK  8 active torsions:
REMARK  status: ('A' for Active; 'I' for Inactive)
REMARK    1  A    between atoms: C_1  and  C_2
REMARK    2  A    between atoms: C_7  and  N_12
REMARK    3  A    between atoms: C_9  and  C_11
REMARK    4  A    between atoms: C_13  and  C_15
REMARK    5  A    between atoms: C_18  and  S_21
REMARK    6  A    between atoms: S_21  and  N_24
REMARK    7  A    between atoms: C_26  and  C_33
REMARK    8  A    between atoms: C_29  and  C_32
REMARK                            x       y       z     vdW  Elec       q    Type
REMARK                         _______ _______ _______ _____ _____    ______ ____
ROOT
ATOM      1  C   UNL     1       1.349  -0.324   6.051  0.00  0.00    +0.037 A 
ATOM      2  C   UNL     1       2.134  -1.475   5.976  0.00  0.00    +0.015 A 
ATOM      3  C   UNL     1       2.799  -1.927   7.097  0.00  0.00    +0.029 A 
ATOM      4  C   UNL     1       2.688  -1.240   8.294  0.00  0.00    +0.106 A 
ATOM      5  C   UNL     1       1.912  -0.098   8.375  0.00  0.00    +0.029 A 
ATOM      6  C   UNL     1       1.246   0.367   7.259  0.00  0.00    +0.015 A 
ENDROOT
BRANCH   1   8
ATOM      7  N   UNL     1       0.735  -0.503   3.687  0.00  0.00    -0.308 N 
ATOM      8  C   UNL     1       0.634   0.166   4.853  0.00  0.00    +0.244 C 
ATOM      9  O   UNL     1      -0.045   1.172   4.919  0.00  0.00    -0.270 OA
ATOM     10  H   UNL     1       1.276  -1.306   3.634  0.00  0.00    +0.149 HD
BRANCH   7  16
ATOM     11  C   UNL     1      -0.019   1.526   0.010  0.00  0.00    +0.008 C 
ATOM     12  C   UNL     1       0.002  -0.004   0.002  0.00  0.00    -0.009 C 
ATOM     13  C   UNL     1      -1.433  -0.534   0.013  0.00  0.00    +0.003 C 
ATOM     14  C   UNL     1      -2.149  -0.040   1.272  0.00  0.00    +0.002 C 
ATOM     15  C   UNL     1      -1.409  -0.547   2.511  0.00  0.00    +0.022 C 
ATOM     16  C   UNL     1       0.026  -0.018   2.500  0.00  0.00    +0.076 C 
ATOM     17  C   UNL     1       0.742  -0.511   1.242  0.00  0.00    +0.009 C 
ATOM     18  C   UNL     1       2.178   0.019   1.231  0.00  0.00    +0.009 C 
ENDBRANCH   7  16
ENDBRANCH   1   8
BRANCH   4  19
ATOM     19  S   UNL     1       3.541  -1.824   9.721  0.00  0.00    +0.061 S 
ATOM     20  O   UNL     1       2.840  -1.317  10.849  0.00  0.00    -0.153 OA
ATOM     21  O   UNL     1       3.760  -3.214   9.523  0.00  0.00    -0.153 OA
BRANCH  19  22
ATOM     22  N   UNL     1       5.033  -1.106   9.729  0.00  0.00    -0.172 NA
ATOM     23  C   UNL     1       6.180  -1.735   9.056  0.00  0.00    +0.140 C 
ATOM     24  C   UNL     1       7.353  -1.781  10.041  0.00  0.00    +0.131 C 
ATOM     25  O   UNL     1       7.570  -0.472  10.575  0.00  0.00    -0.371 OA
ATOM     26  C   UNL     1       6.469   0.043  11.328  0.00  0.00    +0.131 C 
ATOM     27  C   UNL     1       5.249   0.184  10.403  0.00  0.00    +0.140 C 
ATOM     28  C   UNL     1       6.838   1.413  11.900  0.00  0.00    +0.039 C 
ATOM     29  C   UNL     1       8.614  -2.252   9.313  0.00  0.00    +0.039 C 
ENDBRANCH  19  22
ENDBRANCH   4  19
TORSDOF 4
