REMARK  Name = ZINC14644170
REMARK  12 active torsions:
REMARK  status: ('A' for Active; 'I' for Inactive)
REMARK    1  A    between atoms: C_1  and  C_2
REMARK    2  A    between atoms: C_2  and  C_3
REMARK    3  A    between atoms: C_3  and  C_5
REMARK    4  A    between atoms: C_3  and  C_6
REMARK    5  A    between atoms: C_11  and  O_12
REMARK    6  A    between atoms: O_12  and  C_13
REMARK    7  A    between atoms: C_13  and  C_14
REMARK    8  A    between atoms: N_16  and  N_17
REMARK    9  A    between atoms: C_18  and  C_20
REMARK   10  A    between atoms: C_20  and  C_22
REMARK   11  A    between atoms: C_20  and  O_23
REMARK   12  A    between atoms: O_23  and  C_24
REMARK                            x       y       z     vdW  Elec       q    Type
REMARK                         _______ _______ _______ _____ _____    ______ ____
ROOT
ATOM      1  C   UNL     1      -0.107   1.723  -1.224  0.00  0.00    +0.267 C 
ATOM      2  O   UNL     1      -0.972   2.549  -1.022  0.00  0.00    -0.271 OA
ATOM      3  N   UNL     1       0.164   1.325  -2.483  0.00  0.00    -0.231 N 
ATOM      4  H   UNL     1       0.856   0.664  -2.644  0.00  0.00    +0.173 HD
ENDROOT
BRANCH   3   5
ATOM      5  N   UNL     1      -0.553   1.865  -3.558  0.00  0.00    -0.231 N 
ATOM      6  C   UNL     1      -0.282   1.467  -4.817  0.00  0.00    +0.270 C 
ATOM      7  O   UNL     1       0.583   0.641  -5.019  0.00  0.00    -0.270 OA
ATOM      8  H   UNL     1      -1.245   2.526  -3.397  0.00  0.00    +0.173 HD
BRANCH   6   9
ATOM      9  C   UNL     1      -1.054   2.048  -5.974  0.00  0.00    +0.257 C 
ATOM     10  C   UNL     1      -2.523   1.634  -5.867  0.00  0.00    +0.062 C 
BRANCH   9  11
ATOM     11  O   UNL     1      -0.510   1.561  -7.202  0.00  0.00    -0.479 OA
BRANCH  11  12
ATOM     12  C   UNL     1      -0.697   2.330  -8.308  0.00  0.00    +0.136 A 
ATOM     13  C   UNL     1      -1.485   3.469  -8.236  0.00  0.00    +0.048 A 
ATOM     14  C   UNL     1      -1.669   4.252  -9.360  0.00  0.00    +0.023 A 
ATOM     15  C   UNL     1      -1.077   3.894 -10.558  0.00  0.00    +0.042 A 
ATOM     16  C   UNL     1      -0.295   2.756 -10.633  0.00  0.00    +0.039 A 
ATOM     17  C   UNL     1      -0.104   1.973  -9.510  0.00  0.00    +0.061 A 
ATOM     18 BR   UNL     1       0.965   0.416  -9.613  0.00  0.00    -0.046 Br
ATOM     19 CL   UNL     1      -1.316   4.877 -11.970  0.00  0.00    -0.084 Cl
ENDBRANCH  11  12
ENDBRANCH   9  11
ENDBRANCH   6   9
ENDBRANCH   3   5
BRANCH   1  20
ATOM     20  C   UNL     1       0.665   1.142  -0.068  0.00  0.00    +0.326 C 
BRANCH  20  21
ATOM     21  O   UNL     1       0.198   1.718   1.154  0.00  0.00    -0.482 OA
BRANCH  21  27
ATOM     22  C   UNL     1       0.394   1.821   3.523  0.00  0.00    -0.003 A 
ATOM     23  C   UNL     1       0.998   1.389   4.688  0.00  0.00    +0.007 A 
ATOM     24  C   UNL     1       2.007   0.446   4.637  0.00  0.00    +0.001 A 
ATOM     25  C   UNL     1       2.411  -0.072   3.420  0.00  0.00    +0.004 A 
ATOM     26  C   UNL     1       1.807   0.353   2.252  0.00  0.00    +0.046 A 
ATOM     27  C   UNL     1       0.794   1.299   2.301  0.00  0.00    +0.125 A 
BRANCH  22  28
ATOM     28  C   UNL     1      -0.703   2.853   3.579  0.00  0.00    +0.019 C 
ATOM     29  C   UNL     1      -0.161   4.139   4.207  0.00  0.00    +0.012 C 
BRANCH  28  31
ATOM     30  C   UNL     1      -3.024   3.315   4.381  0.00  0.00    +0.004 C 
ATOM     31  C   UNL     1      -1.861   2.321   4.426  0.00  0.00    +0.004 C 
ENDBRANCH  28  31
ENDBRANCH  22  28
ENDBRANCH  21  27
ENDBRANCH  20  21
ENDBRANCH   1  20
TORSDOF 9
