REMARK  Name = ZINC05606116
REMARK  7 active torsions:
REMARK  status: ('A' for Active; 'I' for Inactive)
REMARK    1  A    between atoms: C_1  and  C_2
REMARK    2  A    between atoms: C_4  and  C_23
REMARK    3  A    between atoms: C_11  and  C_15
REMARK    4  A    between atoms: C_12  and  C_14
REMARK    5  A    between atoms: C_15  and  O_17
REMARK    6  A    between atoms: O_17  and  C_18
REMARK    7  A    between atoms: C_19  and  O_22
REMARK                            x       y       z     vdW  Elec       q    Type
REMARK                         _______ _______ _______ _____ _____    ______ ____
ROOT
ATOM      1  C   UNL     1      -0.312   7.479   1.208  0.00  0.00    +0.044 C 
ATOM      2  C   UNL     1      -0.434   5.978   1.158  0.00  0.00    -0.049 A 
ATOM      3  C   UNL     1      -1.639   5.372   1.475  0.00  0.00    +0.010 A 
ATOM      4  C   UNL     1      -1.766   3.997   1.436  0.00  0.00    -0.008 A 
ATOM      5  C   UNL     1      -0.682   3.212   1.077  0.00  0.00    +0.136 A 
ATOM      6  C   UNL     1       0.536   3.827   0.751  0.00  0.00    +0.043 A 
ATOM      7  C   UNL     1       0.655   5.210   0.795  0.00  0.00    +0.017 A 
ATOM      8  C   UNL     1       1.673   2.962   0.364  0.00  0.00    +0.084 A 
ATOM      9  C   UNL     1       1.388   1.633   0.023  0.00  0.00    +0.047 A 
ATOM     10  C   UNL     1       2.417   0.790  -0.328  0.00  0.00    +0.028 A 
ATOM     11  C   UNL     1       3.723   1.306  -0.335  0.00  0.00    +0.080 A 
ATOM     12  C   UNL     1       3.929   2.644   0.013  0.00  0.00    +0.053 A 
ATOM     13  N   UNL     1       2.917   3.417   0.345  0.00  0.00    -0.250 NA
ATOM     14  C   UNL     1       5.326   3.208   0.006  0.00  0.00    +0.066 C 
ATOM     15  C   UNL     1      -0.039   1.155   0.047  0.00  0.00    +0.339 C 
ATOM     16  O   UNL     1      -0.781   1.861   1.041  0.00  0.00    -0.459 OA
ATOM     17  C   UNL     1      -3.082   3.350   1.784  0.00  0.00    +0.047 C 
ENDROOT
BRANCH  11  18
ATOM     18  C   UNL     1       4.864   0.446  -0.703  0.00  0.00    +0.341 C 
ATOM     19  O   UNL     1       6.000   0.865  -0.597  0.00  0.00    -0.245 OA
BRANCH  18  20
ATOM     20  O   UNL     1       4.646  -0.804  -1.156  0.00  0.00    -0.464 OA
ATOM     21  C   UNL     1       5.816  -1.593  -1.499  0.00  0.00    +0.280 C 
ENDBRANCH  18  20
ENDBRANCH  11  18
BRANCH  15  22
ATOM     22  O   UNL     1      -0.634   1.381  -1.232  0.00  0.00    -0.354 OA
ATOM     23  H   UNL     1      -1.555   1.092  -1.294  0.00  0.00    +0.214 HD
ENDBRANCH  15  22
TORSDOF 3
