REMARK  Name = ZINC00919477
REMARK  6 active torsions:
REMARK  status: ('A' for Active; 'I' for Inactive)
REMARK    1  A    between atoms: C_3  and  C_7
REMARK    2  A    between atoms: C_7  and  N_8
REMARK    3  A    between atoms: N_8  and  C_9
REMARK    4  A    between atoms: N_8  and  S_26
REMARK    5  A    between atoms: C_9  and  C_10
REMARK    6  A    between atoms: S_26  and  C_29
REMARK                            x       y       z     vdW  Elec       q    Type
REMARK                         _______ _______ _______ _____ _____    ______ ____
ROOT
ATOM      1  N   UNL     1       2.555   4.370  -1.696  0.00  0.00    -0.168 NA
ENDROOT
BRANCH   1   2
ATOM      2  S   UNL     1       2.031   5.894  -2.075  0.00  0.00    +0.061 S 
ATOM      3  O   UNL     1       1.504   5.827  -3.393  0.00  0.00    -0.153 OA
ATOM      4  O   UNL     1       1.261   6.346  -0.969  0.00  0.00    -0.153 OA
BRANCH   2   5
ATOM      5  C   UNL     1       3.454   6.931  -2.154  0.00  0.00    +0.106 A 
ATOM      6  C   UNL     1       3.838   7.662  -1.045  0.00  0.00    +0.029 A 
ATOM      7  C   UNL     1       4.957   8.471  -1.105  0.00  0.00    +0.017 A 
ATOM      8  C   UNL     1       5.686   8.557  -2.278  0.00  0.00    +0.018 A 
ATOM      9  C   UNL     1       5.298   7.830  -3.388  0.00  0.00    +0.017 A 
ATOM     10  C   UNL     1       4.182   7.016  -3.325  0.00  0.00    +0.029 A 
ATOM     11 BR   UNL     1       7.213   9.670  -2.363  0.00  0.00    -0.050 Br
ENDBRANCH   2   5
ENDBRANCH   1   2
BRANCH   1  12
ATOM     12  C   UNL     1       2.551   3.919  -0.302  0.00  0.00    +0.146 C 
BRANCH  12  15
ATOM     13  C   UNL     1       5.438   5.476   1.564  0.00  0.00    +0.020 A 
ATOM     14  C   UNL     1       4.172   5.306   1.024  0.00  0.00    +0.008 A 
ATOM     15  C   UNL     1       3.911   4.149   0.305  0.00  0.00    -0.014 A 
ATOM     16  C   UNL     1       4.913   3.210   0.153  0.00  0.00    +0.115 A 
ATOM     17  N   UNL     1       6.106   3.405   0.681  0.00  0.00    -0.263 NA
ATOM     18  C   UNL     1       6.392   4.495   1.365  0.00  0.00    +0.111 A 
ENDBRANCH  12  15
ENDBRANCH   1  12
BRANCH   1  19
ATOM     19  C   UNL     1       3.025   3.473  -2.754  0.00  0.00    +0.150 C 
BRANCH  19  20
ATOM     20  C   UNL     1       1.889   2.591  -3.205  0.00  0.00    +0.033 A 
ATOM     21  C   UNL     1       1.141   2.948  -4.280  0.00  0.00    +0.020 A 
ATOM     22  C   UNL     1       0.050   2.068  -4.696  0.00  0.00    +0.003 A 
ATOM     23  C   UNL     1      -0.752   2.383  -5.800  0.00  0.00    +0.059 A 
ATOM     24  C   UNL     1      -1.777   1.537  -6.166  0.00  0.00    +0.163 A 
ATOM     25  C   UNL     1      -2.018   0.368  -5.439  0.00  0.00    +0.164 A 
ATOM     26  C   UNL     1      -1.231   0.049  -4.345  0.00  0.00    +0.075 A 
ATOM     27  C   UNL     1      -0.195   0.890  -3.963  0.00  0.00    +0.053 A 
ATOM     28  N   UNL     1       0.598   0.588  -2.875  0.00  0.00    -0.322 N 
ATOM     29  H   UNL     1       0.423  -0.247  -2.355  0.00  0.00    +0.169 HD
ATOM     30  C   UNL     1       1.603   1.401  -2.505  0.00  0.00    +0.254 A 
ATOM     31  O   UNL     1       2.283   1.103  -1.538  0.00  0.00    -0.268 OA
ATOM     32  O   UNL     1      -3.025  -0.475  -5.795  0.00  0.00    -0.485 OA
ATOM     33  C   UNL     1      -4.032   0.056  -6.664  0.00  0.00    +0.270 C 
ATOM     34  C   UNL     1      -3.334   0.804  -7.808  0.00  0.00    +0.270 C 
ATOM     35  O   UNL     1      -2.550   1.859  -7.241  0.00  0.00    -0.485 OA
ENDBRANCH  19  20
ENDBRANCH   1  19
TORSDOF 6
