REMARK  Name = ZINC63117648
REMARK  7 active torsions:
REMARK  status: ('A' for Active; 'I' for Inactive)
REMARK    1  A    between atoms: C_1  and  C_2
REMARK    2  A    between atoms: C_2  and  C_3
REMARK    3  A    between atoms: C_3  and  C_4
REMARK    4  A    between atoms: C_9  and  N_17
REMARK    5  A    between atoms: C_10  and  C_16
REMARK    6  A    between atoms: C_13  and  N_14
REMARK    7  A    between atoms: N_14  and  C_15
REMARK                            x       y       z     vdW  Elec       q    Type
REMARK                         _______ _______ _______ _____ _____    ______ ____
ROOT
ATOM      1  C   UNL     1      -1.988  -2.131   0.157  0.00  0.00    -0.007 A 
ATOM      2  C   UNL     1      -1.940  -2.756  -1.053  0.00  0.00    +0.017 A 
ATOM      3  C   UNL     1      -1.701  -4.145  -1.079  0.00  0.00    +0.001 A 
ATOM      4  C   UNL     1      -1.639  -4.848  -2.293  0.00  0.00    +0.012 A 
ATOM      5  C   UNL     1      -1.407  -6.188  -2.289  0.00  0.00    +0.029 A 
ATOM      6  C   UNL     1      -1.227  -6.880  -1.086  0.00  0.00    +0.074 A 
ATOM      7  C   UNL     1      -1.282  -6.220   0.121  0.00  0.00    +0.001 A 
ATOM      8  C   UNL     1      -1.520  -4.836   0.144  0.00  0.00    +0.078 A 
ATOM      9  N   UNL     1      -1.577  -4.169   1.303  0.00  0.00    -0.232 NA
ATOM     10  C   UNL     1      -1.796  -2.870   1.333  0.00  0.00    +0.122 A 
ATOM     11  C   UNL     1      -1.088  -6.978   1.409  0.00  0.00    +0.048 C 
ENDROOT
BRANCH   6  12
ATOM     12  N   UNL     1      -0.989  -8.261  -1.110  0.00  0.00    -0.200 N 
ATOM     13  C   UNL     1      -1.658  -9.197  -1.819  0.00  0.00    +0.250 A 
ATOM     14  N   UNL     1      -1.111 -10.353  -1.549  0.00  0.00    -0.116 NA
ATOM     15  N   UNL     1      -0.142 -10.213  -0.719  0.00  0.00    -0.023 NA
ATOM     16  N   UNL     1       0.001  -8.969  -0.407  0.00  0.00    -0.039 NA
ENDBRANCH   6  12
BRANCH  10  17
ATOM     17  N   UNL     1      -1.841  -2.219   2.557  0.00  0.00    -0.332 N 
ATOM     18  C   UNL     1      -1.643  -2.975   3.796  0.00  0.00    +0.127 C 
ATOM     19  H   UNL     1      -2.005  -1.264   2.592  0.00  0.00    +0.147 HD
ENDBRANCH  10  17
BRANCH   1  20
ATOM     20  C   UNL     1      -2.241  -0.648   0.231  0.00  0.00    +0.038 C 
BRANCH  20  22
ATOM     21  C   UNL     1      -1.161   1.601   0.378  0.00  0.00    +0.004 C 
ATOM     22  C   UNL     1      -0.905   0.094   0.304  0.00  0.00    +0.001 C 
ENDBRANCH  20  22
ENDBRANCH   1  20
TORSDOF 4
