REMARK  Name = ZINC16455311
REMARK  7 active torsions:
REMARK  status: ('A' for Active; 'I' for Inactive)
REMARK    1  A    between atoms: C_1  and  C_2
REMARK    2  A    between atoms: C_2  and  C_4
REMARK    3  A    between atoms: C_2  and  N_14
REMARK    4  A    between atoms: C_15  and  C_17
REMARK    5  A    between atoms: C_17  and  N_18
REMARK    6  A    between atoms: C_21  and  C_25
REMARK    7  A    between atoms: C_21  and  C_26
REMARK                            x       y       z     vdW  Elec       q    Type
REMARK                         _______ _______ _______ _____ _____    ______ ____
ROOT
ATOM      1  C   UNL     1       1.280   1.980   0.001  0.00  0.00    +0.213 C 
ENDROOT
BRANCH   1   2
ATOM      2  N   UNL     1       2.407   1.043  -0.015  0.00  0.00    -0.215 N 
ATOM      3  C   UNL     1       2.978   0.565  -1.138  0.00  0.00    +0.251 C 
ATOM      4  O   UNL     1       2.668   0.818  -2.283  0.00  0.00    -0.272 OA
ATOM      5  C   UNL     1       4.088  -0.356  -0.673  0.00  0.00    +0.135 C 
ATOM      6  N   UNL     1       4.006  -0.283   0.796  0.00  0.00    -0.281 N 
ATOM      7  C   UNL     1       2.999   0.561   1.083  0.00  0.00    +0.310 C 
ATOM      8  O   UNL     1       2.662   0.851   2.215  0.00  0.00    -0.252 OA
ATOM      9  C   UNL     1       5.447   0.149  -1.162  0.00  0.00    +0.047 C 
ATOM     10  H   UNL     1       4.571  -0.750   1.432  0.00  0.00    +0.152 HD
BRANCH   5  11
ATOM     11  C   UNL     1       3.843  -1.765  -1.149  0.00  0.00    -0.015 A 
ATOM     12  C   UNL     1       3.156  -1.986  -2.328  0.00  0.00    +0.009 A 
ATOM     13  C   UNL     1       2.936  -3.277  -2.768  0.00  0.00    +0.039 A 
ATOM     14  C   UNL     1       3.392  -4.350  -2.021  0.00  0.00    +0.123 A 
ATOM     15  C   UNL     1       4.074  -4.128  -0.837  0.00  0.00    +0.039 A 
ATOM     16  C   UNL     1       4.299  -2.835  -0.402  0.00  0.00    +0.009 A 
ATOM     17  F   UNL     1       3.171  -5.613  -2.447  0.00  0.00    -0.205 F 
ENDBRANCH   5  11
ENDBRANCH   1   2
BRANCH   1  19
ATOM     18  N   UNL     1      -1.191   1.867   0.018  0.00  0.00    -0.311 N 
ATOM     19  C   UNL     1      -0.014   1.209   0.009  0.00  0.00    +0.231 C 
ATOM     20  O   UNL     1       0.002  -0.004   0.002  0.00  0.00    -0.274 OA
ATOM     21  H   UNL     1      -1.204   2.837   0.023  0.00  0.00    +0.149 HD
BRANCH  18  23
ATOM     22  C   UNL     1      -2.816   0.740   1.456  0.00  0.00    +0.028 C 
ATOM     23  C   UNL     1      -2.449   1.117   0.020  0.00  0.00    +0.076 C 
BRANCH  23  24
ATOM     24  C   UNL     1      -3.559   1.982  -0.580  0.00  0.00    -0.010 C 
ATOM     25  C   UNL     1      -3.722   3.254   0.255  0.00  0.00    +0.012 C 
ATOM     26  C   UNL     1      -4.832   4.120  -0.344  0.00  0.00    -0.010 C 
ATOM     27  C   UNL     1      -6.146   3.337  -0.343  0.00  0.00    +0.007 C 
ATOM     28  C   UNL     1      -5.984   2.065  -1.178  0.00  0.00    -0.010 C 
ATOM     29  C   UNL     1      -4.874   1.200  -0.578  0.00  0.00    +0.012 C 
ATOM     30  C   UNL     1      -5.617   2.442  -2.614  0.00  0.00    +0.007 C 
ATOM     31  C   UNL     1      -4.302   3.225  -2.616  0.00  0.00    -0.010 C 
ATOM     32  C   UNL     1      -4.465   4.496  -1.781  0.00  0.00    +0.007 C 
ATOM     33  C   UNL     1      -3.192   2.359  -2.017  0.00  0.00    +0.012 C 
ENDBRANCH  23  24
ENDBRANCH  18  23
ENDBRANCH   1  19
TORSDOF 5
