REMARK  Name = ZINC40016835
REMARK  12 active torsions:
REMARK  status: ('A' for Active; 'I' for Inactive)
REMARK    1  A    between atoms: C_1  and  C_2
REMARK    2  A    between atoms: C_2  and  C_3
REMARK    3  A    between atoms: C_3  and  C_4
REMARK    4  A    between atoms: C_4  and  O_5
REMARK    5  A    between atoms: O_5  and  C_6
REMARK    6  A    between atoms: C_10  and  C_12
REMARK    7  A    between atoms: C_14  and  C_36
REMARK    8  A    between atoms: C_15  and  C_35
REMARK    9  A    between atoms: C_22  and  C_23
REMARK   10  A    between atoms: C_30  and  C_33
REMARK   11  A    between atoms: C_36  and  O_38
REMARK   12  A    between atoms: O_38  and  C_39
REMARK                            x       y       z     vdW  Elec       q    Type
REMARK                         _______ _______ _______ _____ _____    ______ ____
ROOT
ATOM      1  C   UNL     1       2.811  -6.824  -4.667  0.00  0.00    +0.162 C 
ATOM      2  C   UNL     1       4.202  -7.297  -4.313  0.00  0.00    +0.085 C 
ATOM      3  C   UNL     1       4.589  -8.536  -4.741  0.00  0.00    +0.053 C 
ATOM      4  N   UNL     1       3.760  -9.294  -5.448  0.00  0.00    -0.228 NA
ATOM      5  C   UNL     1       2.544  -8.953  -5.792  0.00  0.00    +0.178 A 
ATOM      6  N   UNL     1       1.960  -7.752  -5.463  0.00  0.00    -0.275 N 
ATOM      7  C   UNL     1       0.706  -7.515  -5.871  0.00  0.00    +0.268 A 
ATOM      8  O   UNL     1       0.148  -6.467  -5.605  0.00  0.00    -0.266 OA
ATOM      9  C   UNL     1       0.026  -8.559  -6.650  0.00  0.00    +0.081 A 
ATOM     10  C   UNL     1      -1.227  -8.566  -7.175  0.00  0.00    +0.028 C 
ATOM     11  S   UNL     1       1.292  -9.813  -6.724  0.00  0.00    -0.046 S 
ATOM     12  C   UNL     1       5.968  -9.044  -4.409  0.00  0.00    +0.066 C 
ENDROOT
BRANCH  10  13
ATOM     13  C   UNL     1      -1.754  -9.785  -7.800  0.00  0.00    -0.023 A 
ATOM     14  C   UNL     1      -2.826  -9.711  -8.699  0.00  0.00    +0.011 A 
ATOM     15  C   UNL     1      -3.314 -10.854  -9.286  0.00  0.00    +0.046 A 
ATOM     16  C   UNL     1      -2.751 -12.097  -8.993  0.00  0.00    +0.124 A 
ATOM     17  C   UNL     1      -1.692 -12.166  -8.092  0.00  0.00    -0.002 A 
ATOM     18  C   UNL     1      -1.187 -11.032  -7.507  0.00  0.00    +0.015 A 
ATOM     19  C   UNL     1      -1.317 -13.630  -7.960  0.00  0.00    +0.083 C 
ATOM     20  C   UNL     1      -2.548 -14.332  -8.580  0.00  0.00    +0.175 C 
ATOM     21  O   UNL     1      -3.073 -13.331  -9.467  0.00  0.00    -0.488 OA
ATOM     22  C   UNL     1      -3.568 -14.693  -7.498  0.00  0.00    +0.052 C 
ENDBRANCH  10  13
BRANCH   1  27
ATOM     23  C   UNL     1       1.372  -4.935  -1.727  0.00  0.00    +0.121 A 
ATOM     24  C   UNL     1       0.751  -5.956  -1.022  0.00  0.00    +0.045 A 
ATOM     25  C   UNL     1       0.799  -7.251  -1.499  0.00  0.00    +0.004 A 
ATOM     26  C   UNL     1       1.465  -7.531  -2.679  0.00  0.00    +0.006 A 
ATOM     27  C   UNL     1       2.085  -6.515  -3.382  0.00  0.00    -0.016 A 
ATOM     28  C   UNL     1       2.035  -5.217  -2.912  0.00  0.00    +0.051 A 
BRANCH  23  29
ATOM     29  O   UNL     1       1.326  -3.659  -1.260  0.00  0.00    -0.492 OA
BRANCH  29  30
ATOM     30  C   UNL     1       0.626  -3.443  -0.033  0.00  0.00    +0.229 C 
BRANCH  30  31
ATOM     31  C   UNL     1       0.681  -1.958   0.330  0.00  0.00    +0.041 C 
BRANCH  31  33
ATOM     32  C   UNL     1      -0.014  -0.240   2.007  0.00  0.00    +0.004 C 
ATOM     33  C   UNL     1      -0.069  -1.726   1.643  0.00  0.00    -0.000 C 
ENDBRANCH  31  33
ENDBRANCH  30  31
ENDBRANCH  29  30
ENDBRANCH  23  29
ENDBRANCH   1  27
BRANCH   2  34
ATOM     34  C   UNL     1       5.072  -6.486  -3.565  0.00  0.00    +0.339 C 
ATOM     35  O   UNL     1       6.136  -6.934  -3.174  0.00  0.00    -0.245 OA
BRANCH  34  36
ATOM     36  O   UNL     1       4.730  -5.211  -3.280  0.00  0.00    -0.465 OA
ATOM     37  C   UNL     1       5.663  -4.444  -2.516  0.00  0.00    +0.280 C 
ENDBRANCH  34  36
ENDBRANCH   2  34
TORSDOF 8
