REMARK  Name = ZINC13128278
REMARK  7 active torsions:
REMARK  status: ('A' for Active; 'I' for Inactive)
REMARK    1  A    between atoms: C_1  and  C_2
REMARK    2  A    between atoms: C_2  and  C_4
REMARK    3  A    between atoms: C_2  and  N_63
REMARK    4  A    between atoms: C_16  and  C_17
REMARK    5  A    between atoms: C_16  and  C_18
REMARK    6  A    between atoms: N_22  and  S_25
REMARK    7  A    between atoms: S_25  and  C_28
REMARK                            x       y       z     vdW  Elec       q    Type
REMARK                         _______ _______ _______ _____ _____    ______ ____
ROOT
ATOM      1  C   UNL     1      -3.484   6.593   3.766  0.00  0.00    -0.004 C 
ATOM      2  C   UNL     1      -2.514   6.229   2.640  0.00  0.00    +0.017 C 
ENDROOT
BRANCH   2   3
ATOM      3  C   UNL     1      -1.413   7.256   2.573  0.00  0.00    +0.207 C 
ATOM      4  O   UNL     1      -0.253   6.903   2.582  0.00  0.00    -0.277 OA
ATOM      5  N   UNL     1      -1.718   8.568   2.504  0.00  0.00    -0.257 N 
ATOM      6  C   UNL     1      -3.046   8.995   2.354  0.00  0.00    +0.058 A 
ATOM      7  C   UNL     1      -3.978   8.215   1.693  0.00  0.00    +0.025 A 
ATOM      8  C   UNL     1      -5.279   8.666   1.558  0.00  0.00    +0.002 A 
ATOM      9  C   UNL     1      -5.647   9.893   2.079  0.00  0.00    +0.002 A 
ATOM     10  C   UNL     1      -4.719  10.679   2.753  0.00  0.00    +0.025 A 
ATOM     11  C   UNL     1      -3.414  10.234   2.891  0.00  0.00    +0.055 A 
ATOM     12  N   UNL     1      -2.459  11.009   3.557  0.00  0.00    -0.282 N 
ATOM     13  C   UNL     1      -1.147  10.724   3.454  0.00  0.00    +0.241 C 
ATOM     14  O   UNL     1      -0.341  11.384   4.075  0.00  0.00    -0.273 OA
ATOM     15  C   UNL     1      -0.669   9.595   2.578  0.00  0.00    +0.113 C 
ATOM     16  C   UNL     1       0.602   8.988   3.174  0.00  0.00    +0.042 C 
ATOM     17  C   UNL     1      -0.374  10.127   1.174  0.00  0.00    +0.042 C 
ATOM     18  H   UNL     1      -2.745  11.762   4.098  0.00  0.00    +0.155 HD
ENDBRANCH   2   3
BRANCH   2  25
ATOM     19  C   UNL     1      -1.338   4.854   4.211  0.00  0.00    -0.076 C 
ATOM     20  C   UNL     1      -0.008   4.133   4.022  0.00  0.00    -0.001 C 
ATOM     21  C   UNL     1      -0.087   2.677   4.184  0.00  0.00    +0.107 C 
ATOM     22  N   UNL     1      -1.088   2.178   3.182  0.00  0.00    -0.178 NA
ATOM     23  C   UNL     1      -2.473   2.518   3.355  0.00  0.00    +0.091 C 
ATOM     24  C   UNL     1      -2.945   3.832   2.705  0.00  0.00    -0.060 C 
ATOM     25  N   UNL     1      -1.909   4.904   2.877  0.00  0.00    +0.388 N 
ATOM     26  H   UNL     1      -1.159   4.753   2.191  0.00  0.00    -0.081 HD
BRANCH  22  27
ATOM     27  S   UNL     1      -0.602   1.256   1.895  0.00  0.00    +0.061 S 
ATOM     28  O   UNL     1       0.768   1.559   1.673  0.00  0.00    -0.153 OA
ATOM     29  O   UNL     1      -1.590   1.415   0.885  0.00  0.00    -0.153 OA
BRANCH  27  30
ATOM     30  C   UNL     1      -0.670  -0.429   2.405  0.00  0.00    +0.106 A 
ATOM     31  C   UNL     1       0.440  -1.022   2.978  0.00  0.00    +0.031 A 
ATOM     32  C   UNL     1       0.386  -2.342   3.383  0.00  0.00    +0.040 A 
ATOM     33  C   UNL     1      -0.776  -3.074   3.205  0.00  0.00    +0.124 A 
ATOM     34  C   UNL     1      -1.884  -2.480   2.626  0.00  0.00    +0.040 A 
ATOM     35  C   UNL     1      -1.830  -1.158   2.226  0.00  0.00    +0.031 A 
ATOM     36  F   UNL     1      -0.827  -4.366   3.596  0.00  0.00    -0.205 F 
ENDBRANCH  27  30
ENDBRANCH  22  27
ENDBRANCH   2  25
TORSDOF 4
