REMARK  Name = ZINC58169711
REMARK  5 active torsions:
REMARK  status: ('A' for Active; 'I' for Inactive)
REMARK    1  A    between atoms: C_1  and  C_2
REMARK    2  A    between atoms: C_2  and  C_27
REMARK    3  A    between atoms: N_5  and  C_9
REMARK    4  A    between atoms: C_9  and  N_10
REMARK    5  A    between atoms: C_14  and  C_16
REMARK                            x       y       z     vdW  Elec       q    Type
REMARK                         _______ _______ _______ _____ _____    ______ ____
ROOT
ATOM      1  C   UNL     1      -0.629   1.681  -0.388  0.00  0.00    +0.047 C 
ATOM      2  C   UNL     1      -0.494   0.157  -0.382  0.00  0.00    +0.135 C 
ATOM      3  C   UNL     1      -1.824  -0.495  -0.060  0.00  0.00    +0.252 C 
ATOM      4  O   UNL     1      -2.853  -0.414  -0.697  0.00  0.00    -0.272 OA
ATOM      5  N   UNL     1      -1.626  -1.185   1.081  0.00  0.00    -0.210 N 
ATOM      6  C   UNL     1      -0.368  -1.060   1.520  0.00  0.00    +0.311 C 
ATOM      7  O   UNL     1       0.051  -1.591   2.530  0.00  0.00    -0.252 OA
ATOM      8  N   UNL     1       0.382  -0.282   0.718  0.00  0.00    -0.281 N 
ATOM      9  H   UNL     1       1.317  -0.055   0.841  0.00  0.00    +0.152 HD
ENDROOT
BRANCH   2  10
ATOM     10  C   UNL     1       0.033  -0.332  -1.707  0.00  0.00    -0.012 A 
ATOM     11  C   UNL     1      -0.848  -0.665  -2.719  0.00  0.00    +0.010 A 
ATOM     12  C   UNL     1      -0.369  -1.113  -3.936  0.00  0.00    +0.050 A 
ATOM     13  C   UNL     1       0.996  -1.230  -4.144  0.00  0.00    +0.166 A 
ATOM     14  C   UNL     1       1.883  -0.895  -3.124  0.00  0.00    +0.167 A 
ATOM     15  C   UNL     1       1.396  -0.441  -1.909  0.00  0.00    +0.055 A 
ATOM     16  O   UNL     1       3.157  -1.095  -3.571  0.00  0.00    -0.453 OA
ATOM     17  C   UNL     1       3.030  -1.941  -4.729  0.00  0.00    +0.466 C 
ATOM     18  O   UNL     1       1.714  -1.640  -5.229  0.00  0.00    -0.453 OA
ENDBRANCH   2  10
BRANCH   5  19
ATOM     19  C   UNL     1      -2.659  -1.972   1.757  0.00  0.00    +0.205 C 
BRANCH  19  20
ATOM     20  N   UNL     1      -2.638  -3.349   1.246  0.00  0.00    -0.279 NA
ATOM     21  C   UNL     1      -3.398  -3.458  -0.018  0.00  0.00    +0.086 C 
ATOM     22  C   UNL     1      -4.025  -4.873   0.018  0.00  0.00    +0.017 C 
ATOM     23  C   UNL     1      -4.379  -5.022   1.521  0.00  0.00    +0.025 C 
ATOM     24  C   UNL     1      -3.220  -4.285   2.225  0.00  0.00    +0.088 C 
BRANCH  24  25
ATOM     25  C   UNL     1      -3.745  -3.522   3.414  0.00  0.00    -0.027 A 
ATOM     26  C   UNL     1      -4.772  -2.612   3.250  0.00  0.00    +0.009 A 
ATOM     27  C   UNL     1      -5.259  -1.908   4.337  0.00  0.00    +0.050 A 
ATOM     28  C   UNL     1      -4.714  -2.120   5.592  0.00  0.00    +0.162 A 
ATOM     29  C   UNL     1      -3.683  -3.034   5.757  0.00  0.00    +0.162 A 
ATOM     30  C   UNL     1      -3.201  -3.740   4.667  0.00  0.00    +0.054 A 
ATOM     31  O   UNL     1      -3.153  -3.236   6.998  0.00  0.00    -0.488 OA
ATOM     32  C   UNL     1      -2.413  -2.144   7.547  0.00  0.00    +0.232 C 
ATOM     33  C   UNL     1      -3.342  -1.151   8.227  0.00  0.00    +0.082 C 
ATOM     34  C   UNL     1      -4.290  -0.479   7.246  0.00  0.00    +0.232 C 
ATOM     35  O   UNL     1      -5.186  -1.433   6.673  0.00  0.00    -0.488 OA
ENDBRANCH  24  25
ENDBRANCH  19  20
ENDBRANCH   5  19
TORSDOF 4
