REMARK  Name = ZINC38704354
REMARK  9 active torsions:
REMARK  status: ('A' for Active; 'I' for Inactive)
REMARK    1  A    between atoms: C_1  and  C_2
REMARK    2  A    between atoms: C_2  and  N_3
REMARK    3  A    between atoms: C_4  and  C_6
REMARK    4  A    between atoms: C_17  and  N_19
REMARK    5  A    between atoms: C_20  and  C_22
REMARK    6  A    between atoms: C_25  and  C_27
REMARK    7  A    between atoms: C_29  and  C_35
REMARK    8  A    between atoms: C_30  and  C_34
REMARK    9  A    between atoms: C_32  and  O_33
REMARK                            x       y       z     vdW  Elec       q    Type
REMARK                         _______ _______ _______ _____ _____    ______ ____
ROOT
ATOM      1  N   UNL     1      -2.825  -1.162  -2.147  0.00  0.00    -0.298 N 
ATOM      2  C   UNL     1      -2.878  -1.411  -3.470  0.00  0.00    +0.261 C 
ATOM      3  O   UNL     1      -3.702  -2.192  -3.909  0.00  0.00    -0.269 OA
ATOM      4  H   UNL     1      -2.168  -0.539  -1.797  0.00  0.00    +0.150 HD
ENDROOT
BRANCH   1  13
ATOM      5  C   UNL     1      -3.014  -2.361   0.018  0.00  0.00    +0.109 C 
ATOM      6  C   UNL     1      -2.981  -3.865   0.057  0.00  0.00    +0.016 C 
ATOM      7  C   UNL     1      -2.699  -4.553   1.370  0.00  0.00    +0.005 C 
ATOM      8  C   UNL     1      -2.421  -6.036   1.068  0.00  0.00    +0.000 C 
ATOM      9  C   UNL     1      -3.587  -6.671   0.316  0.00  0.00    +0.001 C 
ATOM     10  C   UNL     1      -3.914  -5.899  -0.971  0.00  0.00    +0.014 C 
ATOM     11  C   UNL     1      -4.276  -4.470  -0.548  0.00  0.00    +0.052 C 
ATOM     12  S   UNL     1      -4.434  -3.363  -2.008  0.00  0.00    -0.134 S 
ATOM     13  C   UNL     1      -3.758  -1.830  -1.236  0.00  0.00    +0.144 C 
BRANCH   5  15
ATOM     14  N   UNL     1      -1.372  -0.511   0.012  0.00  0.00    -0.315 N 
ATOM     15  C   UNL     1      -1.601  -1.839   0.007  0.00  0.00    +0.219 C 
ATOM     16  O   UNL     1      -0.668  -2.615  -0.006  0.00  0.00    -0.275 OA
ATOM     17  H   UNL     1      -2.118   0.109   0.023  0.00  0.00    +0.149 HD
BRANCH  14  19
ATOM     18  C   UNL     1      -0.019   1.526   0.010  0.00  0.00    +0.024 C 
ATOM     19  C   UNL     1       0.002  -0.004   0.002  0.00  0.00    +0.101 C 
ENDBRANCH  14  19
ENDBRANCH   5  15
ENDBRANCH   1  13
BRANCH   2  20
ATOM     20  C   UNL     1      -1.945  -0.743  -4.381  0.00  0.00    +0.131 C 
ATOM     21  N   UNL     1      -1.004   0.111  -4.071  0.00  0.00    -0.148 NA
ATOM     22  N   UNL     1      -0.333   0.541  -5.066  0.00  0.00    -0.153 NA
ATOM     23  C   UNL     1      -0.710   0.047  -6.224  0.00  0.00    +0.080 C 
ATOM     24  C   UNL     1      -1.854  -0.896  -5.890  0.00  0.00    +0.120 C 
BRANCH  23  25
ATOM     25  C   UNL     1      -0.147   0.336  -7.545  0.00  0.00    +0.040 A 
ATOM     26  C   UNL     1      -0.677  -0.279  -8.688  0.00  0.00    +0.017 A 
ATOM     27  C   UNL     1      -0.142  -0.001  -9.925  0.00  0.00    -0.047 A 
ATOM     28  C   UNL     1       0.918   0.885 -10.048  0.00  0.00    -0.044 A 
ATOM     29  C   UNL     1       1.451   1.499  -8.931  0.00  0.00    +0.049 A 
ATOM     30  C   UNL     1       0.924   1.238  -7.676  0.00  0.00    +0.126 A 
ATOM     31  C   UNL     1       1.494   1.178 -11.409  0.00  0.00    +0.044 C 
ATOM     32  C   UNL     1      -0.712  -0.662 -11.154  0.00  0.00    +0.044 C 
BRANCH  30  33
ATOM     33  O   UNL     1       1.444   1.844  -6.580  0.00  0.00    -0.506 OA
ATOM     34  H   UNL     1       2.166   1.354  -6.164  0.00  0.00    +0.292 HD
ENDBRANCH  30  33
ENDBRANCH  23  25
ENDBRANCH   2  20
TORSDOF 6
