REMARK  Name = ZINC00623718
REMARK  11 active torsions:
REMARK  status: ('A' for Active; 'I' for Inactive)
REMARK    1  A    between atoms: C_1  and  C_2
REMARK    2  A    between atoms: C_5  and  S_8
REMARK    3  A    between atoms: S_8  and  N_11
REMARK    4  A    between atoms: N_11  and  C_12
REMARK    5  A    between atoms: N_11  and  C_15
REMARK    6  A    between atoms: C_12  and  C_13
REMARK    7  A    between atoms: C_13  and  O_14
REMARK    8  A    between atoms: C_15  and  C_16
REMARK    9  A    between atoms: C_16  and  C_18
REMARK   10  A    between atoms: C_16  and  O_34
REMARK   11  A    between atoms: C_18  and  N_19
REMARK                            x       y       z     vdW  Elec       q    Type
REMARK                         _______ _______ _______ _____ _____    ______ ____
ROOT
ATOM      1  C   UNL     1       1.611   1.804   0.081  0.00  0.00    +0.150 C 
ENDROOT
BRANCH   1   2
ATOM      2  O   UNL     1       0.404   1.086   0.348  0.00  0.00    -0.389 OA
ATOM      3  H   UNL     1       0.529   0.134   0.456  0.00  0.00    +0.210 HD
ENDBRANCH   1   2
BRANCH   1   4
ATOM      4  C   UNL     1       2.239   1.282  -1.213  0.00  0.00    +0.142 C 
BRANCH   4   5
ATOM      5  N   UNL     1       1.359   1.590  -2.343  0.00  0.00    -0.172 NA
BRANCH   5   6
ATOM      6  S   UNL     1       0.633   0.363  -3.186  0.00  0.00    +0.061 S 
ATOM      7  O   UNL     1       0.338   0.877  -4.477  0.00  0.00    -0.153 OA
ATOM      8  O   UNL     1       1.435  -0.793  -2.991  0.00  0.00    -0.153 OA
BRANCH   6  13
ATOM      9  C   UNL     1      -4.665  -0.743  -0.519  0.00  0.00    +0.044 C 
ATOM     10  C   UNL     1      -3.342  -0.467  -1.185  0.00  0.00    -0.050 A 
ATOM     11  C   UNL     1      -3.262   0.463  -2.204  0.00  0.00    +0.005 A 
ATOM     12  C   UNL     1      -2.048   0.717  -2.815  0.00  0.00    +0.029 A 
ATOM     13  C   UNL     1      -0.914   0.040  -2.407  0.00  0.00    +0.105 A 
ATOM     14  C   UNL     1      -0.995  -0.893  -1.391  0.00  0.00    +0.029 A 
ATOM     15  C   UNL     1      -2.208  -1.144  -0.776  0.00  0.00    +0.005 A 
ENDBRANCH   6  13
ENDBRANCH   5   6
BRANCH   5  16
ATOM     16  C   UNL     1       1.121   2.984  -2.727  0.00  0.00    +0.137 C 
BRANCH  16  17
ATOM     17  C   UNL     1       2.283   3.480  -3.590  0.00  0.00    +0.173 C 
BRANCH  17  18
ATOM     18  O   UNL     1       2.306   2.753  -4.821  0.00  0.00    -0.394 OA
ATOM     19  H   UNL     1       3.018   3.016  -5.419  0.00  0.00    +0.209 HD
ENDBRANCH  17  18
ENDBRANCH  16  17
ENDBRANCH   5  16
ENDBRANCH   4   5
ENDBRANCH   1   4
BRANCH   1  20
ATOM     20  C   UNL     1       2.590   1.606   1.240  0.00  0.00    +0.155 C 
BRANCH  20  21
ATOM     21  N   UNL     1       2.038   2.213   2.454  0.00  0.00    -0.337 N 
ATOM     22  C   UNL     1       2.253   3.521   2.852  0.00  0.00    +0.050 A 
ATOM     23  C   UNL     1       2.981   4.565   2.288  0.00  0.00    +0.028 A 
ATOM     24  C   UNL     1       3.024   5.793   2.912  0.00  0.00    +0.022 A 
ATOM     25  C   UNL     1       2.346   6.002   4.104  0.00  0.00    +0.042 A 
ATOM     26  C   UNL     1       1.612   4.983   4.674  0.00  0.00    +0.030 A 
ATOM     27  C   UNL     1       1.565   3.736   4.055  0.00  0.00    +0.009 A 
ATOM     28  C   UNL     1       0.906   2.461   4.393  0.00  0.00    +0.009 A 
ATOM     29  C   UNL     1       1.233   1.559   3.370  0.00  0.00    +0.050 A 
ATOM     30  C   UNL     1       0.743   0.258   3.425  0.00  0.00    +0.028 A 
ATOM     31  C   UNL     1      -0.057  -0.134   4.477  0.00  0.00    +0.022 A 
ATOM     32  C   UNL     1      -0.380   0.759   5.489  0.00  0.00    +0.042 A 
ATOM     33  C   UNL     1       0.097   2.052   5.451  0.00  0.00    +0.030 A 
ATOM     34 CL   UNL     1      -1.388   0.246   6.806  0.00  0.00    -0.084 Cl
ATOM     35 CL   UNL     1       2.412   7.556   4.875  0.00  0.00    -0.084 Cl
ENDBRANCH  20  21
ENDBRANCH   1  20
TORSDOF 10
