REMARK  Name = ZINC31783991
REMARK  6 active torsions:
REMARK  status: ('A' for Active; 'I' for Inactive)
REMARK    1  A    between atoms: C_1  and  C_2
REMARK    2  A    between atoms: C_7  and  C_8
REMARK    3  A    between atoms: C_10  and  C_13
REMARK    4  A    between atoms: C_13  and  N_14
REMARK    5  A    between atoms: N_17  and  C_20
REMARK    6  A    between atoms: C_20  and  N_21
REMARK                            x       y       z     vdW  Elec       q    Type
REMARK                         _______ _______ _______ _____ _____    ______ ____
ROOT
ATOM      1  N   UNL     1       5.557  -0.384  -3.623  0.00  0.00    -0.297 NA
ATOM      2  C   UNL     1       5.944   0.858  -2.939  0.00  0.00    +0.066 C 
ATOM      3  C   UNL     1       5.499   0.791  -1.476  0.00  0.00    -0.061 C 
ATOM      4  N   UNL     1       4.044   0.592  -1.417  0.00  0.00    +0.393 N 
ATOM      5  C   UNL     1       3.658  -0.650  -2.102  0.00  0.00    -0.061 C 
ATOM      6  C   UNL     1       4.103  -0.583  -3.565  0.00  0.00    +0.066 C 
ATOM      7  H   UNL     1       3.565   1.432  -1.942  0.00  0.00    -0.079 HD
ENDROOT
BRANCH   1   8
ATOM      8  C   UNL     1       6.034  -0.390  -5.012  0.00  0.00    +0.183 C 
BRANCH   8  11
ATOM      9  C   UNL     1       4.143  -2.791  -6.903  0.00  0.00    +0.202 A 
ATOM     10  N   UNL     1       4.288  -1.539  -6.412  0.00  0.00    -0.190 NA
ATOM     11  C   UNL     1       5.418  -1.550  -5.750  0.00  0.00    +0.242 A 
ATOM     12  O   UNL     1       5.925  -2.783  -5.857  0.00  0.00    -0.336 OA
ATOM     13  N   UNL     1       5.183  -3.482  -6.514  0.00  0.00    -0.056 NA
BRANCH   9  20
ATOM     14  C   UNL     1       4.126  -5.540  -7.803  0.00  0.00    +0.044 C 
ATOM     15  C   UNL     1       2.997  -4.610  -8.166  0.00  0.00    -0.040 A 
ATOM     16  C   UNL     1       1.944  -5.067  -8.934  0.00  0.00    +0.004 A 
ATOM     17  C   UNL     1       0.908  -4.215  -9.268  0.00  0.00    +0.000 A 
ATOM     18  C   UNL     1       0.919  -2.901  -8.836  0.00  0.00    +0.001 A 
ATOM     19  C   UNL     1       1.964  -2.435  -8.063  0.00  0.00    +0.012 A 
ATOM     20  C   UNL     1       3.014  -3.288  -7.729  0.00  0.00    +0.025 A 
ENDBRANCH   9  20
ENDBRANCH   8  11
ENDBRANCH   1   8
BRANCH   4  21
ATOM     21  C   UNL     1       3.567   0.597  -0.028  0.00  0.00    +0.051 C 
BRANCH  21  22
ATOM     22  N   UNL     1       2.103   0.637  -0.015  0.00  0.00    -0.319 N 
ATOM     23  C   UNL     1       1.310   1.784  -0.001  0.00  0.00    +0.086 A 
ATOM     24  C   UNL     1       1.597   3.140   0.004  0.00  0.00    +0.029 A 
ATOM     25  C   UNL     1       0.568   4.060   0.018  0.00  0.00    +0.002 A 
ATOM     26  C   UNL     1      -0.749   3.632   0.029  0.00  0.00    +0.004 A 
ATOM     27  C   UNL     1      -1.043   2.283   0.029  0.00  0.00    +0.048 A 
ATOM     28  C   UNL     1      -0.016   1.351   0.009  0.00  0.00    +0.154 A 
ATOM     29  O   UNL     1       0.002  -0.004   0.002  0.00  0.00    -0.431 OA
ATOM     30  C   UNL     1       1.277  -0.427  -0.012  0.00  0.00    +0.248 A 
ATOM     31  S   UNL     1       1.775  -2.066  -0.025  0.00  0.00    +0.009 S 
ENDBRANCH  21  22
ENDBRANCH   4  21
TORSDOF 5
