REMARK  Name = ZINC04148395
REMARK  8 active torsions:
REMARK  status: ('A' for Active; 'I' for Inactive)
REMARK    1  A    between atoms: C_1  and  C_2
REMARK    2  A    between atoms: C_2  and  O_3
REMARK    3  A    between atoms: O_3  and  C_4
REMARK    4  A    between atoms: C_4  and  C_6
REMARK    5  A    between atoms: C_7  and  C_27
REMARK    6  A    between atoms: C_14  and  C_16
REMARK    7  A    between atoms: C_21  and  O_22
REMARK    8  A    between atoms: O_22  and  C_23
REMARK                            x       y       z     vdW  Elec       q    Type
REMARK                         _______ _______ _______ _____ _____    ______ ____
ROOT
ATOM      1  C   UNL     1       1.246  -2.359  -2.578  0.00  0.00    +0.082 C 
ATOM      2  C   UNL     1       1.597  -3.654  -2.557  0.00  0.00    +0.020 C 
ATOM      3  N   UNL     1       2.390  -4.215  -3.527  0.00  0.00    -0.286 N 
ATOM      4  C   UNL     1       2.615  -3.471  -4.676  0.00  0.00    +0.240 A 
ATOM      5  N   UNL     1       3.128  -3.808  -5.825  0.00  0.00    -0.092 NA
ATOM      6  N   UNL     1       3.144  -2.795  -6.622  0.00  0.00    -0.021 NA
ATOM      7  N   UNL     1       2.648  -1.752  -6.037  0.00  0.00    -0.042 NA
ATOM      8  N   UNL     1       2.289  -2.154  -4.751  0.00  0.00    -0.201 N 
ATOM      9  C   UNL     1       1.690  -1.404  -3.655  0.00  0.00    +0.184 C 
ATOM     10  C   UNL     1       1.105  -4.523  -1.429  0.00  0.00    +0.061 C 
ATOM     11  H   UNL     1       2.778  -5.097  -3.414  0.00  0.00    +0.155 HD
ENDROOT
BRANCH   9  12
ATOM     12  C   UNL     1       2.708  -0.447  -3.091  0.00  0.00    +0.025 A 
ATOM     13  C   UNL     1       3.894  -0.928  -2.570  0.00  0.00    +0.025 A 
ATOM     14  C   UNL     1       4.829  -0.050  -2.052  0.00  0.00    +0.018 A 
ATOM     15  C   UNL     1       4.579   1.311  -2.054  0.00  0.00    +0.019 A 
ATOM     16  C   UNL     1       3.394   1.796  -2.575  0.00  0.00    +0.047 A 
ATOM     17  C   UNL     1       2.458   0.917  -3.100  0.00  0.00    +0.132 A 
ATOM     18 BR   UNL     1       6.450  -0.710  -1.338  0.00  0.00    -0.050 Br
BRANCH  17  19
ATOM     19  O   UNL     1       1.294   1.392  -3.617  0.00  0.00    -0.434 OA
BRANCH  19  20
ATOM     20  C   UNL     1       1.104   2.808  -3.593  0.00  0.00    +0.541 C 
ATOM     21  F   UNL     1       1.140   3.261  -2.270  0.00  0.00    -0.166 F 
ATOM     22  F   UNL     1       2.122   3.428  -4.326  0.00  0.00    -0.166 F 
ENDBRANCH  19  20
ENDBRANCH  17  19
ENDBRANCH   9  12
BRANCH   1  23
ATOM     23  C   UNL     1       0.417  -1.869  -1.544  0.00  0.00    +0.339 C 
ATOM     24  O   UNL     1      -0.779  -1.745  -1.731  0.00  0.00    -0.245 OA
BRANCH  23  25
ATOM     25  O   UNL     1       0.952  -1.540  -0.350  0.00  0.00    -0.462 OA
BRANCH  25  27
ATOM     26  C   UNL     1       0.838  -0.733   1.925  0.00  0.00    +0.048 C 
ATOM     27  C   UNL     1       0.055  -1.051   0.650  0.00  0.00    +0.229 C 
ENDBRANCH  25  27
ENDBRANCH  23  25
ENDBRANCH   1  23
TORSDOF 6
