REMARK  Name = ZINC06134132
REMARK  13 active torsions:
REMARK  status: ('A' for Active; 'I' for Inactive)
REMARK    1  A    between atoms: C_1  and  C_2
REMARK    2  A    between atoms: C_2  and  O_3
REMARK    3  A    between atoms: O_3  and  C_4
REMARK    4  A    between atoms: C_11  and  C_16
REMARK    5  A    between atoms: C_16  and  C_18
REMARK    6  A    between atoms: C_16  and  N_73
REMARK    7  A    between atoms: N_22  and  C_23
REMARK    8  A    between atoms: C_23  and  C_24
REMARK    9  A    between atoms: C_24  and  O_25
REMARK   10  A    between atoms: O_25  and  C_26
REMARK   11  A    between atoms: N_29  and  C_32
REMARK   12  A    between atoms: C_36  and  C_39
REMARK   13  A    between atoms: C_37  and  C_38
REMARK                            x       y       z     vdW  Elec       q    Type
REMARK                         _______ _______ _______ _____ _____    ______ ____
ROOT
ATOM      1  C   UNL     1       2.466   1.062  -0.015  0.00  0.00    +0.039 C 
ENDROOT
BRANCH   1   9
ATOM      2  C   UNL     1      -3.682   1.849   0.028  0.00  0.00    +0.121 A 
ATOM      3  C   UNL     1      -3.655   3.242   0.035  0.00  0.00    +0.047 A 
ATOM      4  C   UNL     1      -2.457   3.920   0.045  0.00  0.00    +0.030 A 
ATOM      5  C   UNL     1      -1.258   3.214   0.031  0.00  0.00    +0.049 A 
ATOM      6  C   UNL     1      -1.281   1.807   0.018  0.00  0.00    +0.002 A 
ATOM      7  C   UNL     1      -2.505   1.129   0.019  0.00  0.00    +0.055 A 
ATOM      8  C   UNL     1      -0.013   1.076   0.008  0.00  0.00    +0.017 A 
ATOM      9  C   UNL     1       1.143   1.784   0.001  0.00  0.00    +0.011 A 
ATOM     10  C   UNL     1       1.113   3.195   0.009  0.00  0.00    +0.251 A 
ATOM     11  O   UNL     1       2.163   3.813   0.002  0.00  0.00    -0.268 OA
ATOM     12  N   UNL     1      -0.047   3.875   0.023  0.00  0.00    -0.322 N 
ATOM     13  H   UNL     1      -0.032   4.875   0.029  0.00  0.00    +0.169 HD
BRANCH   2  14
ATOM     14  O   UNL     1      -4.875   1.196   0.030  0.00  0.00    -0.492 OA
BRANCH  14  16
ATOM     15  C   UNL     1      -7.290   1.096   0.040  0.00  0.00    +0.048 C 
ATOM     16  C   UNL     1      -6.056   2.001   0.039  0.00  0.00    +0.225 C 
ENDBRANCH  14  16
ENDBRANCH   2  14
ENDBRANCH   1   9
BRANCH   1  22
ATOM     17  C   UNL     1       2.536   1.356  -2.418  0.00  0.00    -0.058 C 
ATOM     18  C   UNL     1       3.368   1.928  -3.569  0.00  0.00    +0.086 C 
ATOM     19  N   UNL     1       4.668   1.244  -3.616  0.00  0.00    -0.333 N 
ATOM     20  C   UNL     1       5.398   1.419  -2.353  0.00  0.00    +0.086 C 
ATOM     21  C   UNL     1       4.566   0.847  -1.203  0.00  0.00    -0.058 C 
ATOM     22  N   UNL     1       3.271   1.558  -1.152  0.00  0.00    +0.391 N 
ATOM     23  H   UNL     1       3.446   2.562  -1.024  0.00  0.00    -0.080 HD
BRANCH  19  24
ATOM     24  C   UNL     1       5.428   1.690  -4.700  0.00  0.00    +0.033 A 
ATOM     25  C   UNL     1       5.844   3.014  -4.761  0.00  0.00    +0.023 A 
ATOM     26  C   UNL     1       6.596   3.451  -5.834  0.00  0.00    +0.002 A 
ATOM     27  C   UNL     1       6.935   2.572  -6.847  0.00  0.00    +0.004 A 
ATOM     28  C   UNL     1       6.522   1.254  -6.789  0.00  0.00    -0.046 A 
ATOM     29  C   UNL     1       5.775   0.809  -5.716  0.00  0.00    -0.027 A 
ATOM     30  C   UNL     1       5.331  -0.630  -5.651  0.00  0.00    +0.046 C 
ATOM     31  C   UNL     1       6.894   0.300  -7.895  0.00  0.00    +0.044 C 
ENDBRANCH  19  24
ENDBRANCH   1  22
BRANCH   1  32
ATOM     32  C   UNL     1       3.207   1.343   1.267  0.00  0.00    +0.143 A 
ATOM     33  N   UNL     1       3.827   2.452   1.586  0.00  0.00    -0.115 NA
ATOM     34  N   UNL     1       4.333   2.301   2.762  0.00  0.00    -0.023 NA
ATOM     35  N   UNL     1       4.058   1.122   3.197  0.00  0.00    -0.044 NA
ATOM     36  N   UNL     1       3.365   0.499   2.304  0.00  0.00    -0.228 N 
BRANCH  36  37
ATOM     37  C   UNL     1       2.848  -0.868   2.401  0.00  0.00    +0.175 C 
BRANCH  37  38
ATOM     38  C   UNL     1       3.883  -1.845   1.842  0.00  0.00    +0.183 C 
BRANCH  38  39
ATOM     39  O   UNL     1       3.379  -3.179   1.936  0.00  0.00    -0.381 OA
ATOM     40  C   UNL     1       4.273  -4.176   1.438  0.00  0.00    +0.194 C 
ENDBRANCH  38  39
ENDBRANCH  37  38
ENDBRANCH  36  37
ENDBRANCH   1  32
TORSDOF 9
