REMARK  Name = ZINC12524399
REMARK  7 active torsions:
REMARK  status: ('A' for Active; 'I' for Inactive)
REMARK    1  A    between atoms: C_1  and  N_2
REMARK    2  A    between atoms: N_2  and  C_3
REMARK    3  A    between atoms: N_2  and  C_4
REMARK    4  A    between atoms: C_7  and  C_10
REMARK    5  A    between atoms: N_14  and  N_18
REMARK    6  A    between atoms: C_19  and  C_21
REMARK    7  A    between atoms: C_26  and  N_27
REMARK                            x       y       z     vdW  Elec       q    Type
REMARK                         _______ _______ _______ _____ _____    ______ ____
ROOT
ATOM      1  C   UNL     1       0.470   3.751   0.422  0.00  0.00    +0.028 C 
ATOM      2  C   UNL     1       1.587   4.449   0.090  0.00  0.00    +0.079 C 
ATOM      3  C   UNL     1       1.796   5.908   0.013  0.00  0.00    +0.275 C 
ATOM      4  O   UNL     1       0.902   6.696   0.261  0.00  0.00    -0.267 OA
ATOM      5  N   UNL     1       3.003   6.316  -0.342  0.00  0.00    -0.169 N 
ATOM      6  C   UNL     1       3.990   5.439  -0.617  0.00  0.00    +0.138 C 
ATOM      7  S   UNL     1       5.603   5.768  -1.087  0.00  0.00    -0.026 S 
ATOM      8  S   UNL     1       3.210   3.853  -0.364  0.00  0.00    -0.059 S 
ENDROOT
BRANCH   1  12
ATOM      9  C   UNL     1       0.369  -0.452  -0.092  0.00  0.00    +0.029 A 
ATOM     10  C   UNL     1      -0.669   0.190   0.577  0.00  0.00    +0.023 A 
ATOM     11  C   UNL     1      -0.641   1.550   0.746  0.00  0.00    +0.010 A 
ATOM     12  C   UNL     1       0.435   2.294   0.244  0.00  0.00    -0.024 A 
ATOM     13  C   UNL     1       1.478   1.643  -0.428  0.00  0.00    +0.010 A 
ATOM     14  C   UNL     1       1.441   0.283  -0.593  0.00  0.00    +0.023 A 
BRANCH   9  16
ATOM     15  C   UNL     1      -0.730  -2.622   0.361  0.00  0.00    +0.129 C 
ATOM     16  N   UNL     1       0.336  -1.833  -0.262  0.00  0.00    -0.336 N 
ATOM     17  C   UNL     1       1.367  -2.498  -1.063  0.00  0.00    +0.129 C 
ENDBRANCH   9  16
ENDBRANCH   1  12
BRANCH   5  18
ATOM     18  N   UNL     1       3.262   7.690  -0.433  0.00  0.00    -0.222 N 
ATOM     19  C   UNL     1       3.984   8.304   0.524  0.00  0.00    +0.263 C 
ATOM     20  O   UNL     1       4.411   7.667   1.467  0.00  0.00    -0.269 OA
ATOM     21  H   UNL     1       2.921   8.198  -1.185  0.00  0.00    +0.174 HD
BRANCH  19  22
ATOM     22  C   UNL     1       4.257   9.754   0.428  0.00  0.00    +0.068 A 
ATOM     23  C   UNL     1       3.892  10.462  -0.719  0.00  0.00    +0.015 A 
ATOM     24  C   UNL     1       4.149  11.814  -0.802  0.00  0.00    +0.001 A 
ATOM     25  C   UNL     1       4.768  12.470   0.248  0.00  0.00    +0.002 A 
ATOM     26  C   UNL     1       5.132  11.775   1.387  0.00  0.00    +0.033 A 
ATOM     27  C   UNL     1       4.876  10.422   1.485  0.00  0.00    +0.138 A 
BRANCH  27  28
ATOM     28  N   UNL     1       5.262   9.681   2.707  0.00  0.00    +0.057 N 
ATOM     29  O   UNL     1       4.440   8.995   3.288  0.00  0.00    -0.126 OA
ATOM     30  O   UNL     1       6.401   9.757   3.132  0.00  0.00    -0.126 OA
ENDBRANCH  27  28
ENDBRANCH  19  22
ENDBRANCH   5  18
TORSDOF 5
