REMARK  Name = ZINC07600948
REMARK  3 active torsions:
REMARK  status: ('A' for Active; 'I' for Inactive)
REMARK    1  A    between atoms: C_5  and  N_7
REMARK    2  A    between atoms: C_12  and  C_13
REMARK    3  A    between atoms: C_12  and  N_45
REMARK                            x       y       z     vdW  Elec       q    Type
REMARK                         _______ _______ _______ _____ _____    ______ ____
ROOT
ATOM      1  N   UNL     1      -4.167  -0.494  -4.046  0.00  0.00    -0.332 N 
ATOM      2  C   UNL     1      -4.255   0.699  -4.900  0.00  0.00    +0.086 C 
ATOM      3  C   UNL     1      -2.925   1.454  -4.855  0.00  0.00    -0.059 C 
ATOM      4  C   UNL     1      -2.535   0.634  -2.612  0.00  0.00    -0.059 C 
ATOM      5  C   UNL     1      -3.865  -0.121  -2.656  0.00  0.00    +0.086 C 
ATOM      6  N   UNL     1      -2.644   1.842  -3.457  0.00  0.00    +0.384 N 
ATOM      7  H   UNL     1      -3.416   2.423  -3.110  0.00  0.00    -0.081 HD
ENDROOT
BRANCH   1  12
ATOM      8  C   UNL     1      -7.326  -2.106  -3.081  0.00  0.00    +0.002 A 
ATOM      9  C   UNL     1      -7.665  -2.745  -4.259  0.00  0.00    +0.002 A 
ATOM     10  C   UNL     1      -6.845  -2.639  -5.368  0.00  0.00    +0.022 A 
ATOM     11  C   UNL     1      -5.684  -1.893  -5.301  0.00  0.00    +0.062 A 
ATOM     12  C   UNL     1      -5.341  -1.249  -4.117  0.00  0.00    +0.048 A 
ATOM     13  C   UNL     1      -6.165  -1.363  -3.005  0.00  0.00    +0.024 A 
ATOM     14 CL   UNL     1      -4.654  -1.760  -6.692  0.00  0.00    -0.082 Cl
ENDBRANCH   1  12
BRANCH   6  15
ATOM     15  C   UNL     1      -1.389   2.621  -3.391  0.00  0.00    -0.039 C 
BRANCH  15  16
ATOM     16  C   UNL     1      -1.241   3.189  -2.003  0.00  0.00    -0.020 A 
ATOM     17  C   UNL     1      -1.594   4.500  -1.752  0.00  0.00    +0.025 A 
ATOM     18  C   UNL     1      -1.460   5.022  -0.478  0.00  0.00    +0.042 A 
ATOM     19  C   UNL     1      -0.970   4.231   0.546  0.00  0.00    +0.029 A 
ATOM     20  C   UNL     1      -0.615   2.918   0.299  0.00  0.00    +0.022 A 
ATOM     21  C   UNL     1      -0.751   2.393  -0.976  0.00  0.00    +0.130 A 
ATOM     22  O   UNL     1      -0.409   1.102  -1.232  0.00  0.00    -0.466 OA
ATOM     23  C   UNL     1       0.415   0.448  -0.263  0.00  0.00    +0.394 C 
ATOM     24  O   UNL     1      -0.127   0.690   1.041  0.00  0.00    -0.339 OA
ATOM     25  C   UNL     1      -0.076   2.068   1.421  0.00  0.00    +0.202 C 
ATOM     26 CL   UNL     1      -1.906   6.670  -0.164  0.00  0.00    -0.084 Cl
ENDBRANCH  15  16
ENDBRANCH   6  15
TORSDOF 3
