REMARK  Name = ZINC12546624
REMARK  11 active torsions:
REMARK  status: ('A' for Active; 'I' for Inactive)
REMARK    1  A    between atoms: C_1  and  C_2
REMARK    2  A    between atoms: C_5  and  C_38
REMARK    3  A    between atoms: C_10  and  C_12
REMARK    4  A    between atoms: C_12  and  C_14
REMARK    5  A    between atoms: C_12  and  O_15
REMARK    6  A    between atoms: O_15  and  C_16
REMARK    7  A    between atoms: C_16  and  C_18
REMARK    8  A    between atoms: C_23  and  N_24
REMARK    9  A    between atoms: N_24  and  S_25
REMARK   10  A    between atoms: S_25  and  C_28
REMARK   11  A    between atoms: C_32  and  N_34
REMARK                            x       y       z     vdW  Elec       q    Type
REMARK                         _______ _______ _______ _____ _____    ______ ____
ROOT
ATOM      1  C   UNL     1       0.402  -1.347  -3.305  0.00  0.00    +0.081 A 
ATOM      2  C   UNL     1       1.748  -1.712  -3.210  0.00  0.00    +0.017 A 
ATOM      3  C   UNL     1       2.402  -2.219  -4.311  0.00  0.00    +0.001 A 
ATOM      4  C   UNL     1       1.734  -2.369  -5.516  0.00  0.00    +0.002 A 
ATOM      5  C   UNL     1       0.405  -2.014  -5.627  0.00  0.00    +0.025 A 
ATOM      6  C   UNL     1      -0.274  -1.507  -4.526  0.00  0.00    +0.062 A 
ENDROOT
BRANCH   1   7
ATOM      7  C   UNL     1      -0.304  -0.805  -2.132  0.00  0.00    +0.342 C 
ATOM      8  O   UNL     1      -1.475  -0.489  -2.220  0.00  0.00    -0.245 OA
BRANCH   7   9
ATOM      9  O   UNL     1       0.347  -0.659  -0.962  0.00  0.00    -0.449 OA
BRANCH   9  10
ATOM     10  C   UNL     1      -0.412  -0.118   0.152  0.00  0.00    +0.259 C 
ATOM     11  C   UNL     1      -0.289   1.407   0.160  0.00  0.00    +0.062 C 
BRANCH  10  19
ATOM     12  C   UNL     1      -4.012   0.637   3.532  0.00  0.00    +0.009 C 
ATOM     13  C   UNL     1      -2.800  -0.283   3.376  0.00  0.00    +0.004 C 
ATOM     14  C   UNL     1      -2.296  -0.703   4.760  0.00  0.00    +0.009 C 
ATOM     15  C   UNL     1      -1.104  -1.650   4.605  0.00  0.00    +0.004 C 
ATOM     16  C   UNL     1       0.031  -0.921   3.878  0.00  0.00    +0.111 C 
ATOM     17  N   UNL     1      -0.485  -0.388   2.610  0.00  0.00    -0.298 N 
ATOM     18  C   UNL     1      -1.681   0.466   2.636  0.00  0.00    +0.111 C 
ATOM     19  C   UNL     1       0.130  -0.672   1.445  0.00  0.00    +0.256 C 
ATOM     20  O   UNL     1       1.119  -1.375   1.437  0.00  0.00    -0.272 OA
ATOM     21  C   UNL     1      -1.527  -2.875   3.792  0.00  0.00    +0.009 C 
ENDBRANCH  10  19
ENDBRANCH   9  10
ENDBRANCH   7   9
ENDBRANCH   1   7
BRANCH   6  22
ATOM     22  N   UNL     1      -1.613  -1.155  -4.633  0.00  0.00    -0.215 N 
ATOM     23  H   UNL     1      -1.954  -0.389  -4.144  0.00  0.00    +0.174 HD
BRANCH  22  24
ATOM     24  S   UNL     1      -2.627  -2.040  -5.597  0.00  0.00    +0.072 S 
ATOM     25  O   UNL     1      -3.935  -1.521  -5.395  0.00  0.00    -0.150 OA
ATOM     26  O   UNL     1      -2.020  -2.099  -6.880  0.00  0.00    -0.150 OA
BRANCH  24  27
ATOM     27  C   UNL     1      -2.637  -3.686  -4.968  0.00  0.00    +0.111 A 
ATOM     28  C   UNL     1      -1.724  -4.612  -5.440  0.00  0.00    +0.030 A 
ATOM     29  C   UNL     1      -1.729  -5.901  -4.944  0.00  0.00    +0.024 A 
ATOM     30  C   UNL     1      -2.654  -6.270  -3.983  0.00  0.00    +0.071 A 
ATOM     31  C   UNL     1      -3.570  -5.345  -3.515  0.00  0.00    +0.146 A 
ATOM     32  C   UNL     1      -3.562  -4.054  -4.008  0.00  0.00    +0.063 A 
ATOM     33 CL   UNL     1      -2.663  -7.892  -3.364  0.00  0.00    -0.081 Cl
BRANCH  31  34
ATOM     34  N   UNL     1      -4.559  -5.739  -2.487  0.00  0.00    +0.058 N 
ATOM     35  O   UNL     1      -5.366  -4.924  -2.075  0.00  0.00    -0.126 OA
ATOM     36  O   UNL     1      -4.567  -6.877  -2.053  0.00  0.00    -0.126 OA
ENDBRANCH  31  34
ENDBRANCH  24  27
ENDBRANCH  22  24
ENDBRANCH   6  22
TORSDOF 8
