REMARK  Name = ZINC20291087
REMARK  10 active torsions:
REMARK  status: ('A' for Active; 'I' for Inactive)
REMARK    1  A    between atoms: C_1  and  C_2
REMARK    2  A    between atoms: C_5  and  N_9
REMARK    3  A    between atoms: C_6  and  C_8
REMARK    4  A    between atoms: C_10  and  C_12
REMARK    5  A    between atoms: C_12  and  S_13
REMARK    6  A    between atoms: S_13  and  C_14
REMARK    7  A    between atoms: C_17  and  C_22
REMARK    8  A    between atoms: N_18  and  C_19
REMARK    9  A    between atoms: C_19  and  C_20
REMARK   10  A    between atoms: C_28  and  C_30
REMARK                            x       y       z     vdW  Elec       q    Type
REMARK                         _______ _______ _______ _____ _____    ______ ____
ROOT
ATOM      1  C   UNL     1       0.359   0.113  -7.576  0.00  0.00    +0.192 A 
ATOM      2  N   UNL     1       0.343   1.424  -7.508  0.00  0.00    -0.122 NA
ATOM      3  N   UNL     1       0.416   1.923  -8.690  0.00  0.00    -0.132 NA
ATOM      4  C   UNL     1       0.484   0.969  -9.575  0.00  0.00    +0.155 A 
ATOM      5  N   UNL     1       0.456  -0.218  -8.897  0.00  0.00    -0.301 N 
ENDROOT
BRANCH   4   6
ATOM      6  C   UNL     1       0.582   1.142 -11.069  0.00  0.00    +0.144 C 
ATOM      7  C   UNL     1      -0.775   1.615 -11.632  0.00  0.00    +0.032 C 
ATOM      8  C   UNL     1      -0.361   2.628 -12.731  0.00  0.00    +0.021 C 
ATOM      9  C   UNL     1       0.893   3.280 -12.097  0.00  0.00    +0.109 C 
ATOM     10  N   UNL     1       1.573   2.180 -11.389  0.00  0.00    -0.287 N 
ATOM     11  C   UNL     1       2.885   2.133 -11.085  0.00  0.00    +0.247 C 
ATOM     12  O   UNL     1       3.359   1.129 -10.590  0.00  0.00    -0.270 OA
BRANCH  11  13
ATOM     13  C   UNL     1       3.748   3.302 -11.354  0.00  0.00    +0.037 A 
ATOM     14  C   UNL     1       5.122   3.133 -11.533  0.00  0.00    +0.014 A 
ATOM     15  C   UNL     1       5.921   4.227 -11.788  0.00  0.00    +0.021 A 
ATOM     16  C   UNL     1       5.365   5.494 -11.857  0.00  0.00    +0.041 A 
ATOM     17  C   UNL     1       4.003   5.669 -11.674  0.00  0.00    +0.021 A 
ATOM     18  C   UNL     1       3.193   4.581 -11.424  0.00  0.00    +0.014 A 
ATOM     19 CL   UNL     1       6.378   6.867 -12.172  0.00  0.00    -0.084 Cl
ENDBRANCH  11  13
ENDBRANCH   4   6
BRANCH   1  20
ATOM     20  S   UNL     1       0.280  -1.007  -6.218  0.00  0.00    -0.077 S 
BRANCH  20  21
ATOM     21  C   UNL     1       0.177   0.169  -4.846  0.00  0.00    +0.173 C 
BRANCH  21  23
ATOM     22  N   UNL     1       0.013   0.089  -2.379  0.00  0.00    -0.285 N 
ATOM     23  C   UNL     1       0.097  -0.585  -3.543  0.00  0.00    +0.227 C 
ATOM     24  O   UNL     1       0.109  -1.798  -3.543  0.00  0.00    -0.275 OA
ATOM     25  H   UNL     1      -0.090   1.184  -2.384  0.00  0.00    +0.155 HD
BRANCH  22  30
ATOM     26  C   UNL     1       0.181  -2.729   2.542  0.00  0.00    +0.044 C 
ATOM     27  C   UNL     1       0.140  -1.979   1.236  0.00  0.00    -0.050 A 
ATOM     28  C   UNL     1       0.717  -2.529   0.105  0.00  0.00    +0.005 A 
ATOM     29  C   UNL     1       0.680  -1.844  -1.093  0.00  0.00    +0.024 A 
ATOM     30  C   UNL     1       0.058  -0.605  -1.165  0.00  0.00    +0.036 A 
ATOM     31  C   UNL     1      -0.517  -0.053  -0.027  0.00  0.00    -0.029 A 
ATOM     32  C   UNL     1      -0.476  -0.743   1.169  0.00  0.00    +0.008 A 
ATOM     33  C   UNL     1      -1.189   1.294  -0.099  0.00  0.00    +0.045 C 
ENDBRANCH  22  30
ENDBRANCH  21  23
ENDBRANCH  20  21
ENDBRANCH   1  20
BRANCH   5  34
ATOM     34  C   UNL     1       0.514  -1.566  -9.469  0.00  0.00    +0.152 C 
BRANCH  34  35
ATOM     35  C   UNL     1      -0.883  -2.046  -9.765  0.00  0.00    -0.013 C 
ATOM     36  C   UNL     1      -1.195  -2.452 -10.971  0.00  0.00    +0.005 C 
ENDBRANCH  34  35
ENDBRANCH   5  34
TORSDOF 8
