REMARK  Name = ZINC45623506
REMARK  7 active torsions:
REMARK  status: ('A' for Active; 'I' for Inactive)
REMARK    1  A    between atoms: C_1  and  C_2
REMARK    2  A    between atoms: C_2  and  N_3
REMARK    3  A    between atoms: C_4  and  C_6
REMARK    4  A    between atoms: C_6  and  C_8
REMARK    5  A    between atoms: C_6  and  N_9
REMARK    6  A    between atoms: C_10  and  C_12
REMARK    7  A    between atoms: C_14  and  N_19
REMARK                            x       y       z     vdW  Elec       q    Type
REMARK                         _______ _______ _______ _____ _____    ______ ____
ROOT
ATOM      1  N   UNL     1       1.552  -3.749  -2.673  0.00  0.00    -0.300 N 
ATOM      2  C   UNL     1       1.652  -4.416  -3.840  0.00  0.00    +0.246 C 
ATOM      3  O   UNL     1       1.725  -3.801  -4.886  0.00  0.00    -0.270 OA
ATOM      4  H   UNL     1       1.493  -4.240  -1.838  0.00  0.00    +0.150 HD
ENDROOT
BRANCH   2   5
ATOM      5  C   UNL     1       1.672  -5.894  -3.848  0.00  0.00    +0.052 A 
ATOM      6  C   UNL     1       1.582  -6.602  -2.650  0.00  0.00    +0.037 A 
ATOM      7  C   UNL     1       1.601  -7.987  -2.665  0.00  0.00    +0.025 A 
ATOM      8  C   UNL     1       1.710  -8.668  -3.873  0.00  0.00    +0.024 A 
ATOM      9  C   UNL     1       1.799  -7.968  -5.060  0.00  0.00    +0.018 A 
ATOM     10  C   UNL     1       1.775  -6.586  -5.057  0.00  0.00    +0.030 A 
ATOM     11 BR   UNL     1       1.890  -5.634  -6.686  0.00  0.00    -0.050 Br
BRANCH   7  12
ATOM     12  N   UNL     1       1.511  -8.701  -1.467  0.00  0.00    -0.358 N 
ATOM     13  H   UNL     1       1.435  -8.226  -0.624  0.00  0.00    +0.142 HD
ATOM     14  H   UNL     1       1.524  -9.671  -1.478  0.00  0.00    +0.142 HD
ENDBRANCH   7  12
ENDBRANCH   2   5
BRANCH   1  15
ATOM     15  C   UNL     1       1.532  -2.285  -2.665  0.00  0.00    +0.156 C 
ATOM     16  C   UNL     1       2.968  -1.755  -2.676  0.00  0.00    +0.038 C 
BRANCH  15  18
ATOM     17  N   UNL     1       0.688  -0.476  -1.203  0.00  0.00    -0.314 N 
ATOM     18  C   UNL     1       0.827  -1.799  -1.425  0.00  0.00    +0.233 C 
ATOM     19  O   UNL     1       0.384  -2.597  -0.627  0.00  0.00    -0.274 OA
ATOM     20  H   UNL     1       1.042   0.162  -1.842  0.00  0.00    +0.149 HD
BRANCH  17  22
ATOM     21  C   UNL     1      -0.019   1.526   0.010  0.00  0.00    +0.024 C 
ATOM     22  C   UNL     1       0.002  -0.004   0.002  0.00  0.00    +0.101 C 
ENDBRANCH  17  22
ENDBRANCH  15  18
ENDBRANCH   1  15
TORSDOF 5
