REMARK  Name = ZINC49077874
REMARK  5 active torsions:
REMARK  status: ('A' for Active; 'I' for Inactive)
REMARK    1  A    between atoms: C_1  and  C_2
REMARK    2  A    between atoms: C_2  and  C_3
REMARK    3  A    between atoms: C_2  and  C_4
REMARK    4  A    between atoms: N_9  and  C_10
REMARK    5  A    between atoms: C_10  and  C_11
REMARK                            x       y       z     vdW  Elec       q    Type
REMARK                         _______ _______ _______ _____ _____    ______ ____
ROOT
ATOM      1  C   UNL     1       0.417  -3.946  -0.105  0.00  0.00    +0.032 A 
ATOM      2  C   UNL     1       1.069  -4.429  -1.223  0.00  0.00    +0.092 A 
ATOM      3  C   UNL     1       1.225  -5.812  -1.370  0.00  0.00    +0.258 A 
ATOM      4  O   UNL     1       1.797  -6.271  -2.347  0.00  0.00    -0.267 OA
ATOM      5  N   UNL     1       0.734  -6.631  -0.416  0.00  0.00    -0.268 N 
ATOM      6  C   UNL     1       0.878  -7.979  -0.545  0.00  0.00    +0.096 A 
ATOM      7  C   UNL     1       0.395  -8.819   0.398  0.00  0.00    +0.018 A 
ATOM      8  C   UNL     1      -0.264  -8.309   1.525  0.00  0.00    +0.005 A 
ATOM      9  C   UNL     1      -0.414  -6.961   1.664  0.00  0.00    +0.047 A 
ATOM     10  C   UNL     1       0.097  -6.103   0.672  0.00  0.00    +0.140 A 
ATOM     11  N   UNL     1      -0.044  -4.786   0.808  0.00  0.00    -0.236 NA
ENDROOT
BRANCH   1  12
ATOM     12  C   UNL     1       0.236  -2.461   0.077  0.00  0.00    -0.022 C 
BRANCH  12  17
ATOM     13  C   UNL     1      -1.371  -0.670   0.080  0.00  0.00    -0.065 C 
ATOM     14  C   UNL     1      -2.222  -0.346   1.326  0.00  0.00    -0.017 C 
ATOM     15  C   UNL     1      -2.957  -1.683   1.605  0.00  0.00    -0.020 C 
ATOM     16  C   UNL     1      -1.877  -2.722   1.214  0.00  0.00    -0.078 C 
ATOM     17  N   UNL     1      -1.196  -2.134   0.036  0.00  0.00    +0.385 N 
ATOM     18  H   UNL     1      -1.602  -2.499  -0.812  0.00  0.00    -0.081 HD
BRANCH  13  20
ATOM     19  C   UNL     1      -0.120   1.456  -0.311  0.00  0.00    +0.005 C 
ATOM     20  C   UNL     1      -0.008   0.015   0.188  0.00  0.00    -0.031 C 
ATOM     21  C   UNL     1       0.449   0.015   1.649  0.00  0.00    +0.005 C 
ENDBRANCH  13  20
ENDBRANCH  12  17
ENDBRANCH   1  12
TORSDOF 3
