REMARK  Name = ZINC12487968
REMARK  12 active torsions:
REMARK  status: ('A' for Active; 'I' for Inactive)
REMARK    1  A    between atoms: C_1  and  C_2
REMARK    2  A    between atoms: C_5  and  C_8
REMARK    3  A    between atoms: C_8  and  C_10
REMARK    4  A    between atoms: C_8  and  N_19
REMARK    5  A    between atoms: N_12  and  C_13
REMARK    6  A    between atoms: C_13  and  C_14
REMARK    7  A    between atoms: N_19  and  C_20
REMARK    8  A    between atoms: C_22  and  C_27
REMARK    9  A    between atoms: C_24  and  C_26
REMARK   10  A    between atoms: C_28  and  C_30
REMARK   11  A    between atoms: C_30  and  N_31
REMARK   12  A    between atoms: C_32  and  C_34
REMARK                            x       y       z     vdW  Elec       q    Type
REMARK                         _______ _______ _______ _____ _____    ______ ____
ROOT
ATOM      1  N   UNL     1       1.167   2.355   0.308  0.00  0.00    -0.254 N 
ATOM      2  C   UNL     1       0.013   1.664   0.397  0.00  0.00    +0.238 C 
ATOM      3  O   UNL     1      -1.039   2.205   0.127  0.00  0.00    -0.274 OA
ENDROOT
BRANCH   1   4
ATOM      4  C   UNL     1       2.389   1.704   0.513  0.00  0.00    +0.038 A 
ATOM      5  C   UNL     1       2.849   0.779  -0.415  0.00  0.00    +0.027 A 
ATOM      6  C   UNL     1       4.058   0.142  -0.213  0.00  0.00    -0.048 A 
ATOM      7  C   UNL     1       4.805   0.417   0.918  0.00  0.00    +0.006 A 
ATOM      8  C   UNL     1       4.348   1.334   1.847  0.00  0.00    -0.048 A 
ATOM      9  C   UNL     1       3.142   1.978   1.647  0.00  0.00    +0.027 A 
ATOM     10  C   UNL     1       5.165   1.631   3.077  0.00  0.00    +0.044 C 
ATOM     11  C   UNL     1       4.560  -0.858  -1.222  0.00  0.00    +0.044 C 
ENDBRANCH   1   4
BRANCH   1  12
ATOM     12  C   UNL     1       1.143   3.786  -0.002  0.00  0.00    +0.197 C 
BRANCH  12  17
ATOM     13  C   UNL     1       6.492   5.936   0.397  0.00  0.00    +0.044 C 
ATOM     14  C   UNL     1       5.097   5.375   0.293  0.00  0.00    -0.050 A 
ATOM     15  C   UNL     1       4.082   5.900   1.070  0.00  0.00    +0.004 A 
ATOM     16  C   UNL     1       2.802   5.386   0.975  0.00  0.00    +0.006 A 
ATOM     17  C   UNL     1       2.538   4.347   0.102  0.00  0.00    -0.018 A 
ATOM     18  C   UNL     1       3.555   3.818  -0.671  0.00  0.00    +0.006 A 
ATOM     19  C   UNL     1       4.833   4.336  -0.579  0.00  0.00    +0.004 A 
ENDBRANCH  12  17
BRANCH  12  20
ATOM     20  C   UNL     1       0.624   3.988  -1.402  0.00  0.00    +0.239 C 
ATOM     21  O   UNL     1       0.305   3.030  -2.075  0.00  0.00    -0.273 OA
ATOM     22  N   UNL     1       0.513   5.232  -1.907  0.00  0.00    -0.306 N 
ATOM     23  H   UNL     1       0.767   5.998  -1.369  0.00  0.00    +0.149 HD
BRANCH  22  24
ATOM     24  C   UNL     1       0.008   5.428  -3.268  0.00  0.00    +0.178 C 
BRANCH  24  25
ATOM     25  C   UNL     1      -0.017   6.901  -3.588  0.00  0.00    +0.122 A 
ATOM     26  C   UNL     1       0.987   7.603  -4.142  0.00  0.00    +0.046 A 
ATOM     27  C   UNL     1       0.537   8.938  -4.262  0.00  0.00    +0.041 A 
ATOM     28  C   UNL     1      -0.717   8.971  -3.775  0.00  0.00    +0.195 A 
ATOM     29  O   UNL     1      -1.049   7.734  -3.373  0.00  0.00    -0.466 OA
ENDBRANCH  24  25
ENDBRANCH  22  24
ENDBRANCH  12  20
ENDBRANCH   1  12
BRANCH   2  30
ATOM     30  C   UNL     1       0.030   0.220   0.825  0.00  0.00    +0.201 C 
BRANCH  30  31
ATOM     31  N   UNL     1      -1.345  -0.266   0.960  0.00  0.00    -0.302 N 
ATOM     32  C   UNL     1      -1.576  -1.539   1.336  0.00  0.00    +0.251 C 
ATOM     33  O   UNL     1      -0.642  -2.286   1.562  0.00  0.00    -0.270 OA
ATOM     34  H   UNL     1      -2.090   0.329   0.780  0.00  0.00    +0.150 HD
BRANCH  32  35
ATOM     35  C   UNL     1      -2.953  -2.025   1.472  0.00  0.00    +0.074 A 
ATOM     36  C   UNL     1      -3.403  -3.284   1.836  0.00  0.00    +0.021 A 
ATOM     37  C   UNL     1      -4.762  -3.472   1.888  0.00  0.00    +0.008 A 
ATOM     38  C   UNL     1      -5.586  -2.438   1.577  0.00  0.00    +0.046 A 
ATOM     39  S   UNL     1      -4.485  -1.152   1.204  0.00  0.00    -0.092 S 
ENDBRANCH  32  35
ENDBRANCH  30  31
ENDBRANCH   2  30
TORSDOF 9
