REMARK  Name = ZINC11997967
REMARK  9 active torsions:
REMARK  status: ('A' for Active; 'I' for Inactive)
REMARK    1  A    between atoms: C_1  and  C_2
REMARK    2  A    between atoms: C_2  and  C_33
REMARK    3  A    between atoms: N_7  and  C_10
REMARK    4  A    between atoms: C_13  and  S_16
REMARK    5  A    between atoms: S_16  and  N_19
REMARK    6  A    between atoms: N_19  and  C_20
REMARK    7  A    between atoms: C_20  and  C_21
REMARK    8  A    between atoms: C_21  and  C_23
REMARK    9  A    between atoms: C_21  and  N_62
REMARK                            x       y       z     vdW  Elec       q    Type
REMARK                         _______ _______ _______ _____ _____    ______ ____
ROOT
ATOM      1  S   UNL     1       2.705   4.182   0.044  0.00  0.00    +0.058 S 
ATOM      2  O   UNL     1       2.470   5.481   0.571  0.00  0.00    -0.153 OA
ATOM      3  O   UNL     1       3.683   3.306   0.588  0.00  0.00    -0.153 OA
ENDROOT
BRANCH   1   7
ATOM      4  C   UNL     1      -1.248   1.979   0.207  0.00  0.00    +0.059 A 
ATOM      5  C   UNL     1      -0.055   1.268   0.195  0.00  0.00    +0.027 A 
ATOM      6  C   UNL     1       1.149   1.943   0.144  0.00  0.00    +0.030 A 
ATOM      7  C   UNL     1       1.167   3.325   0.110  0.00  0.00    +0.105 A 
ATOM      8  C   UNL     1      -0.018   4.036   0.127  0.00  0.00    +0.030 A 
ATOM      9  C   UNL     1      -1.226   3.367   0.179  0.00  0.00    +0.027 A 
BRANCH   4  16
ATOM     10  C   UNL     1      -4.028  -1.961   0.397  0.00  0.00    +0.022 C 
ATOM     11  C   UNL     1      -4.081  -0.507  -0.076  0.00  0.00    +0.064 C 
ATOM     12  C   UNL     1      -4.885   0.344   0.942  0.00  0.00    +0.205 C 
ATOM     13  S   UNL     1      -3.913   1.904   0.847  0.00  0.00    +0.053 S 
ATOM     14  O   UNL     1      -3.618   2.398   2.146  0.00  0.00    -0.155 OA
ATOM     15  O   UNL     1      -4.420   2.756  -0.172  0.00  0.00    -0.155 OA
ATOM     16  N   UNL     1      -2.469   1.298   0.253  0.00  0.00    -0.143 N 
ATOM     17  C   UNL     1      -2.692   0.047  -0.176  0.00  0.00    +0.246 C 
ATOM     18  O   UNL     1      -1.789  -0.623  -0.630  0.00  0.00    -0.273 OA
ATOM     19  C   UNL     1      -4.754  -0.437  -1.449  0.00  0.00    +0.022 C 
ENDBRANCH   4  16
ENDBRANCH   1   7
BRANCH   1  20
ATOM     20  N   UNL     1       3.087   4.382  -1.554  0.00  0.00    -0.191 NA
ATOM     21  H   UNL     1       3.868   3.944  -1.925  0.00  0.00    +0.148 HD
BRANCH  20  22
ATOM     22  C   UNL     1       2.244   5.222  -2.409  0.00  0.00    +0.095 C 
BRANCH  22  23
ATOM     23  C   UNL     1       2.992   5.545  -3.704  0.00  0.00    -0.022 C 
BRANCH  23  24
ATOM     24  C   UNL     1       2.081   6.304  -4.634  0.00  0.00    -0.060 A 
ATOM     25  C   UNL     1       2.587   7.329  -5.412  0.00  0.00    +0.002 A 
ATOM     26  C   UNL     1       1.752   8.023  -6.269  0.00  0.00    +0.000 A 
ATOM     27  C   UNL     1       0.410   7.698  -6.340  0.00  0.00    +0.000 A 
ATOM     28  C   UNL     1      -0.096   6.677  -5.558  0.00  0.00    +0.000 A 
ATOM     29  C   UNL     1       0.739   5.980  -4.705  0.00  0.00    +0.002 A 
ENDBRANCH  23  24
BRANCH  23  34
ATOM     30  C   UNL     1       2.247   3.522  -4.837  0.00  0.00    -0.078 C 
ATOM     31  C   UNL     1       2.865   2.578  -5.899  0.00  0.00    -0.020 C 
ATOM     32  C   UNL     1       3.936   3.467  -6.571  0.00  0.00    -0.020 C 
ATOM     33  C   UNL     1       4.247   4.570  -5.542  0.00  0.00    -0.078 C 
ATOM     34  N   UNL     1       3.420   4.278  -4.370  0.00  0.00    +0.385 N 
ATOM     35  H   UNL     1       3.955   3.711  -3.701  0.00  0.00    -0.081 HD
ENDBRANCH  23  34
ENDBRANCH  22  23
ENDBRANCH  20  22
ENDBRANCH   1  20
TORSDOF 7
