REMARK  Name = ZINC48288054
REMARK  5 active torsions:
REMARK  status: ('A' for Active; 'I' for Inactive)
REMARK    1  A    between atoms: C_6  and  C_7
REMARK    2  A    between atoms: C_7  and  C_9
REMARK    3  A    between atoms: N_12  and  C_15
REMARK    4  A    between atoms: C_15  and  N_16
REMARK    5  A    between atoms: C_19  and  N_26
REMARK                            x       y       z     vdW  Elec       q    Type
REMARK                         _______ _______ _______ _____ _____    ______ ____
ROOT
ATOM      1  C   UNL     1      -2.575  -0.026   0.024  0.00  0.00    +0.057 C 
ATOM      2  C   UNL     1      -2.954   0.317   1.468  0.00  0.00    -0.007 C 
ATOM      3  C   UNL     1      -4.328   0.990   1.483  0.00  0.00    -0.076 C 
ATOM      4  N   UNL     1      -5.329   0.078   0.916  0.00  0.00    +0.392 N 
ATOM      5  C   UNL     1      -5.012  -0.198  -0.490  0.00  0.00    -0.076 C 
ATOM      6  C   UNL     1      -3.663  -0.916  -0.581  0.00  0.00    -0.007 C 
ATOM      7  H   UNL     1      -5.328  -0.787   1.436  0.00  0.00    -0.079 HD
ENDROOT
BRANCH   1   8
ATOM      8  C   UNL     1      -1.258  -0.758   0.009  0.00  0.00    +0.166 C 
ATOM      9  O   UNL     1      -1.239  -1.971   0.002  0.00  0.00    -0.292 OA
BRANCH   8  15
ATOM     10  C   UNL     1      -0.017   1.395   0.010  0.00  0.00    +0.015 A 
ATOM     11  C   UNL     1       1.166   2.099   0.002  0.00  0.00    +0.050 A 
ATOM     12  C   UNL     1       2.383   1.425  -0.013  0.00  0.00    +0.162 A 
ATOM     13  C   UNL     1       2.410   0.031  -0.018  0.00  0.00    +0.163 A 
ATOM     14  C   UNL     1       1.227  -0.682  -0.012  0.00  0.00    +0.060 A 
ATOM     15  C   UNL     1       0.002  -0.004   0.002  0.00  0.00    +0.021 A 
ATOM     16  O   UNL     1       3.593  -0.642  -0.024  0.00  0.00    -0.485 OA
ATOM     17  C   UNL     1       4.755   0.103  -0.405  0.00  0.00    +0.270 C 
ATOM     18  C   UNL     1       4.732   1.443   0.343  0.00  0.00    +0.270 C 
ATOM     19  O   UNL     1       3.538   2.141  -0.024  0.00  0.00    -0.485 OA
ENDBRANCH   8  15
ENDBRANCH   1   8
BRANCH   4  20
ATOM     20  C   UNL     1      -6.658   0.697   1.004  0.00  0.00    +0.054 C 
BRANCH  20  21
ATOM     21  N   UNL     1      -7.673  -0.257   0.549  0.00  0.00    -0.291 N 
ATOM     22  C   UNL     1      -8.130  -0.414  -0.759  0.00  0.00    +0.090 A 
ATOM     23  C   UNL     1      -7.819   0.211  -1.957  0.00  0.00    +0.062 A 
ATOM     24  C   UNL     1      -8.460  -0.174  -3.119  0.00  0.00    +0.128 A 
ATOM     25  C   UNL     1      -9.409  -1.181  -3.089  0.00  0.00    +0.036 A 
ATOM     26  C   UNL     1      -9.724  -1.808  -1.899  0.00  0.00    +0.051 A 
ATOM     27  C   UNL     1      -9.086  -1.428  -0.728  0.00  0.00    +0.157 A 
ATOM     28  O   UNL     1      -9.184  -1.850   0.556  0.00  0.00    -0.407 OA
ATOM     29  C   UNL     1      -8.330  -1.148   1.317  0.00  0.00    +0.420 A 
ATOM     30  O   UNL     1      -8.175  -1.293   2.515  0.00  0.00    -0.223 OA
BRANCH  24  31
ATOM     31  N   UNL     1      -8.130   0.492  -4.399  0.00  0.00    +0.056 N 
ATOM     32  O   UNL     1      -7.301   1.371  -4.426  0.00  0.00    -0.126 OA
ATOM     33  O   UNL     1      -8.689   0.156  -5.417  0.00  0.00    -0.126 OA
ENDBRANCH  24  31
ENDBRANCH  20  21
ENDBRANCH   4  20
TORSDOF 5
