REMARK  Name = ZINC65362085
REMARK  5 active torsions:
REMARK  status: ('A' for Active; 'I' for Inactive)
REMARK    1  A    between atoms: C_1  and  C_2
REMARK    2  A    between atoms: C_2  and  O_3
REMARK    3  A    between atoms: O_3  and  C_4
REMARK    4  A    between atoms: C_7  and  C_10
REMARK    5  A    between atoms: C_18  and  C_32
REMARK                            x       y       z     vdW  Elec       q    Type
REMARK                         _______ _______ _______ _____ _____    ______ ____
ROOT
ATOM      1  C   UNL     1      -2.001  -6.092  -0.011  0.00  0.00    +0.063 C 
ATOM      2  C   UNL     1      -2.796  -6.513  -1.251  0.00  0.00    +0.109 C 
ATOM      3  C   UNL     1      -4.256  -6.196  -1.095  0.00  0.00    +0.219 C 
ATOM      4  O   UNL     1      -4.876  -5.790  -2.055  0.00  0.00    -0.275 OA
ATOM      5  N   UNL     1      -4.900  -6.350   0.082  0.00  0.00    -0.270 N 
ATOM      6  C   UNL     1      -4.138  -6.625   1.216  0.00  0.00    +0.134 A 
ATOM      7  C   UNL     1      -2.771  -6.518   1.213  0.00  0.00    +0.023 A 
ATOM      8  C   UNL     1      -2.310  -6.860   2.475  0.00  0.00    +0.066 A 
ATOM      9  N   UNL     1      -3.346  -7.152   3.228  0.00  0.00    -0.168 NA
ATOM     10  N   UNL     1      -4.514  -7.000   2.457  0.00  0.00    -0.198 N 
ATOM     11  C   UNL     1      -5.827  -7.202   2.897  0.00  0.00    +0.178 A 
ATOM     12  C   UNL     1      -6.080  -8.049   3.975  0.00  0.00    +0.053 A 
ATOM     13  C   UNL     1      -7.394  -8.217   4.375  0.00  0.00    +0.049 A 
ATOM     14  C   UNL     1      -8.384  -7.528   3.673  0.00  0.00    +0.144 A 
ATOM     15  N   UNL     1      -8.049  -6.745   2.660  0.00  0.00    -0.132 NA
ATOM     16  N   UNL     1      -6.829  -6.585   2.294  0.00  0.00    -0.128 NA
ATOM     17  N   UNL     1      -9.721  -7.666   4.037  0.00  0.00    -0.314 N 
ATOM     18  C   UNL     1     -10.867  -7.089   3.320  0.00  0.00    +0.106 C 
ATOM     19  C   UNL     1     -12.140  -7.481   4.100  0.00  0.00    +0.020 C 
ATOM     20  C   UNL     1     -11.597  -7.778   5.523  0.00  0.00    +0.020 C 
ATOM     21  C   UNL     1     -10.222  -8.418   5.201  0.00  0.00    +0.106 C 
ATOM     22  C   UNL     1      -0.868  -6.892   2.910  0.00  0.00    +0.068 C 
ATOM     23  H   UNL     1      -5.866  -6.272   0.136  0.00  0.00    +0.156 HD
ENDROOT
BRANCH   1  27
ATOM     24  C   UNL     1      -1.498  -1.848   0.006  0.00  0.00    +0.121 A 
ATOM     25  C   UNL     1      -0.388  -2.679  -0.003  0.00  0.00    +0.046 A 
ATOM     26  C   UNL     1      -0.553  -4.051  -0.008  0.00  0.00    +0.008 A 
ATOM     27  C   UNL     1      -1.823  -4.596  -0.005  0.00  0.00    -0.039 A 
ATOM     28  C   UNL     1      -2.932  -3.769   0.004  0.00  0.00    +0.008 A 
ATOM     29  C   UNL     1      -2.772  -2.397   0.016  0.00  0.00    +0.046 A 
BRANCH  24  30
ATOM     30  O   UNL     1      -1.339  -0.499   0.012  0.00  0.00    -0.492 OA
BRANCH  30  32
ATOM     31  C   UNL     1      -0.019   1.526   0.010  0.00  0.00    +0.048 C 
ATOM     32  C   UNL     1       0.002  -0.004   0.002  0.00  0.00    +0.225 C 
ENDBRANCH  30  32
ENDBRANCH  24  30
ENDBRANCH   1  27
TORSDOF 3
