REMARK  Name = ZINC49554704
REMARK  3 active torsions:
REMARK  status: ('A' for Active; 'I' for Inactive)
REMARK    1  A    between atoms: C_3  and  N_21
REMARK    2  A    between atoms: C_4  and  S_8
REMARK    3  A    between atoms: S_8  and  N_11
REMARK                            x       y       z     vdW  Elec       q    Type
REMARK                         _______ _______ _______ _____ _____    ______ ____
ROOT
ATOM      1  S   UNL     1       3.932  -0.844  -0.041  0.00  0.00    +0.103 S 
ATOM      2  O   UNL     1       4.736  -0.268   0.980  0.00  0.00    -0.146 OA
ATOM      3  O   UNL     1       3.618  -2.230  -0.072  0.00  0.00    -0.146 OA
ENDROOT
BRANCH   1   4
ATOM      4  N   UNL     1       4.673  -0.494  -1.480  0.00  0.00    -0.103 NA
ATOM      5  C   UNL     1       5.843  -1.013  -1.757  0.00  0.00    +0.192 A 
ATOM      6  N   UNL     1       6.620  -1.864  -1.008  0.00  0.00    -0.336 N 
ATOM      7  C   UNL     1       7.835  -2.292  -1.500  0.00  0.00    +0.028 A 
ATOM      8  C   UNL     1       8.204  -1.847  -2.707  0.00  0.00    +0.012 A 
ATOM      9  S   UNL     1       6.857  -0.809  -3.215  0.00  0.00    -0.053 S 
ATOM     10  C   UNL     1       9.460  -2.157  -3.456  0.00  0.00    +0.044 C 
ATOM     11  C   UNL     1      10.463  -2.792  -2.482  0.00  0.00    +0.006 C 
ATOM     12  C   UNL     1       9.742  -3.879  -1.680  0.00  0.00    +0.006 C 
ATOM     13  C   UNL     1       8.744  -3.237  -0.716  0.00  0.00    +0.054 C 
ATOM     14  H   UNL     1       6.314  -2.163  -0.137  0.00  0.00    +0.168 HD
ENDBRANCH   1   4
BRANCH   1  18
ATOM     15  C   UNL     1      -0.017   1.379   0.010  0.00  0.00    +0.017 A 
ATOM     16  C   UNL     1       1.169   2.087   0.002  0.00  0.00    +0.026 A 
ATOM     17  C   UNL     1       2.381   1.409  -0.013  0.00  0.00    +0.052 A 
ATOM     18  C   UNL     1       2.397   0.020  -0.021  0.00  0.00    +0.134 A 
ATOM     19  C   UNL     1       1.208  -0.682  -0.013  0.00  0.00    +0.046 A 
ATOM     20  C   UNL     1       0.002  -0.004   0.002  0.00  0.00    +0.020 A 
ATOM     21 BR   UNL     1      -1.624  -0.970   0.012  0.00  0.00    -0.050 Br
BRANCH  17  22
ATOM     22  N   UNL     1       3.582   2.123  -0.021  0.00  0.00    -0.356 N 
ATOM     23  H   UNL     1       3.570   3.093  -0.016  0.00  0.00    +0.142 HD
ATOM     24  H   UNL     1       4.428   1.649  -0.032  0.00  0.00    +0.142 HD
ENDBRANCH  17  22
ENDBRANCH   1  18
TORSDOF 3
