REMARK  Name = ZINC20589556
REMARK  9 active torsions:
REMARK  status: ('A' for Active; 'I' for Inactive)
REMARK    1  A    between atoms: C_4  and  C_7
REMARK    2  A    between atoms: C_12  and  C_13
REMARK    3  A    between atoms: C_16  and  O_20
REMARK    4  A    between atoms: C_18  and  O_19
REMARK    5  A    between atoms: O_20  and  C_21
REMARK    6  A    between atoms: C_21  and  C_22
REMARK    7  A    between atoms: C_22  and  N_23
REMARK    8  A    between atoms: N_26  and  C_29
REMARK    9  A    between atoms: C_29  and  C_30
REMARK                            x       y       z     vdW  Elec       q    Type
REMARK                         _______ _______ _______ _____ _____    ______ ____
ROOT
ATOM      1  C   UNL     1       3.093  -2.296   1.761  0.00  0.00    +0.042 A 
ATOM      2  C   UNL     1       3.329  -2.080   3.120  0.00  0.00    +0.017 A 
ATOM      3  C   UNL     1       2.480  -2.623   4.060  0.00  0.00    +0.046 A 
ATOM      4  C   UNL     1       1.389  -3.386   3.660  0.00  0.00    +0.124 A 
ATOM      5  C   UNL     1       1.147  -3.605   2.312  0.00  0.00    +0.091 A 
ATOM      6  C   UNL     1       1.989  -3.060   1.359  0.00  0.00    +0.129 A 
ENDROOT
BRANCH   1  12
ATOM      7  C   UNL     1       4.837  -2.417  -0.108  0.00  0.00    +0.027 A 
ATOM      8  C   UNL     1       5.511  -1.470  -0.900  0.00  0.00    +0.143 A 
ATOM      9  N   UNL     1       5.117  -0.276  -0.545  0.00  0.00    -0.181 NA
ATOM     10  N   UNL     1       4.176  -0.391   0.485  0.00  0.00    -0.276 N 
ATOM     11  H   UNL     1       3.725   0.344   0.929  0.00  0.00    +0.189 HD
ATOM     12  C   UNL     1       4.000  -1.716   0.750  0.00  0.00    +0.077 A 
BRANCH   7  16
ATOM     13  C   UNL     1       5.271  -6.641  -0.315  0.00  0.00    +0.000 A 
ATOM     14  C   UNL     1       4.928  -5.927  -1.449  0.00  0.00    +0.001 A 
ATOM     15  C   UNL     1       4.786  -4.556  -1.388  0.00  0.00    +0.008 A 
ATOM     16  C   UNL     1       4.988  -3.890  -0.180  0.00  0.00    -0.014 A 
ATOM     17  C   UNL     1       5.333  -4.614   0.960  0.00  0.00    +0.008 A 
ATOM     18  C   UNL     1       5.473  -5.985   0.887  0.00  0.00    +0.001 A 
ENDBRANCH   7  16
ENDBRANCH   1  12
BRANCH   6  19
ATOM     19  O   UNL     1       1.749  -3.268   0.039  0.00  0.00    -0.506 OA
ATOM     20  H   UNL     1       2.176  -4.059  -0.318  0.00  0.00    +0.292 HD
ENDBRANCH   6  19
BRANCH   4  21
ATOM     21  O   UNL     1       0.558  -3.919   4.593  0.00  0.00    -0.491 OA
BRANCH  21  22
ATOM     22  C   UNL     1       0.865  -3.654   5.963  0.00  0.00    +0.244 C 
BRANCH  22  23
ATOM     23  C   UNL     1      -0.174  -4.331   6.859  0.00  0.00    +0.125 C 
BRANCH  23  24
ATOM     24  N   UNL     1      -0.073  -5.789   6.712  0.00  0.00    -0.303 NA
ATOM     25  C   UNL     1       1.208  -6.283   7.237  0.00  0.00    +0.066 C 
ATOM     26  C   UNL     1       1.300  -7.794   7.012  0.00  0.00    -0.063 C 
ATOM     27  N   UNL     1       0.182  -8.459   7.694  0.00  0.00    +0.384 N 
ATOM     28  C   UNL     1      -1.090  -7.974   7.142  0.00  0.00    -0.063 C 
ATOM     29  C   UNL     1      -1.201  -6.465   7.368  0.00  0.00    +0.066 C 
ATOM     30  H   UNL     1       0.220  -8.254   8.681  0.00  0.00    -0.081 HD
BRANCH  27  31
ATOM     31  C   UNL     1       0.280  -9.911   7.492  0.00  0.00    -0.043 C 
BRANCH  31  32
ATOM     32  C   UNL     1      -0.793 -10.603   8.292  0.00  0.00    -0.060 A 
ATOM     33  C   UNL     1      -0.540 -10.994   9.594  0.00  0.00    +0.005 A 
ATOM     34  C   UNL     1      -1.522 -11.629  10.331  0.00  0.00    +0.050 A 
ATOM     35  C   UNL     1      -2.763 -11.875   9.767  0.00  0.00    +0.166 A 
ATOM     36  C   UNL     1      -3.018 -11.482   8.455  0.00  0.00    +0.166 A 
ATOM     37  C   UNL     1      -2.031 -10.841   7.724  0.00  0.00    +0.051 A 
ATOM     38  O   UNL     1      -4.298 -11.833   8.135  0.00  0.00    -0.453 OA
ATOM     39  C   UNL     1      -4.687 -12.808   9.121  0.00  0.00    +0.466 C 
ATOM     40  O   UNL     1      -3.883 -12.473  10.268  0.00  0.00    -0.453 OA
ENDBRANCH  31  32
ENDBRANCH  27  31
ENDBRANCH  23  24
ENDBRANCH  22  23
ENDBRANCH  21  22
ENDBRANCH   4  21
TORSDOF 9
