REMARK  Name = ZINC67240828
REMARK  8 active torsions:
REMARK  status: ('A' for Active; 'I' for Inactive)
REMARK    1  A    between atoms: C_1  and  C_2
REMARK    2  A    between atoms: C_2  and  C_3
REMARK    3  A    between atoms: C_6  and  N_9
REMARK    4  A    between atoms: N_18  and  C_21
REMARK    5  A    between atoms: C_21  and  C_22
REMARK    6  A    between atoms: N_24  and  C_25
REMARK    7  A    between atoms: C_27  and  C_32
REMARK    8  A    between atoms: C_30  and  C_31
REMARK                            x       y       z     vdW  Elec       q    Type
REMARK                         _______ _______ _______ _____ _____    ______ ____
ROOT
ATOM      1  N   UNL     1       2.773  -1.952   4.550  0.00  0.00    -0.207 N 
ATOM      2  C   UNL     1       4.075  -2.258   4.560  0.00  0.00    +0.255 C 
ATOM      3  O   UNL     1       4.817  -2.195   3.604  0.00  0.00    -0.272 OA
ATOM      4  C   UNL     1       4.478  -2.694   5.952  0.00  0.00    +0.246 C 
ATOM      5  C   UNL     1       3.157  -2.576   6.759  0.00  0.00    +0.216 C 
ATOM      6  C   UNL     1       2.160  -2.092   5.731  0.00  0.00    +0.251 C 
ATOM      7  O   UNL     1       0.988  -1.867   5.943  0.00  0.00    -0.273 OA
ATOM      8  N   UNL     1       2.874  -3.982   7.101  0.00  0.00    -0.214 N 
ATOM      9  N   UNL     1       3.900  -4.760   6.563  0.00  0.00    -0.082 NA
ATOM     10  N   UNL     1       4.778  -4.131   5.951  0.00  0.00    -0.156 NA
ENDROOT
BRANCH   1  14
ATOM     11  C   UNL     1       0.788  -0.657   1.120  0.00  0.00    -0.048 A 
ATOM     12  C   UNL     1       1.471  -1.859   1.110  0.00  0.00    +0.005 A 
ATOM     13  C   UNL     1       2.130  -2.291   2.244  0.00  0.00    +0.024 A 
ATOM     14  C   UNL     1       2.106  -1.517   3.396  0.00  0.00    +0.044 A 
ATOM     15  C   UNL     1       1.419  -0.310   3.404  0.00  0.00    +0.024 A 
ATOM     16  C   UNL     1       0.766   0.119   2.265  0.00  0.00    +0.005 A 
BRANCH  11  18
ATOM     17  C   UNL     1       1.024   0.647  -0.976  0.00  0.00    +0.009 C 
ATOM     18  C   UNL     1       0.070  -0.189  -0.119  0.00  0.00    +0.032 C 
ENDBRANCH  11  18
ENDBRANCH   1  14
BRANCH   8  19
ATOM     19  C   UNL     1       1.725  -4.473   7.865  0.00  0.00    +0.224 C 
BRANCH  19  20
ATOM     20  C   UNL     1       0.591  -4.785   6.923  0.00  0.00    +0.236 C 
ATOM     21  O   UNL     1       0.729  -4.614   5.731  0.00  0.00    -0.274 OA
ATOM     22  N   UNL     1      -0.577  -5.254   7.407  0.00  0.00    -0.284 N 
ATOM     23  H   UNL     1      -0.707  -5.338   8.364  0.00  0.00    +0.155 HD
BRANCH  22  24
ATOM     24  C   UNL     1      -1.601  -5.620   6.527  0.00  0.00    +0.037 A 
ATOM     25  C   UNL     1      -1.672  -5.046   5.264  0.00  0.00    +0.027 A 
ATOM     26  C   UNL     1      -2.685  -5.409   4.398  0.00  0.00    -0.049 A 
ATOM     27  C   UNL     1      -3.628  -6.343   4.787  0.00  0.00    +0.004 A 
ATOM     28  C   UNL     1      -3.560  -6.916   6.044  0.00  0.00    +0.005 A 
ATOM     29  C   UNL     1      -2.546  -6.562   6.912  0.00  0.00    -0.029 A 
ATOM     30  C   UNL     1      -2.469  -7.192   8.279  0.00  0.00    +0.045 C 
ATOM     31  C   UNL     1      -2.763  -4.786   3.028  0.00  0.00    +0.044 C 
ENDBRANCH  22  24
ENDBRANCH  19  20
ENDBRANCH   8  19
TORSDOF 5
