REMARK  Name = ZINC63494736
REMARK  9 active torsions:
REMARK  status: ('A' for Active; 'I' for Inactive)
REMARK    1  A    between atoms: C_4  and  C_7
REMARK    2  A    between atoms: C_7  and  C_8
REMARK    3  A    between atoms: C_8  and  N_9
REMARK    4  A    between atoms: C_14  and  C_25
REMARK    5  A    between atoms: C_25  and  C_26
REMARK    6  A    between atoms: C_26  and  C_27
REMARK    7  A    between atoms: N_29  and  C_30
REMARK    8  A    between atoms: C_30  and  C_31
REMARK    9  A    between atoms: C_31  and  C_32
REMARK                            x       y       z     vdW  Elec       q    Type
REMARK                         _______ _______ _______ _____ _____    ______ ____
ROOT
ATOM      1  N   UNL     1       5.450  -1.678   1.382  0.00  0.00    -0.265 N 
ATOM      2  C   UNL     1       5.463  -3.140   1.369  0.00  0.00    +0.253 C 
ATOM      3  N   UNL     1       4.319  -3.694   0.622  0.00  0.00    -0.219 NA
ATOM      4  N   UNL     1       4.867  -4.130  -0.673  0.00  0.00    -0.234 NA
ATOM      5  C   UNL     1       6.249  -4.575  -0.331  0.00  0.00    +0.159 C 
ATOM      6  N   UNL     1       6.689  -3.582   0.668  0.00  0.00    -0.281 N 
ATOM      7  C   UNL     1       7.926  -3.031   0.934  0.00  0.00    +0.046 A 
ATOM      8  C   UNL     1       9.121  -3.711   0.837  0.00  0.00    +0.024 A 
ATOM      9  C   UNL     1      10.303  -3.061   1.146  0.00  0.00    +0.002 A 
ATOM     10  C   UNL     1      10.290  -1.736   1.552  0.00  0.00    +0.001 A 
ATOM     11  C   UNL     1       9.103  -1.039   1.648  0.00  0.00    +0.015 A 
ATOM     12  C   UNL     1       7.907  -1.675   1.334  0.00  0.00    +0.058 A 
ATOM     13  C   UNL     1       6.608  -0.981   1.373  0.00  0.00    +0.251 C 
ATOM     14  O   UNL     1       6.578   0.234   1.403  0.00  0.00    -0.270 OA
ATOM     15  H   UNL     1       3.904  -4.469   1.118  0.00  0.00    +0.144 HD
ATOM     16  H   UNL     1       4.886  -3.367  -1.333  0.00  0.00    +0.143 HD
ENDROOT
BRANCH   1  17
ATOM     17  C   UNL     1       4.171  -0.963   1.399  0.00  0.00    +0.116 C 
BRANCH  17  18
ATOM     18  C   UNL     1       3.711  -0.707  -0.038  0.00  0.00    +0.054 C 
BRANCH  18  22
ATOM     19  C   UNL     1      -0.017   1.378   0.010  0.00  0.00    +0.000 A 
ATOM     20  C   UNL     1       1.171   2.086   0.002  0.00  0.00    +0.000 A 
ATOM     21  C   UNL     1       2.377   1.411  -0.013  0.00  0.00    +0.004 A 
ATOM     22  C   UNL     1       2.396   0.029  -0.020  0.00  0.00    -0.046 A 
ATOM     23  C   UNL     1       1.208  -0.679  -0.012  0.00  0.00    +0.004 A 
ATOM     24  C   UNL     1       0.002  -0.004   0.002  0.00  0.00    +0.000 A 
ENDBRANCH  18  22
ENDBRANCH  17  18
ENDBRANCH   1  17
BRANCH   5  25
ATOM     25  C   UNL     1       7.149  -4.543  -1.568  0.00  0.00    +0.049 C 
BRANCH  25  26
ATOM     26  C   UNL     1       6.600  -5.504  -2.624  0.00  0.00    +0.099 C 
BRANCH  26  27
ATOM     27  C   UNL     1       7.487  -5.472  -3.842  0.00  0.00    +0.213 C 
ATOM     28  O   UNL     1       8.462  -4.752  -3.864  0.00  0.00    -0.276 OA
ATOM     29  N   UNL     1       7.196  -6.245  -4.908  0.00  0.00    -0.315 N 
ATOM     30  H   UNL     1       6.415  -6.821  -4.891  0.00  0.00    +0.149 HD
BRANCH  29  31
ATOM     31  C   UNL     1       8.057  -6.214  -6.092  0.00  0.00    +0.108 C 
BRANCH  31  32
ATOM     32  C   UNL     1       7.508  -7.175  -7.148  0.00  0.00    +0.052 C 
BRANCH  32  33
ATOM     33  C   UNL     1       8.395  -7.143  -8.366  0.00  0.00    -0.040 C 
ATOM     34  C   UNL     1       9.411  -7.988  -8.655  0.00  0.00    -0.001 A 
ATOM     35  C   UNL     1       9.973  -9.145  -7.947  0.00  0.00    +0.010 A 
ATOM     36  C   UNL     1      11.016  -9.807  -8.499  0.00  0.00    +0.001 A 
ATOM     37  C   UNL     1      11.571  -9.418  -9.725  0.00  0.00    +0.002 A 
ATOM     38  C   UNL     1      11.108  -8.366 -10.434  0.00  0.00    +0.026 A 
ATOM     39  C   UNL     1      10.014  -7.598  -9.949  0.00  0.00    +0.043 A 
ATOM     40  N   UNL     1       9.396  -6.552 -10.441  0.00  0.00    -0.380 N 
ATOM     41  C   UNL     1       8.324  -6.164  -9.517  0.00  0.00    +0.144 C 
ATOM     42  H   UNL     1       9.608  -6.111 -11.278  0.00  0.00    +0.160 HD
ENDBRANCH  32  33
ENDBRANCH  31  32
ENDBRANCH  29  31
ENDBRANCH  26  27
ENDBRANCH  25  26
ENDBRANCH   5  25
TORSDOF 9
