REMARK  Name = ZINC14981833
REMARK  7 active torsions:
REMARK  status: ('A' for Active; 'I' for Inactive)
REMARK    1  A    between atoms: C_1  and  O_2
REMARK    2  A    between atoms: O_2  and  C_3
REMARK    3  A    between atoms: C_3  and  C_5
REMARK    4  A    between atoms: C_9  and  S_10
REMARK    5  A    between atoms: S_10  and  N_13
REMARK    6  A    between atoms: N_13  and  C_14
REMARK    7  A    between atoms: C_25  and  C_27
REMARK                            x       y       z     vdW  Elec       q    Type
REMARK                         _______ _______ _______ _____ _____    ______ ____
ROOT
ATOM      1  C   UNL     1      -0.093   1.400   2.968  0.00  0.00    +0.096 A 
ATOM      2  C   UNL     1      -0.359   1.684   1.570  0.00  0.00    -0.018 A 
ATOM      3  C   UNL     1      -1.346   2.583   1.347  0.00  0.00    +0.013 A 
ATOM      4  S   UNL     1      -1.905   3.047   2.961  0.00  0.00    -0.071 S 
ATOM      5  C   UNL     1      -0.848   2.059   3.914  0.00  0.00    +0.160 A 
ATOM      6  C   UNL     1      -1.840   3.065   0.017  0.00  0.00    +0.150 C 
ATOM      7  N   UNL     1      -0.903   2.558  -1.004  0.00  0.00    -0.296 N 
ATOM      8  C   UNL     1      -0.431   1.172  -0.865  0.00  0.00    +0.113 C 
ATOM      9  C   UNL     1       0.396   1.038   0.416  0.00  0.00    +0.056 C 
ATOM     10  C   UNL     1      -0.495   3.336  -2.026  0.00  0.00    +0.219 C 
ATOM     11  O   UNL     1      -0.978   4.438  -2.180  0.00  0.00    -0.275 OA
ENDROOT
BRANCH  10  12
ATOM     12  C   UNL     1       0.561   2.836  -2.979  0.00  0.00    +0.079 C 
ATOM     13  C   UNL     1       1.116   4.010  -3.795  0.00  0.00    +0.017 C 
ATOM     14  C   UNL     1       2.303   3.508  -4.620  0.00  0.00    +0.027 C 
ATOM     15  C   UNL     1       1.929   2.253  -5.353  0.00  0.00    -0.031 C 
ATOM     16  C   UNL     1       0.905   1.518  -5.057  0.00  0.00    -0.030 C 
ATOM     17  C   UNL     1      -0.055   1.820  -3.942  0.00  0.00    +0.039 C 
ENDBRANCH  10  12
BRANCH   5  18
ATOM     18  S   UNL     1      -0.759   1.929   5.669  0.00  0.00    +0.079 S 
ATOM     19  O   UNL     1      -1.073   0.581   5.993  0.00  0.00    -0.149 OA
ATOM     20  O   UNL     1       0.462   2.542   6.061  0.00  0.00    -0.149 OA
BRANCH  18  21
ATOM     21  N   UNL     1      -1.978   2.861   6.292  0.00  0.00    -0.216 N 
ATOM     22  H   UNL     1      -2.686   2.449   6.812  0.00  0.00    +0.174 HD
BRANCH  21  23
ATOM     23  C   UNL     1      -1.987   4.240   6.068  0.00  0.00    +0.048 A 
ATOM     24  C   UNL     1      -0.823   4.980   6.238  0.00  0.00    +0.026 A 
ATOM     25  C   UNL     1      -0.833   6.342   6.010  0.00  0.00    +0.022 A 
ATOM     26  C   UNL     1      -2.003   6.972   5.625  0.00  0.00    +0.041 A 
ATOM     27  C   UNL     1      -3.165   6.238   5.461  0.00  0.00    +0.022 A 
ATOM     28  C   UNL     1      -3.160   4.875   5.681  0.00  0.00    +0.026 A 
ATOM     29 CL   UNL     1      -2.014   8.685   5.347  0.00  0.00    -0.084 Cl
ENDBRANCH  21  23
ENDBRANCH  18  21
ENDBRANCH   5  18
BRANCH   1  30
ATOM     30  C   UNL     1       0.949   0.440   3.362  0.00  0.00    +0.342 C 
ATOM     31  O   UNL     1       0.671  -0.735   3.502  0.00  0.00    -0.245 OA
BRANCH  30  33
ATOM     32  C   UNL     1       3.188  -0.139   3.955  0.00  0.00    +0.280 C 
ATOM     33  O   UNL     1       2.212   0.863   3.568  0.00  0.00    -0.464 OA
ENDBRANCH  30  33
ENDBRANCH   1  30
TORSDOF 6
