REMARK  Name = ZINC38704682
REMARK  7 active torsions:
REMARK  status: ('A' for Active; 'I' for Inactive)
REMARK    1  A    between atoms: C_1  and  C_2
REMARK    2  A    between atoms: C_4  and  C_34
REMARK    3  A    between atoms: C_5  and  C_9
REMARK    4  A    between atoms: C_6  and  O_8
REMARK    5  A    between atoms: N_17  and  C_27
REMARK    6  A    between atoms: C_18  and  C_20
REMARK    7  A    between atoms: C_27  and  C_28
REMARK                            x       y       z     vdW  Elec       q    Type
REMARK                         _______ _______ _______ _____ _____    ______ ____
ROOT
ATOM      1  C   UNL     1       0.217  -3.922  -0.026  0.00  0.00    +0.102 A 
ATOM      2  C   UNL     1       0.209  -4.759   1.095  0.00  0.00    +0.035 A 
ATOM      3  C   UNL     1       0.528  -6.019   0.626  0.00  0.00    +0.126 A 
ATOM      4  N   UNL     1       0.709  -5.888  -0.721  0.00  0.00    -0.272 N 
ATOM      5  H   UNL     1       0.943  -6.610  -1.325  0.00  0.00    +0.189 HD
ATOM      6  N   UNL     1       0.517  -4.666  -1.072  0.00  0.00    -0.173 NA
ATOM      7  C   UNL     1       0.537  -6.950   1.760  0.00  0.00    +0.266 C 
ATOM      8  O   UNL     1       0.782  -8.139   1.680  0.00  0.00    -0.268 OA
ATOM      9  N   UNL     1       0.234  -6.303   2.900  0.00  0.00    -0.283 N 
ATOM     10  C   UNL     1       0.007  -4.888   2.580  0.00  0.00    +0.141 C 
ENDROOT
BRANCH   1  15
ATOM     11  C   UNL     1      -0.884   1.735  -0.072  0.00  0.00    +0.044 C 
ATOM     12  C   UNL     1      -0.598   0.255  -0.058  0.00  0.00    -0.047 A 
ATOM     13  C   UNL     1       0.539  -0.233  -0.678  0.00  0.00    +0.007 A 
ATOM     14  C   UNL     1       0.808  -1.587  -0.670  0.00  0.00    -0.037 A 
ATOM     15  C   UNL     1      -0.068  -2.465  -0.037  0.00  0.00    +0.047 A 
ATOM     16  C   UNL     1      -1.215  -1.970   0.588  0.00  0.00    +0.127 A 
ATOM     17  C   UNL     1      -1.470  -0.608   0.578  0.00  0.00    +0.049 A 
ATOM     18  C   UNL     1       2.047  -2.113  -1.346  0.00  0.00    +0.044 C 
BRANCH  16  19
ATOM     19  O   UNL     1      -2.075  -2.820   1.208  0.00  0.00    -0.506 OA
ATOM     20  H   UNL     1      -1.925  -2.905   2.160  0.00  0.00    +0.292 HD
ENDBRANCH  16  19
ENDBRANCH   1  15
BRANCH  10  21
ATOM     21  C   UNL     1       0.998  -4.023   3.316  0.00  0.00    -0.022 A 
ATOM     22  C   UNL     1       2.351  -4.158   3.067  0.00  0.00    +0.007 A 
ATOM     23  C   UNL     1       3.260  -3.365   3.742  0.00  0.00    +0.020 A 
ATOM     24  C   UNL     1       2.816  -2.436   4.665  0.00  0.00    +0.041 A 
ATOM     25  C   UNL     1       1.461  -2.301   4.913  0.00  0.00    +0.020 A 
ATOM     26  C   UNL     1       0.552  -3.090   4.234  0.00  0.00    +0.007 A 
ATOM     27 CL   UNL     1       3.957  -1.440   5.513  0.00  0.00    -0.084 Cl
ENDBRANCH  10  21
BRANCH   9  28
ATOM     28  C   UNL     1       0.147  -6.907   4.232  0.00  0.00    +0.140 C 
BRANCH  28  29
ATOM     29  C   UNL     1       1.546  -6.993   4.846  0.00  0.00    +0.136 C 
ATOM     30  C   UNL     1       1.476  -7.715   6.208  0.00  0.00    +0.035 C 
ATOM     31  C   UNL     1       2.484  -6.902   7.065  0.00  0.00    +0.031 C 
ATOM     32  C   UNL     1       2.281  -5.479   6.485  0.00  0.00    +0.160 C 
ATOM     33  O   UNL     1       2.056  -5.675   5.078  0.00  0.00    -0.375 OA
ENDBRANCH  28  29
ENDBRANCH   9  28
TORSDOF 5
