REMARK  Name = ZINC39942545
REMARK  9 active torsions:
REMARK  status: ('A' for Active; 'I' for Inactive)
REMARK    1  A    between atoms: C_1  and  C_2
REMARK    2  A    between atoms: C_2  and  C_3
REMARK    3  A    between atoms: C_3  and  N_4
REMARK    4  A    between atoms: N_4  and  C_5
REMARK    5  A    between atoms: C_13  and  C_15
REMARK    6  A    between atoms: C_15  and  S_16
REMARK    7  A    between atoms: S_16  and  C_17
REMARK    8  A    between atoms: C_21  and  C_26
REMARK    9  A    between atoms: N_22  and  C_23
REMARK                            x       y       z     vdW  Elec       q    Type
REMARK                         _______ _______ _______ _____ _____    ______ ____
ROOT
ATOM      1  C   UNL     1       5.417  -1.958   1.312  0.00  0.00    +0.237 C 
ATOM      2  N   UNL     1       4.799  -1.112   2.346  0.00  0.00    -0.237 N 
ATOM      3  N   UNL     1       4.981   0.214   1.937  0.00  0.00    -0.169 NA
ATOM      4  C   UNL     1       5.624   0.276   0.801  0.00  0.00    +0.147 C 
ATOM      5  N   UNL     1       5.944  -1.001   0.325  0.00  0.00    -0.282 N 
ATOM      6  H   UNL     1       4.352  -1.415   3.153  0.00  0.00    +0.171 HD
ENDROOT
BRANCH   4   7
ATOM      7  C   UNL     1       5.952   1.470   0.142  0.00  0.00    +0.022 C 
ATOM      8  C   UNL     1       5.580   2.765   0.507  0.00  0.00    +0.006 A 
ATOM      9  C   UNL     1       4.811   3.270   1.577  0.00  0.00    +0.010 A 
ATOM     10  C   UNL     1       4.607   4.608   1.687  0.00  0.00    +0.001 A 
ATOM     11  C   UNL     1       5.143   5.508   0.763  0.00  0.00    +0.002 A 
ATOM     12  C   UNL     1       5.891   5.093  -0.288  0.00  0.00    +0.026 A 
ATOM     13  C   UNL     1       6.147   3.709  -0.470  0.00  0.00    +0.043 A 
ATOM     14  N   UNL     1       6.832   3.062  -1.393  0.00  0.00    -0.380 N 
ATOM     15  C   UNL     1       6.789   1.625  -1.109  0.00  0.00    +0.152 C 
ATOM     16  H   UNL     1       7.296   3.474  -2.139  0.00  0.00    +0.160 HD
ENDBRANCH   4   7
BRANCH   5  17
ATOM     17  C   UNL     1       6.660  -1.324  -0.912  0.00  0.00    +0.078 C 
ATOM     18  C   UNL     1       6.956  -2.799  -1.192  0.00  0.00    +0.024 C 
ATOM     19  C   UNL     1       5.886  -2.066  -2.003  0.00  0.00    +0.024 C 
ENDBRANCH   5  17
BRANCH   1  20
ATOM     20  S   UNL     1       4.176  -3.038   0.550  0.00  0.00    -0.109 S 
BRANCH  20  21
ATOM     21  C   UNL     1       2.918  -1.889  -0.074  0.00  0.00    +0.168 C 
BRANCH  21  23
ATOM     22  N   UNL     1       0.764  -2.018  -1.283  0.00  0.00    -0.296 N 
ATOM     23  C   UNL     1       1.813  -2.668  -0.741  0.00  0.00    +0.226 C 
ATOM     24  O   UNL     1       1.869  -3.878  -0.790  0.00  0.00    -0.275 OA
BRANCH  22  25
ATOM     25  C   UNL     1      -0.311  -2.775  -1.931  0.00  0.00    +0.098 C 
ATOM     26  C   UNL     1       0.272  -3.596  -3.093  0.00  0.00    +0.046 C 
ATOM     27  C   UNL     1      -0.808  -4.615  -3.556  0.00  0.00    +0.168 C 
ATOM     28  S   UNL     1      -1.483  -5.153  -1.928  0.00  0.00    -0.029 S 
ATOM     29  O   UNL     1      -0.780  -6.309  -1.495  0.00  0.00    -0.174 OA
ATOM     30  O   UNL     1      -2.902  -5.184  -2.004  0.00  0.00    -0.174 OA
ATOM     31  C   UNL     1      -0.969  -3.720  -0.897  0.00  0.00    +0.188 C 
ENDBRANCH  22  25
BRANCH  22  32
ATOM     32  C   UNL     1       0.697  -0.556  -1.223  0.00  0.00    +0.108 C 
BRANCH  32  34
ATOM     33  C   UNL     1      -0.097   1.397   0.117  0.00  0.00    +0.005 C 
ATOM     34  C   UNL     1      -0.027  -0.130   0.056  0.00  0.00    +0.016 C 
ENDBRANCH  32  34
ENDBRANCH  22  32
ENDBRANCH  21  23
ENDBRANCH  20  21
ENDBRANCH   1  20
TORSDOF 8
