REMARK  Name = ZINC21529236
REMARK  7 active torsions:
REMARK  status: ('A' for Active; 'I' for Inactive)
REMARK    1  A    between atoms: C_1  and  C_2
REMARK    2  A    between atoms: C_7  and  C_9
REMARK    3  A    between atoms: C_7  and  C_10
REMARK    4  A    between atoms: N_13  and  C_17
REMARK    5  A    between atoms: C_17  and  C_18
REMARK    6  A    between atoms: N_27  and  C_30
REMARK    7  A    between atoms: C_30  and  C_31
REMARK                            x       y       z     vdW  Elec       q    Type
REMARK                         _______ _______ _______ _____ _____    ______ ____
ROOT
ATOM      1  C   UNL     1      -4.972  -3.399  -2.310  0.00  0.00    +0.237 C 
ATOM      2  O   UNL     1      -4.651  -2.256  -2.558  0.00  0.00    -0.274 OA
ATOM      3  N   UNL     1      -6.127  -3.895  -2.795  0.00  0.00    -0.263 N 
ATOM      4  C   UNL     1      -6.951  -3.097  -3.580  0.00  0.00    +0.165 A 
ATOM      5  N   UNL     1      -6.765  -1.849  -3.955  0.00  0.00    -0.229 NA
ATOM      6  C   UNL     1      -7.645  -1.208  -4.712  0.00  0.00    +0.050 A 
ATOM      7  C   UNL     1      -8.740  -1.935  -5.063  0.00  0.00    -0.002 A 
ATOM      8  S   UNL     1      -8.427  -3.496  -4.291  0.00  0.00    -0.059 S 
ATOM      9  C   UNL     1      -9.887  -1.480  -5.896  0.00  0.00    -0.033 C 
ATOM     10  N   UNL     1      -9.840  -0.007  -5.981  0.00  0.00    +0.386 N 
ATOM     11  C   UNL     1      -8.489   0.421  -6.366  0.00  0.00    -0.072 C 
ATOM     12  C   UNL     1      -7.515   0.229  -5.199  0.00  0.00    +0.038 C 
ATOM     13  H   UNL     1      -6.383  -4.809  -2.596  0.00  0.00    +0.157 HD
ATOM     14  H   UNL     1     -10.075   0.389  -5.083  0.00  0.00    -0.081 HD
ENDROOT
BRANCH   1  15
ATOM     15  C   UNL     1      -4.079  -4.264  -1.458  0.00  0.00    +0.214 C 
BRANCH  15  27
ATOM     16  C   UNL     1      -0.159   1.471  -0.048  0.00  0.00    +0.007 C 
ATOM     17  C   UNL     1      -0.085  -0.057  -0.027  0.00  0.00    -0.011 C 
ATOM     18  C   UNL     1      -1.501  -0.636   0.015  0.00  0.00    +0.038 C 
ATOM     19  C   UNL     1      -1.428  -2.159   0.057  0.00  0.00    +0.113 C 
ATOM     20  C   UNL     1      -0.642  -2.627   1.276  0.00  0.00    +0.041 C 
ATOM     21  C   UNL     1       0.772  -2.041   1.230  0.00  0.00    -0.032 C 
ATOM     22  C   UNL     1       0.688  -0.513   1.212  0.00  0.00    +0.009 C 
ATOM     23  C   UNL     1       1.553  -2.495   2.465  0.00  0.00    +0.011 C 
ATOM     24  C   UNL     1       1.485  -2.527  -0.033  0.00  0.00    +0.011 C 
ATOM     25  C   UNL     1      -2.817  -2.754   0.064  0.00  0.00    +0.247 C 
ATOM     26  O   UNL     1      -3.679  -2.595   0.901  0.00  0.00    -0.273 OA
ATOM     27  N   UNL     1      -2.895  -3.499  -1.058  0.00  0.00    -0.215 N 
ATOM     28  C   UNL     1      -1.756  -3.453  -1.761  0.00  0.00    +0.310 C 
ATOM     29  O   UNL     1      -1.585  -4.042  -2.810  0.00  0.00    -0.252 OA
ATOM     30  N   UNL     1      -0.823  -2.679  -1.176  0.00  0.00    -0.285 N 
ATOM     31  H   UNL     1       0.073  -2.500  -1.504  0.00  0.00    +0.151 HD
ENDBRANCH  15  27
ENDBRANCH   1  15
BRANCH  10  32
ATOM     32  C   UNL     1     -10.806   0.457  -6.986  0.00  0.00    -0.043 C 
BRANCH  32  33
ATOM     33  C   UNL     1     -12.204   0.128  -6.530  0.00  0.00    -0.064 A 
ATOM     34  C   UNL     1     -12.774  -1.085  -6.869  0.00  0.00    +0.002 A 
ATOM     35  C   UNL     1     -14.057  -1.387  -6.450  0.00  0.00    +0.000 A 
ATOM     36  C   UNL     1     -14.768  -0.476  -5.691  0.00  0.00    +0.000 A 
ATOM     37  C   UNL     1     -14.197   0.736  -5.351  0.00  0.00    +0.000 A 
ATOM     38  C   UNL     1     -12.913   1.036  -5.766  0.00  0.00    +0.002 A 
ENDBRANCH  32  33
ENDBRANCH  10  32
TORSDOF 4
