REMARK  Name = ZINC02775745
REMARK  16 active torsions:
REMARK  status: ('A' for Active; 'I' for Inactive)
REMARK    1  A    between atoms: C_1  and  C_2
REMARK    2  A    between atoms: C_2  and  C_3
REMARK    3  A    between atoms: C_2  and  C_4
REMARK    4  A    between atoms: C_2  and  C_5
REMARK    5  A    between atoms: C_7  and  C_16
REMARK    6  A    between atoms: C_9  and  C_12
REMARK    7  A    between atoms: C_10  and  O_11
REMARK    8  A    between atoms: C_12  and  C_13
REMARK    9  A    between atoms: C_12  and  C_14
REMARK   10  A    between atoms: C_12  and  C_15
REMARK   11  A    between atoms: C_16  and  C_17
REMARK   12  A    between atoms: C_17  and  C_18
REMARK   13  A    between atoms: N_20  and  N_21
REMARK   14  A    between atoms: C_22  and  C_23
REMARK   15  A    between atoms: C_26  and  C_28
REMARK   16  A    between atoms: C_30  and  N_35
REMARK                            x       y       z     vdW  Elec       q    Type
REMARK                         _______ _______ _______ _____ _____    ______ ____
ROOT
ATOM      1  C   UNL     1       5.508  -0.951   3.098  0.00  0.00    +0.232 C 
ATOM      2  O   UNL     1       5.411  -2.153   3.036  0.00  0.00    -0.274 OA
ATOM      3  N   UNL     1       6.721  -0.368   3.026  0.00  0.00    -0.207 N 
ATOM      4  H   UNL     1       6.799   0.598   3.076  0.00  0.00    +0.177 HD
ENDROOT
BRANCH   3   5
ATOM      5  N   UNL     1       7.779  -1.094   2.892  0.00  0.00    -0.185 NA
ATOM      6  C   UNL     1       8.973  -0.520   2.822  0.00  0.00    +0.176 C 
BRANCH   6   7
ATOM      7  C   UNL     1      10.112  -1.302   2.677  0.00  0.00    +0.148 A 
ATOM      8  C   UNL     1      11.491  -0.804   2.580  0.00  0.00    +0.051 A 
ATOM      9  C   UNL     1      12.289  -1.895   2.453  0.00  0.00    +0.050 A 
ATOM     10  C   UNL     1      11.413  -3.065   2.461  0.00  0.00    +0.137 A 
ATOM     11  O   UNL     1      10.141  -2.648   2.596  0.00  0.00    -0.454 OA
BRANCH  10  12
ATOM     12  C   UNL     1      11.832  -4.412   2.346  0.00  0.00    +0.038 A 
ATOM     13  C   UNL     1      11.379  -5.378   3.266  0.00  0.00    +0.045 A 
ATOM     14  C   UNL     1      11.788  -6.674   3.147  0.00  0.00    +0.127 A 
ATOM     15  C   UNL     1      12.649  -7.050   2.125  0.00  0.00    +0.034 A 
ATOM     16  C   UNL     1      13.105  -6.114   1.210  0.00  0.00    +0.023 A 
ATOM     17  C   UNL     1      12.702  -4.799   1.306  0.00  0.00    +0.052 A 
ATOM     18 CL   UNL     1      13.267  -3.627   0.157  0.00  0.00    -0.083 Cl
BRANCH  14  19
ATOM     19  N   UNL     1      11.310  -7.687   4.115  0.00  0.00    +0.056 N 
ATOM     20  O   UNL     1      10.493  -7.336   5.086  0.00  0.00    -0.126 OA
ATOM     21  O   UNL     1      11.702  -8.940   4.005  0.00  0.00    -0.126 OA
ENDBRANCH  14  19
ENDBRANCH  10  12
ENDBRANCH   6   7
ENDBRANCH   3   5
BRANCH   1  22
ATOM     22  C   UNL     1       4.272  -0.102   3.255  0.00  0.00    +0.102 C 
BRANCH  22  23
ATOM     23  C   UNL     1       3.038  -1.004   3.310  0.00  0.00    +0.044 C 
BRANCH  23  26
ATOM     24  C   UNL     1       0.000   1.080   2.488  0.00  0.00    -0.000 A 
ATOM     25  C   UNL     1       1.133   0.302   2.347  0.00  0.00    +0.011 A 
ATOM     26  C   UNL     1       1.802  -0.156   3.466  0.00  0.00    -0.046 A 
ATOM     27  C   UNL     1       1.340   0.163   4.730  0.00  0.00    +0.011 A 
ATOM     28  C   UNL     1       0.208   0.942   4.876  0.00  0.00    -0.000 A 
ATOM     29  C   UNL     1      -0.463   1.406   3.754  0.00  0.00    +0.124 A 
BRANCH  24  31
ATOM     30  C   UNL     1      -0.013   1.086   0.008  0.00  0.00    +0.015 C 
ATOM     31  C   UNL     1      -0.729   1.579   1.267  0.00  0.00    -0.009 C 
ATOM     32  C   UNL     1      -0.750   3.109   1.275  0.00  0.00    +0.015 C 
ATOM     33  C   UNL     1      -2.164   1.050   1.278  0.00  0.00    +0.015 C 
ENDBRANCH  24  31
BRANCH  28  34
ATOM     34  C   UNL     1      -0.295   1.290   6.253  0.00  0.00    -0.009 C 
ATOM     35  C   UNL     1       0.622   0.662   7.305  0.00  0.00    +0.015 C 
ATOM     36  C   UNL     1      -0.301   2.810   6.425  0.00  0.00    +0.015 C 
ATOM     37  C   UNL     1      -1.716   0.751   6.429  0.00  0.00    +0.015 C 
ENDBRANCH  28  34
BRANCH  29  38
ATOM     38  O   UNL     1      -1.573   2.176   3.896  0.00  0.00    -0.506 OA
ATOM     39  H   UNL     1      -2.398   1.673   3.940  0.00  0.00    +0.292 HD
ENDBRANCH  29  38
ENDBRANCH  23  26
ENDBRANCH  22  23
ENDBRANCH   1  22
TORSDOF 10
