REMARK  Name = ZINC63349873
REMARK  9 active torsions:
REMARK  status: ('A' for Active; 'I' for Inactive)
REMARK    1  A    between atoms: C_1  and  O_2
REMARK    2  A    between atoms: O_2  and  C_3
REMARK    3  A    between atoms: C_10  and  C_18
REMARK    4  A    between atoms: C_21  and  O_38
REMARK    5  A    between atoms: C_22  and  C_24
REMARK    6  A    between atoms: C_24  and  O_25
REMARK    7  A    between atoms: O_25  and  C_26
REMARK    8  A    between atoms: C_31  and  C_32
REMARK    9  A    between atoms: O_38  and  C_39
REMARK                            x       y       z     vdW  Elec       q    Type
REMARK                         _______ _______ _______ _____ _____    ______ ____
ROOT
ATOM      1  C   UNL     1       2.454  -4.994  -6.069  0.00  0.00    -0.028 A 
ATOM      2  C   UNL     1       3.453  -5.950  -6.045  0.00  0.00    +0.009 A 
ATOM      3  C   UNL     1       4.256  -6.140  -7.152  0.00  0.00    +0.046 A 
ATOM      4  C   UNL     1       4.059  -5.372  -8.291  0.00  0.00    +0.126 A 
ATOM      5  C   UNL     1       3.056  -4.414  -8.313  0.00  0.00    +0.032 A 
ATOM      6  C   UNL     1       2.252  -4.231  -7.204  0.00  0.00    +0.015 A 
ENDROOT
BRANCH   1  13
ATOM      7  C   UNL     1       0.606  -0.607  -1.056  0.00  0.00    +0.121 A 
ATOM      8  C   UNL     1       1.172   0.195  -2.062  0.00  0.00    +0.047 A 
ATOM      9  C   UNL     1       1.794  -0.326  -3.141  0.00  0.00    +0.029 A 
ATOM     10  C   UNL     1       1.895  -1.780  -3.294  0.00  0.00    +0.043 A 
ATOM     11  N   UNL     1       2.416  -2.527  -4.240  0.00  0.00    -0.376 N 
ATOM     12  C   UNL     1       2.317  -3.924  -3.831  0.00  0.00    +0.128 C 
ATOM     13  C   UNL     1       1.580  -4.788  -4.859  0.00  0.00    +0.111 C 
ATOM     14  N   UNL     1       1.276  -6.088  -4.239  0.00  0.00    -0.307 NA
ATOM     15  C   UNL     1       0.306  -5.993  -3.144  0.00  0.00    +0.086 C 
ATOM     16  C   UNL     1       0.903  -5.185  -1.977  0.00  0.00    +0.048 C 
ATOM     17  C   UNL     1       1.472  -3.914  -2.567  0.00  0.00    -0.035 C 
ATOM     18  C   UNL     1       1.289  -2.630  -2.238  0.00  0.00    +0.003 A 
ATOM     19  C   UNL     1       0.646  -1.960  -1.101  0.00  0.00    +0.055 A 
ATOM     20  H   UNL     1       0.976  -6.757  -4.931  0.00  0.00    +0.123 HD
ATOM     21  H   UNL     1       2.801  -2.205  -5.070  0.00  0.00    +0.160 HD
BRANCH   7  23
ATOM     22  C   UNL     1      -0.017   1.425   0.010  0.00  0.00    +0.277 C 
ATOM     23  O   UNL     1       0.002  -0.004   0.002  0.00  0.00    -0.495 OA
ENDBRANCH   7  23
ENDBRANCH   1  13
BRANCH   4  24
ATOM     24  O   UNL     1       4.848  -5.556  -9.382  0.00  0.00    -0.495 OA
ATOM     25  C   UNL     1       5.861  -6.560  -9.287  0.00  0.00    +0.277 C 
ENDBRANCH   4  24
BRANCH   5  26
ATOM     26  C   UNL     1       2.839  -3.577  -9.548  0.00  0.00    +0.268 C 
BRANCH  26  27
ATOM     27  O   UNL     1       1.757  -2.671  -9.325  0.00  0.00    -0.487 OA
BRANCH  27  28
ATOM     28  C   UNL     1       1.430  -1.838 -10.348  0.00  0.00    +0.124 A 
ATOM     29  C   UNL     1       2.131  -1.896 -11.543  0.00  0.00    +0.046 A 
ATOM     30  C   UNL     1       1.796  -1.049 -12.582  0.00  0.00    +0.004 A 
ATOM     31  C   UNL     1       0.762  -0.143 -12.430  0.00  0.00    +0.001 A 
ATOM     32  C   UNL     1       0.062  -0.083 -11.240  0.00  0.00    +0.007 A 
ATOM     33  C   UNL     1       0.390  -0.932 -10.200  0.00  0.00    -0.003 A 
BRANCH  33  34
ATOM     34  C   UNL     1      -0.378  -0.870  -8.905  0.00  0.00    +0.023 C 
ATOM     35  C   UNL     1      -1.854  -1.174  -9.172  0.00  0.00    +0.008 C 
ATOM     36  C   UNL     1      -2.634  -1.111  -7.857  0.00  0.00    +0.001 C 
ATOM     37  C   UNL     1      -2.502   0.289  -7.253  0.00  0.00    +0.000 C 
ATOM     38  C   UNL     1      -1.027   0.593  -6.986  0.00  0.00    +0.001 C 
ATOM     39  C   UNL     1      -0.247   0.530  -8.301  0.00  0.00    +0.008 C 
ENDBRANCH  33  34
ENDBRANCH  27  28
ENDBRANCH  26  27
ENDBRANCH   5  26
TORSDOF 7
