REMARK  Name = ZINC20883562
REMARK  10 active torsions:
REMARK  status: ('A' for Active; 'I' for Inactive)
REMARK    1  A    between atoms: C_1  and  C_2
REMARK    2  A    between atoms: C_2  and  O_3
REMARK    3  A    between atoms: O_3  and  C_4
REMARK    4  A    between atoms: C_6  and  C_14
REMARK    5  A    between atoms: C_9  and  O_10
REMARK    6  A    between atoms: O_10  and  C_11
REMARK    7  A    between atoms: C_11  and  C_13
REMARK    8  A    between atoms: C_19  and  C_24
REMARK    9  A    between atoms: C_29  and  O_30
REMARK   10  A    between atoms: O_30  and  C_31
REMARK                            x       y       z     vdW  Elec       q    Type
REMARK                         _______ _______ _______ _____ _____    ______ ____
ROOT
ATOM      1  C   UNL     1       3.116  -5.797  -0.012  0.00  0.00    +0.136 C 
ATOM      2  C   UNL     1       1.865  -4.964  -0.165  0.00  0.00    +0.036 C 
ATOM      3  C   UNL     1       1.333  -4.546  -1.324  0.00  0.00    +0.017 C 
ATOM      4  C   UNL     1       0.046  -3.736  -1.330  0.00  0.00    +0.060 C 
ATOM      5  C   UNL     1      -0.013  -2.850  -0.087  0.00  0.00    +0.035 C 
ATOM      6  C   UNL     1       0.025  -3.767   1.142  0.00  0.00    +0.088 C 
ATOM      7  C   UNL     1       1.256  -4.619   1.065  0.00  0.00    +0.163 C 
ATOM      8  O   UNL     1       1.750  -5.028   2.098  0.00  0.00    -0.292 OA
ATOM      9  N   UNL     1       1.853  -4.785  -2.555  0.00  0.00    -0.316 N 
ATOM     10  C   UNL     1       2.300  -6.025  -3.000  0.00  0.00    +0.052 A 
ATOM     11  C   UNL     1       1.720  -6.680  -4.072  0.00  0.00    +0.025 A 
ATOM     12  C   UNL     1       2.263  -7.875  -4.512  0.00  0.00    +0.002 A 
ATOM     13  C   UNL     1       3.374  -8.408  -3.883  0.00  0.00    +0.002 A 
ATOM     14  C   UNL     1       3.941  -7.765  -2.797  0.00  0.00    +0.025 A 
ATOM     15  C   UNL     1       3.388  -6.577  -2.342  0.00  0.00    +0.049 A 
ATOM     16  N   UNL     1       3.898  -5.924  -1.223  0.00  0.00    -0.331 N 
ATOM     17  H   UNL     1       1.946  -3.965  -3.282  0.00  0.00    +0.152 HD
ATOM     18  H   UNL     1       4.912  -5.500  -1.270  0.00  0.00    +0.147 HD
ENDROOT
BRANCH   1  21
ATOM     19  C   UNL     1       2.768  -8.909   2.102  0.00  0.00    +0.163 A 
ATOM     20  C   UNL     1       3.132  -7.640   1.680  0.00  0.00    +0.055 A 
ATOM     21  C   UNL     1       2.719  -7.177   0.445  0.00  0.00    -0.019 A 
ATOM     22  C   UNL     1       1.939  -7.976  -0.370  0.00  0.00    +0.009 A 
ATOM     23  C   UNL     1       1.577  -9.245   0.041  0.00  0.00    +0.050 A 
ATOM     24  C   UNL     1       1.987  -9.715   1.279  0.00  0.00    +0.173 A 
BRANCH  19  25
ATOM     25  O   UNL     1       3.173  -9.366   3.317  0.00  0.00    -0.489 OA
BRANCH  25  27
ATOM     26  C   UNL     1       4.329  -9.167   5.430  0.00  0.00    +0.048 C 
ATOM     27  C   UNL     1       3.973  -8.484   4.108  0.00  0.00    +0.226 C 
ENDBRANCH  25  27
ENDBRANCH  19  25
BRANCH  24  28
ATOM     28  O   UNL     1       1.628 -10.961   1.688  0.00  0.00    -0.422 OA
BRANCH  28  29
ATOM     29  C   UNL     1       0.587 -11.050   2.530  0.00  0.00    +0.309 C 
ATOM     30  O   UNL     1      -0.039 -10.058   2.824  0.00  0.00    -0.251 OA
ATOM     31  C   UNL     1       0.198 -12.385   3.110  0.00  0.00    +0.136 C 
ENDBRANCH  28  29
ENDBRANCH  24  28
ENDBRANCH   1  21
BRANCH   5  32
ATOM     32  C   UNL     1      -1.292  -2.052  -0.089  0.00  0.00    -0.002 A 
ATOM     33  C   UNL     1      -2.512  -2.701  -0.089  0.00  0.00    +0.007 A 
ATOM     34  C   UNL     1      -3.685  -1.970  -0.092  0.00  0.00    +0.001 A 
ATOM     35  C   UNL     1      -3.641  -0.588  -0.093  0.00  0.00    +0.004 A 
ATOM     36  C   UNL     1      -2.424   0.066  -0.088  0.00  0.00    +0.046 A 
ATOM     37  C   UNL     1      -1.245  -0.666  -0.091  0.00  0.00    +0.124 A 
BRANCH  37  38
ATOM     38  O   UNL     1      -0.047  -0.025  -0.091  0.00  0.00    -0.495 OA
ATOM     39  C   UNL     1      -0.075   1.403  -0.093  0.00  0.00    +0.277 C 
ENDBRANCH  37  38
ENDBRANCH   5  32
TORSDOF 7
