REMARK  Name = ZINC13405447
REMARK  7 active torsions:
REMARK  status: ('A' for Active; 'I' for Inactive)
REMARK    1  A    between atoms: C_2  and  C_3
REMARK    2  A    between atoms: C_3  and  N_4
REMARK    3  A    between atoms: C_5  and  C_22
REMARK    4  A    between atoms: C_8  and  S_9
REMARK    5  A    between atoms: S_9  and  C_10
REMARK    6  A    between atoms: C_10  and  C_11
REMARK    7  A    between atoms: C_18  and  C_20
REMARK                            x       y       z     vdW  Elec       q    Type
REMARK                         _______ _______ _______ _____ _____    ______ ____
ROOT
ATOM      1  N   UNL     1       7.689  -2.934   0.756  0.00  0.00    -0.302 N 
ATOM      2  C   UNL     1       7.941  -1.938  -0.146  0.00  0.00    +0.139 A 
ATOM      3  N   UNL     1       7.542  -2.360  -1.312  0.00  0.00    -0.133 NA
ATOM      4  N   UNL     1       7.055  -3.545  -1.209  0.00  0.00    -0.122 NA
ATOM      5  C   UNL     1       7.117  -3.946   0.039  0.00  0.00    +0.192 A 
ENDROOT
BRANCH   2   6
ATOM      6  C   UNL     1       8.569  -0.601   0.153  0.00  0.00    +0.079 C 
ATOM      7  C   UNL     1       9.850  -0.431  -0.680  0.00  0.00    +0.035 C 
ATOM      8  C   UNL     1      10.322   1.042  -0.628  0.00  0.00    +0.166 C 
ATOM      9  S   UNL     1       8.751   1.961  -0.366  0.00  0.00    -0.030 S 
ATOM     10  O   UNL     1       8.447   2.701  -1.540  0.00  0.00    -0.174 OA
ATOM     11  O   UNL     1       8.809   2.628   0.887  0.00  0.00    -0.174 OA
ATOM     12  C   UNL     1       7.585   0.540  -0.234  0.00  0.00    +0.177 C 
ENDBRANCH   2   6
BRANCH   1  13
ATOM     13  C   UNL     1       7.972  -2.919   2.193  0.00  0.00    +0.152 C 
BRANCH  13  15
ATOM     14  C   UNL     1       6.230  -3.059   3.898  0.00  0.00    +0.005 C 
ATOM     15  C   UNL     1       6.782  -2.365   2.934  0.00  0.00    -0.013 C 
ENDBRANCH  13  15
ENDBRANCH   1  13
BRANCH   5  16
ATOM     16  S   UNL     1       6.572  -5.498   0.669  0.00  0.00    -0.077 S 
BRANCH  16  17
ATOM     17  C   UNL     1       5.961  -6.259  -0.855  0.00  0.00    +0.173 C 
BRANCH  17  18
ATOM     18  C   UNL     1       5.430  -7.636  -0.551  0.00  0.00    +0.227 C 
ATOM     19  O   UNL     1       5.461  -8.061   0.585  0.00  0.00    -0.275 OA
ATOM     20  N   UNL     1       4.920  -8.396  -1.541  0.00  0.00    -0.287 N 
ATOM     21  C   UNL     1       4.787  -7.860  -2.902  0.00  0.00    +0.108 C 
ATOM     22  C   UNL     1       3.344  -8.041  -3.370  0.00  0.00    +0.019 C 
ATOM     23  C   UNL     1       2.946  -9.512  -3.231  0.00  0.00    +0.004 C 
ATOM     24  C   UNL     1       3.035  -9.930  -1.762  0.00  0.00    +0.034 C 
ATOM     25  C   UNL     1       4.480  -9.773  -1.278  0.00  0.00    +0.189 C 
BRANCH  25  26
ATOM     26  C   UNL     1       4.550 -10.051   0.202  0.00  0.00    +0.376 C 
ATOM     27  O   UNL     1       3.811  -9.471   0.962  0.00  0.00    -0.244 OA
ATOM     28  O   UNL     1       5.434 -10.944   0.676  0.00  0.00    -0.244 OA
ENDBRANCH  25  26
ENDBRANCH  17  18
ENDBRANCH  16  17
ENDBRANCH   5  16
TORSDOF 7
