REMARK  Name = ZINC26506994
REMARK  5 active torsions:
REMARK  status: ('A' for Active; 'I' for Inactive)
REMARK    1  A    between atoms: C_3  and  N_30
REMARK    2  A    between atoms: C_6  and  C_7
REMARK    3  A    between atoms: N_9  and  C_17
REMARK    4  A    between atoms: C_17  and  C_18
REMARK    5  A    between atoms: C_18  and  C_20
REMARK                            x       y       z     vdW  Elec       q    Type
REMARK                         _______ _______ _______ _____ _____    ______ ____
ROOT
ATOM      1  C   UNL     1      -1.271  -0.766   0.011  0.00  0.00    +0.162 A 
ATOM      2  N   UNL     1      -2.439  -0.296   0.385  0.00  0.00    -0.151 NA
ATOM      3  N   UNL     1      -3.362  -1.343   0.233  0.00  0.00    -0.243 N 
ATOM      4  C   UNL     1      -2.672  -2.396  -0.240  0.00  0.00    +0.108 A 
ATOM      5  N   UNL     1      -1.417  -2.047  -0.369  0.00  0.00    -0.313 N 
ATOM      6  C   UNL     1      -0.324  -2.909  -0.836  0.00  0.00    +0.125 C 
ATOM      7  C   UNL     1      -0.870  -3.978  -1.782  0.00  0.00    +0.022 C 
ATOM      8  C   UNL     1      -1.280  -5.214  -0.980  0.00  0.00    +0.002 C 
ATOM      9  C   UNL     1      -2.375  -4.843   0.017  0.00  0.00    +0.008 C 
ATOM     10  C   UNL     1      -3.251  -3.746  -0.578  0.00  0.00    +0.074 C 
ENDROOT
BRANCH   1  16
ATOM     11  C   UNL     1      -0.009   1.373  -0.211  0.00  0.00    +0.014 A 
ATOM     12  C   UNL     1       1.179   2.077  -0.217  0.00  0.00    +0.033 A 
ATOM     13  C   UNL     1       2.377   1.418  -0.013  0.00  0.00    +0.126 A 
ATOM     14  C   UNL     1       2.394   0.051   0.198  0.00  0.00    +0.033 A 
ATOM     15  C   UNL     1       1.213  -0.663   0.206  0.00  0.00    +0.014 A 
ATOM     16  C   UNL     1       0.002  -0.004   0.002  0.00  0.00    +0.019 A 
BRANCH  13  17
ATOM     17  N   UNL     1       3.648   2.178  -0.022  0.00  0.00    +0.056 N 
ATOM     18  O   UNL     1       3.636   3.372  -0.208  0.00  0.00    -0.126 OA
ATOM     19  O   UNL     1       4.697   1.604   0.155  0.00  0.00    -0.126 OA
ENDBRANCH  13  17
ENDBRANCH   1  16
BRANCH   3  20
ATOM     20  C   UNL     1      -4.796  -1.297   0.530  0.00  0.00    +0.225 C 
BRANCH  20  21
ATOM     21  C   UNL     1      -5.550  -0.857  -0.699  0.00  0.00    +0.184 C 
ATOM     22  O   UNL     1      -4.949  -0.606  -1.722  0.00  0.00    -0.290 OA
BRANCH  21  23
ATOM     23  C   UNL     1      -7.013  -0.732  -0.657  0.00  0.00    +0.023 A 
ATOM     24  C   UNL     1      -7.709  -1.015   0.524  0.00  0.00    +0.015 A 
ATOM     25  C   UNL     1      -9.080  -0.898   0.559  0.00  0.00    +0.050 A 
ATOM     26  C   UNL     1      -9.778  -0.498  -0.576  0.00  0.00    +0.162 A 
ATOM     27  C   UNL     1      -9.092  -0.212  -1.754  0.00  0.00    +0.163 A 
ATOM     28  C   UNL     1      -7.716  -0.323  -1.796  0.00  0.00    +0.060 A 
ATOM     29  O   UNL     1      -9.762   0.188  -2.870  0.00  0.00    -0.485 OA
ATOM     30  C   UNL     1     -11.171  -0.063  -2.899  0.00  0.00    +0.270 C 
ATOM     31  C   UNL     1     -11.764   0.369  -1.552  0.00  0.00    +0.270 C 
ATOM     32  O   UNL     1     -11.133  -0.393  -0.518  0.00  0.00    -0.485 OA
ENDBRANCH  21  23
ENDBRANCH  20  21
ENDBRANCH   3  20
TORSDOF 5
