REMARK  Name = ZINC59383194
REMARK  3 active torsions:
REMARK  status: ('A' for Active; 'I' for Inactive)
REMARK    1  A    between atoms: C_6  and  C_7
REMARK    2  A    between atoms: C_10  and  C_12
REMARK    3  A    between atoms: N_13  and  N_14
REMARK                            x       y       z     vdW  Elec       q    Type
REMARK                         _______ _______ _______ _____ _____    ______ ____
ROOT
ATOM      1  C   UNL     1      -1.264  -0.763   0.011  0.00  0.00    +0.136 A 
ATOM      2  C   UNL     1      -1.377  -2.122   0.010  0.00  0.00    +0.050 A 
ATOM      3  C   UNL     1      -2.745  -2.421   0.020  0.00  0.00    +0.051 A 
ATOM      4  C   UNL     1      -3.416  -1.218   0.026  0.00  0.00    +0.148 A 
ATOM      5  O   UNL     1      -2.499  -0.228   0.026  0.00  0.00    -0.454 OA
ENDROOT
BRANCH   1  11
ATOM      6  C   UNL     1      -0.017   1.393   0.010  0.00  0.00    +0.013 A 
ATOM      7  C   UNL     1       1.170   2.095   0.002  0.00  0.00    +0.021 A 
ATOM      8  C   UNL     1       2.378   1.419  -0.013  0.00  0.00    +0.041 A 
ATOM      9  C   UNL     1       2.404   0.035  -0.022  0.00  0.00    +0.021 A 
ATOM     10  C   UNL     1       1.224  -0.680  -0.014  0.00  0.00    +0.013 A 
ATOM     11  C   UNL     1       0.002  -0.004   0.002  0.00  0.00    +0.017 A 
ATOM     12 CL   UNL     1       3.868   2.311  -0.024  0.00  0.00    -0.084 Cl
ENDBRANCH   1  11
BRANCH   4  13
ATOM     13  C   UNL     1      -4.869  -1.044   0.036  0.00  0.00    +0.179 C 
ATOM     14  N   UNL     1      -5.381   0.154   0.041  0.00  0.00    -0.169 NA
BRANCH  14  15
ATOM     15  N   UNL     1      -6.772   0.321   0.051  0.00  0.00    -0.207 N 
ATOM     16  C   UNL     1      -7.685  -0.348  -0.708  0.00  0.00    +0.248 A 
ATOM     17  N   UNL     1      -8.865   0.111  -0.386  0.00  0.00    -0.136 NA
ATOM     18  N   UNL     1      -8.750   1.017   0.519  0.00  0.00    -0.136 NA
ATOM     19  C   UNL     1      -7.491   1.181   0.826  0.00  0.00    +0.248 A 
ENDBRANCH  14  15
ENDBRANCH   4  13
TORSDOF 3
