REMARK  Name = ZINC42441162
REMARK  3 active torsions:
REMARK  status: ('A' for Active; 'I' for Inactive)
REMARK    1  A    between atoms: C_1  and  C_2
REMARK    2  A    between atoms: C_6  and  C_20
REMARK    3  A    between atoms: C_11  and  N_17
REMARK                            x       y       z     vdW  Elec       q    Type
REMARK                         _______ _______ _______ _____ _____    ______ ____
ROOT
ATOM      1  C   UNL     1      -0.058   1.499   0.046  0.00  0.00    +0.028 C 
ATOM      2  C   UNL     1      -0.032  -0.031   0.067  0.00  0.00    +0.072 C 
ATOM      3  C   UNL     1      -1.466  -0.567   0.141  0.00  0.00    +0.023 C 
ATOM      4  C   UNL     1      -2.091  -0.157   1.476  0.00  0.00    +0.016 C 
ATOM      5  C   UNL     1      -1.287  -0.767   2.626  0.00  0.00    +0.092 C 
ATOM      6  C   UNL     1       0.148  -0.233   2.580  0.00  0.00    +0.119 C 
ATOM      7  N   UNL     1       0.711  -0.495   1.246  0.00  0.00    -0.310 N 
ATOM      8  C   UNL     1       1.918  -1.170   1.101  0.00  0.00    +0.152 A 
ATOM      9  C   UNL     1       1.928  -2.560   1.042  0.00  0.00    +0.167 A 
ATOM     10  C   UNL     1       3.135  -3.219   0.898  0.00  0.00    +0.053 A 
ATOM     11  C   UNL     1       4.298  -2.463   0.818  0.00  0.00    +0.038 A 
ATOM     12  C   UNL     1       4.214  -1.086   0.883  0.00  0.00    +0.128 A 
ATOM     13  N   UNL     1       3.047  -0.484   1.016  0.00  0.00    -0.237 NA
ATOM     14 BR   UNL     1       5.977  -3.310   0.621  0.00  0.00    -0.049 Br
ENDROOT
BRANCH   5  15
ATOM     15  C   UNL     1      -1.923  -0.391   3.939  0.00  0.00    +0.215 C 
ATOM     16  O   UNL     1      -1.291   0.240   4.760  0.00  0.00    -0.276 OA
ATOM     17  N   UNL     1      -3.193  -0.755   4.202  0.00  0.00    -0.329 N 
ATOM     18  H   UNL     1      -3.699  -1.259   3.546  0.00  0.00    +0.145 HD
ATOM     19  H   UNL     1      -3.603  -0.512   5.047  0.00  0.00    +0.145 HD
ENDBRANCH   5  15
BRANCH   9  20
ATOM     20  N   UNL     1       0.663  -3.324   1.133  0.00  0.00    +0.060 N 
ATOM     21  O   UNL     1       0.688  -4.531   1.194  0.00  0.00    -0.126 OA
ATOM     22  O   UNL     1      -0.396  -2.740   1.146  0.00  0.00    -0.126 OA
ENDBRANCH   9  20
TORSDOF 2
