REMARK  Name = ZINC23718541
REMARK  10 active torsions:
REMARK  status: ('A' for Active; 'I' for Inactive)
REMARK    1  A    between atoms: C_1  and  C_2
REMARK    2  A    between atoms: C_2  and  C_3
REMARK    3  A    between atoms: C_2  and  C_4
REMARK    4  A    between atoms: C_4  and  N_5
REMARK    5  A    between atoms: C_9  and  C_12
REMARK    6  A    between atoms: C_12  and  N_13
REMARK    7  A    between atoms: C_14  and  C_16
REMARK    8  A    between atoms: C_16  and  N_17
REMARK    9  A    between atoms: N_20  and  S_23
REMARK   10  A    between atoms: S_23  and  C_26
REMARK                            x       y       z     vdW  Elec       q    Type
REMARK                         _______ _______ _______ _____ _____    ______ ____
ROOT
ATOM      1  N   UNL     1      -3.374   4.482  -4.331  0.00  0.00    +0.387 N 
ATOM      2  C   UNL     1      -3.630   3.226  -3.613  0.00  0.00    -0.061 C 
ATOM      3  C   UNL     1      -4.310   3.536  -2.275  0.00  0.00    +0.091 C 
ATOM      4  N   UNL     1      -3.484   4.511  -1.547  0.00  0.00    -0.180 NA
ATOM      5  C   UNL     1      -3.076   5.738  -2.247  0.00  0.00    +0.091 C 
ATOM      6  C   UNL     1      -2.441   5.339  -3.588  0.00  0.00    -0.061 C 
ATOM      7  H   UNL     1      -4.329   5.021  -4.414  0.00  0.00    -0.081 HD
ENDROOT
BRANCH   4   8
ATOM      8  S   UNL     1      -3.032   4.238   0.023  0.00  0.00    +0.061 S 
ATOM      9  O   UNL     1      -3.987   3.340   0.571  0.00  0.00    -0.153 OA
ATOM     10  O   UNL     1      -2.766   5.511   0.596  0.00  0.00    -0.153 OA
BRANCH   8  11
ATOM     11  C   UNL     1      -1.497   3.374  -0.020  0.00  0.00    +0.106 A 
ATOM     12  C   UNL     1      -0.305   4.076  -0.025  0.00  0.00    +0.029 A 
ATOM     13  C   UNL     1       0.892   3.393  -0.060  0.00  0.00    +0.006 A 
ATOM     14  C   UNL     1       0.912   2.005  -0.091  0.00  0.00    -0.044 A 
ATOM     15  C   UNL     1      -0.274   1.305  -0.083  0.00  0.00    -0.042 A 
ATOM     16  C   UNL     1      -1.479   1.995  -0.044  0.00  0.00    +0.032 A 
ATOM     17  C   UNL     1      -0.328  -0.200  -0.108  0.00  0.00    +0.035 C 
ATOM     18  C   UNL     1       1.007  -0.777  -0.573  0.00  0.00    +0.005 C 
ATOM     19  C   UNL     1       2.126  -0.145   0.264  0.00  0.00    +0.005 C 
ATOM     20  C   UNL     1       2.255   1.323  -0.136  0.00  0.00    +0.035 C 
ENDBRANCH   8  11
ENDBRANCH   4   8
BRANCH   1  21
ATOM     21  C   UNL     1      -2.881   4.220  -5.690  0.00  0.00    +0.019 C 
BRANCH  21  23
ATOM     22  N   UNL     1      -2.445   5.510  -7.755  0.00  0.00    -0.314 N 
ATOM     23  C   UNL     1      -2.864   5.507  -6.474  0.00  0.00    +0.197 C 
ATOM     24  O   UNL     1      -3.226   6.540  -5.952  0.00  0.00    -0.278 OA
ATOM     25  H   UNL     1      -2.117   4.573  -8.229  0.00  0.00    +0.149 HD
BRANCH  22  26
ATOM     26  C   UNL     1      -2.428   6.761  -8.517  0.00  0.00    +0.137 C 
BRANCH  26  31
ATOM     27  N   UNL     1      -1.359   7.538 -12.073  0.00  0.00    -0.297 NA
ATOM     28  C   UNL     1      -2.332   6.668 -12.749  0.00  0.00    +0.112 C 
ATOM     29  C   UNL     1      -2.463   5.356 -11.971  0.00  0.00    +0.175 C 
ATOM     30  O   UNL     1      -2.841   5.644 -10.622  0.00  0.00    -0.372 OA
ATOM     31  C   UNL     1      -1.915   6.489  -9.933  0.00  0.00    +0.149 C 
ATOM     32  C   UNL     1      -1.778   7.812 -10.691  0.00  0.00    +0.117 C 
BRANCH  27  33
ATOM     33  C   UNL     1      -1.161   8.787 -12.820  0.00  0.00    +0.087 C 
BRANCH  33  35
ATOM     34  C   UNL     1      -0.673   9.763 -15.068  0.00  0.00    +0.008 C 
ATOM     35  C   UNL     1      -0.821   8.463 -14.276  0.00  0.00    -0.003 C 
ATOM     36  C   UNL     1       0.492   7.679 -14.330  0.00  0.00    +0.008 C 
ENDBRANCH  33  35
ENDBRANCH  27  33
ENDBRANCH  26  31
ENDBRANCH  22  26
ENDBRANCH  21  23
ENDBRANCH   1  21
TORSDOF 8
