REMARK  Name = ZINC03059467
REMARK  4 active torsions:
REMARK  status: ('A' for Active; 'I' for Inactive)
REMARK    1  A    between atoms: C_4  and  C_7
REMARK    2  A    between atoms: C_14  and  C_19
REMARK    3  A    between atoms: N_21  and  C_22
REMARK    4  A    between atoms: C_22  and  C_23
REMARK                            x       y       z     vdW  Elec       q    Type
REMARK                         _______ _______ _______ _____ _____    ______ ____
ROOT
ATOM      1  C   UNL     1      -1.177   2.176   0.019  0.00  0.00    +0.028 C 
ATOM      2  C   UNL     1      -0.021   1.487  -0.127  0.00  0.00    +0.075 C 
ATOM      3  C   UNL     1       0.018   0.008  -0.095  0.00  0.00    +0.255 C 
ATOM      4  O   UNL     1      -0.822  -0.604   0.537  0.00  0.00    -0.269 OA
ATOM      5  N   UNL     1       0.969  -0.661  -0.754  0.00  0.00    -0.280 N 
ATOM      6  C   UNL     1       1.936  -0.118  -1.591  0.00  0.00    +0.048 A 
ATOM      7  C   UNL     1       2.557  -0.954  -2.511  0.00  0.00    +0.037 A 
ATOM      8  C   UNL     1       3.533  -0.452  -3.373  0.00  0.00    +0.039 A 
ATOM      9  C   UNL     1       3.893   0.898  -3.317  0.00  0.00    +0.014 A 
ATOM     10  C   UNL     1       3.280   1.729  -2.406  0.00  0.00    +0.017 A 
ATOM     11  C   UNL     1       2.310   1.229  -1.547  0.00  0.00    +0.034 A 
ATOM     12  S   UNL     1       1.534   2.304  -0.377  0.00  0.00    -0.082 S 
ATOM     13  H   UNL     1       1.037  -1.755  -0.659  0.00  0.00    +0.155 HD
ENDROOT
BRANCH   1  17
ATOM     14  C   UNL     1      -1.097   6.403   0.362  0.00  0.00    +0.000 A 
ATOM     15  C   UNL     1      -2.177   5.781  -0.241  0.00  0.00    +0.001 A 
ATOM     16  C   UNL     1      -2.211   4.408  -0.356  0.00  0.00    +0.008 A 
ATOM     17  C   UNL     1      -1.149   3.642   0.138  0.00  0.00    -0.024 A 
ATOM     18  C   UNL     1      -0.065   4.277   0.752  0.00  0.00    +0.008 A 
ATOM     19  C   UNL     1      -0.043   5.652   0.854  0.00  0.00    +0.001 A 
ENDBRANCH   1  17
BRANCH   8  20
ATOM     20  C   UNL     1       4.185  -1.347  -4.346  0.00  0.00    +0.244 C 
ATOM     21  O   UNL     1       3.873  -2.522  -4.397  0.00  0.00    -0.270 OA
ATOM     22  N   UNL     1       5.128  -0.864  -5.179  0.00  0.00    -0.307 N 
ATOM     23  H   UNL     1       5.411   0.198  -5.134  0.00  0.00    +0.149 HD
BRANCH  22  24
ATOM     24  C   UNL     1       5.777  -1.754  -6.146  0.00  0.00    +0.139 C 
BRANCH  24  25
ATOM     25  C   UNL     1       6.784  -0.973  -6.951  0.00  0.00    -0.030 A 
ATOM     26  C   UNL     1       6.401  -0.360  -8.129  0.00  0.00    +0.006 A 
ATOM     27  C   UNL     1       7.322   0.361  -8.865  0.00  0.00    +0.020 A 
ATOM     28  C   UNL     1       8.631   0.460  -8.427  0.00  0.00    +0.041 A 
ATOM     29  C   UNL     1       9.015  -0.158  -7.251  0.00  0.00    +0.020 A 
ATOM     30  C   UNL     1       8.091  -0.875  -6.513  0.00  0.00    +0.006 A 
ATOM     31 CL   UNL     1       9.791   1.360  -9.354  0.00  0.00    -0.084 Cl
ENDBRANCH  24  25
ENDBRANCH  22  24
ENDBRANCH   8  20
TORSDOF 4
