REMARK  Name = ZINC19889313
REMARK  4 active torsions:
REMARK  status: ('A' for Active; 'I' for Inactive)
REMARK    1  A    between atoms: C_1  and  C_2
REMARK    2  A    between atoms: C_4  and  C_27
REMARK    3  A    between atoms: C_15  and  C_18
REMARK    4  A    between atoms: C_21  and  N_24
REMARK                            x       y       z     vdW  Elec       q    Type
REMARK                         _______ _______ _______ _____ _____    ______ ____
ROOT
ATOM      1  C   UNL     1       7.023   7.792  -0.004  0.00  0.00    +0.044 C 
ATOM      2  C   UNL     1       6.118   6.608  -0.225  0.00  0.00    -0.050 A 
ATOM      3  C   UNL     1       5.199   6.617  -1.258  0.00  0.00    +0.008 A 
ATOM      4  C   UNL     1       4.367   5.538  -1.456  0.00  0.00    -0.029 A 
ATOM      5  C   UNL     1       4.434   4.421  -0.622  0.00  0.00    +0.034 A 
ATOM      6  C   UNL     1       5.376   4.419   0.410  0.00  0.00    -0.019 A 
ATOM      7  C   UNL     1       6.202   5.505   0.605  0.00  0.00    +0.009 A 
ATOM      8  C   UNL     1       5.452   3.219   1.272  0.00  0.00    +0.049 C 
ATOM      9  C   UNL     1       5.895   3.277   2.687  0.00  0.00    -0.023 C 
ATOM     10  C   UNL     1       5.253   2.335   3.369  0.00  0.00    -0.030 C 
ATOM     11  C   UNL     1       4.287   1.588   2.445  0.00  0.00    +0.033 C 
ATOM     12  C   UNL     1       4.002   2.651   1.379  0.00  0.00    +0.029 C 
ATOM     13  C   UNL     1       3.672   2.182  -0.023  0.00  0.00    +0.105 C 
ATOM     14  N   UNL     1       3.534   3.384  -0.861  0.00  0.00    -0.336 N 
ATOM     15  C   UNL     1       3.372   5.564  -2.588  0.00  0.00    +0.045 C 
ATOM     16  H   UNL     1       2.750   3.432  -1.630  0.00  0.00    +0.147 HD
ENDROOT
BRANCH  13  17
ATOM     17  C   UNL     1       2.377   1.411  -0.015  0.00  0.00    -0.027 A 
ATOM     18  C   UNL     1       1.171   2.086   0.002  0.00  0.00    +0.008 A 
ATOM     19  C   UNL     1      -0.017   1.378   0.010  0.00  0.00    +0.033 A 
ATOM     20  C   UNL     1       0.002  -0.004   0.002  0.00  0.00    +0.126 A 
ATOM     21  C   UNL     1       1.208  -0.679  -0.013  0.00  0.00    +0.033 A 
ATOM     22  C   UNL     1       2.396   0.029  -0.022  0.00  0.00    +0.008 A 
BRANCH  20  23
ATOM     23  N   UNL     1      -1.270  -0.761   0.011  0.00  0.00    +0.056 N 
ATOM     24  O   UNL     1      -2.333  -0.167   0.024  0.00  0.00    -0.126 OA
ATOM     25  O   UNL     1      -1.253  -1.979   0.004  0.00  0.00    -0.126 OA
ENDBRANCH  20  23
ENDBRANCH  13  17
TORSDOF 2
