REMARK  Name = ZINC39760845
REMARK  10 active torsions:
REMARK  status: ('A' for Active; 'I' for Inactive)
REMARK    1  A    between atoms: C_1  and  C_2
REMARK    2  A    between atoms: C_6  and  C_8
REMARK    3  A    between atoms: N_10  and  C_11
REMARK    4  A    between atoms: C_11  and  C_12
REMARK    5  A    between atoms: C_15  and  S_23
REMARK    6  A    between atoms: N_16  and  C_17
REMARK    7  A    between atoms: S_23  and  C_24
REMARK    8  A    between atoms: C_24  and  C_26
REMARK    9  A    between atoms: C_24  and  C_27
REMARK   10  A    between atoms: N_29  and  C_30
REMARK                            x       y       z     vdW  Elec       q    Type
REMARK                         _______ _______ _______ _____ _____    ______ ____
ROOT
ATOM      1  C   UNL     1       0.088  -6.423   3.437  0.00  0.00    +0.156 A 
ATOM      2  N   UNL     1      -0.950  -7.197   3.292  0.00  0.00    -0.132 NA
ATOM      3  N   UNL     1      -0.573  -8.402   3.050  0.00  0.00    -0.122 NA
ATOM      4  C   UNL     1       0.739  -8.464   3.027  0.00  0.00    +0.197 A 
ATOM      5  N   UNL     1       1.203  -7.200   3.268  0.00  0.00    -0.273 N 
ENDROOT
BRANCH   5   6
ATOM      6  C   UNL     1       2.542  -6.787   3.332  0.00  0.00    +0.050 A 
ATOM      7  C   UNL     1       3.039  -5.891   2.396  0.00  0.00    +0.026 A 
ATOM      8  C   UNL     1       4.358  -5.486   2.461  0.00  0.00    +0.002 A 
ATOM      9  C   UNL     1       5.183  -5.973   3.458  0.00  0.00    +0.000 A 
ATOM     10  C   UNL     1       4.691  -6.865   4.392  0.00  0.00    +0.002 A 
ATOM     11  C   UNL     1       3.371  -7.269   4.335  0.00  0.00    +0.026 A 
ENDBRANCH   5   6
BRANCH   1  12
ATOM     12  C   UNL     1       0.066  -4.945   3.730  0.00  0.00    +0.181 C 
BRANCH  12  15
ATOM     13  C   UNL     1       0.017  -2.850   2.486  0.00  0.00    +0.244 C 
ATOM     14  O   UNL     1       0.017  -2.255   3.546  0.00  0.00    -0.270 OA
ATOM     15  N   UNL     1       0.040  -4.198   2.470  0.00  0.00    -0.304 N 
ATOM     16  H   UNL     1       0.039  -4.673   1.625  0.00  0.00    +0.149 HD
BRANCH  13  22
ATOM     17  C   UNL     1      -0.085   1.504   0.050  0.00  0.00    +0.044 C 
ATOM     18  C   UNL     1      -0.059  -0.003   0.038  0.00  0.00    -0.050 A 
ATOM     19  C   UNL     1      -0.059  -0.684  -1.167  0.00  0.00    +0.003 A 
ATOM     20  C   UNL     1      -0.035  -2.067  -1.187  0.00  0.00    +0.001 A 
ATOM     21  C   UNL     1      -0.010  -2.777  -0.004  0.00  0.00    +0.013 A 
ATOM     22  C   UNL     1      -0.009  -2.096   1.215  0.00  0.00    +0.037 A 
ATOM     23  C   UNL     1      -0.028  -0.700   1.228  0.00  0.00    +0.016 A 
ENDBRANCH  13  22
ENDBRANCH  12  15
ENDBRANCH   1  12
BRANCH   4  24
ATOM     24  S   UNL     1       1.715  -9.901   2.734  0.00  0.00    -0.073 S 
BRANCH  24  25
ATOM     25  C   UNL     1       0.492 -11.218   2.482  0.00  0.00    +0.137 C 
ATOM     26  C   UNL     1      -0.291 -11.441   3.777  0.00  0.00    +0.029 C 
BRANCH  25  27
ATOM     27  C   UNL     1       1.199 -12.492   2.097  0.00  0.00    +0.230 C 
ATOM     28  O   UNL     1       2.353 -12.668   2.425  0.00  0.00    -0.274 OA
ATOM     29  N   UNL     1       0.548 -13.436   1.389  0.00  0.00    -0.285 N 
ATOM     30  H   UNL     1      -0.394 -13.326   1.184  0.00  0.00    +0.155 HD
BRANCH  29  31
ATOM     31  C   UNL     1       1.231 -14.575   0.948  0.00  0.00    +0.033 A 
ATOM     32  C   UNL     1       0.914 -15.146  -0.278  0.00  0.00    +0.023 A 
ATOM     33  C   UNL     1       1.589 -16.270  -0.710  0.00  0.00    +0.002 A 
ATOM     34  C   UNL     1       2.580 -16.828   0.077  0.00  0.00    +0.000 A 
ATOM     35  C   UNL     1       2.898 -16.263   1.298  0.00  0.00    +0.002 A 
ATOM     36  C   UNL     1       2.230 -15.135   1.733  0.00  0.00    +0.023 A 
ENDBRANCH  29  31
ENDBRANCH  25  27
ENDBRANCH  24  25
ENDBRANCH   4  24
TORSDOF 8
