REMARK  Name = ZINC25783814
REMARK  9 active torsions:
REMARK  status: ('A' for Active; 'I' for Inactive)
REMARK    1  A    between atoms: C_1  and  C_2
REMARK    2  A    between atoms: C_2  and  O_3
REMARK    3  A    between atoms: O_3  and  C_4
REMARK    4  A    between atoms: C_7  and  C_10
REMARK    5  A    between atoms: C_10  and  C_37
REMARK    6  A    between atoms: N_11  and  N_12
REMARK    7  A    between atoms: C_13  and  C_15
REMARK    8  A    between atoms: C_16  and  C_26
REMARK    9  A    between atoms: C_26  and  N_27
REMARK                            x       y       z     vdW  Elec       q    Type
REMARK                         _______ _______ _______ _____ _____    ______ ____
ROOT
ATOM      1  C   UNL     1       0.601   5.851  -1.929  0.00  0.00    +0.174 A 
ATOM      2  C   UNL     1      -0.615   5.404  -2.360  0.00  0.00    +0.096 A 
ATOM      3  N   UNL     1      -0.467   4.093  -2.655  0.00  0.00    -0.190 N 
ATOM      4  N   UNL     1       0.870   3.766  -2.383  0.00  0.00    -0.058 NA
ATOM      5  N   UNL     1       1.470   4.825  -1.964  0.00  0.00    -0.124 NA
ATOM      6  C   UNL     1      -1.457   3.228  -3.134  0.00  0.00    +0.240 A 
ATOM      7  C   UNL     1      -1.276   1.808  -3.448  0.00  0.00    +0.206 A 
ATOM      8  N   UNL     1      -2.418   1.330  -3.861  0.00  0.00    -0.032 NA
ATOM      9  O   UNL     1      -3.362   2.386  -3.841  0.00  0.00    -0.239 OA
ATOM     10  N   UNL     1      -2.696   3.548  -3.380  0.00  0.00    -0.027 NA
ATOM     11  N   UNL     1      -0.092   1.090  -3.322  0.00  0.00    -0.337 N 
ATOM     12  H   UNL     1      -0.065   0.023  -3.586  0.00  0.00    +0.144 HD
ATOM     13  H   UNL     1       0.818   1.590  -2.957  0.00  0.00    +0.144 HD
ENDROOT
BRANCH   1  15
ATOM     14  N   UNL     1       2.163   7.551  -1.121  0.00  0.00    -0.201 N 
ATOM     15  C   UNL     1       0.910   7.227  -1.497  0.00  0.00    +0.285 C 
ATOM     16  O   UNL     1       0.034   8.070  -1.480  0.00  0.00    -0.267 OA
ATOM     17  H   UNL     1       2.956   6.788  -1.137  0.00  0.00    +0.178 HD
BRANCH  14  19
ATOM     18  C   UNL     1       3.646   9.152  -0.282  0.00  0.00    +0.063 C 
ATOM     19  N   UNL     1       2.457   8.858  -0.712  0.00  0.00    -0.184 NA
ATOM     20  C   UNL     1       3.916  10.507   0.320  0.00  0.00    +0.068 C 
BRANCH  18  24
ATOM     21  C   UNL     1       6.775   6.298  -0.574  0.00  0.00    +0.121 A 
ATOM     22  C   UNL     1       5.864   6.435  -1.614  0.00  0.00    +0.046 A 
ATOM     23  C   UNL     1       4.846   7.360  -1.523  0.00  0.00    +0.013 A 
ATOM     24  C   UNL     1       4.732   8.161  -0.384  0.00  0.00    -0.002 A 
ATOM     25  C   UNL     1       5.654   8.023   0.657  0.00  0.00    +0.013 A 
ATOM     26  C   UNL     1       6.665   7.091   0.561  0.00  0.00    +0.046 A 
BRANCH  21  27
ATOM     27  O   UNL     1       7.776   5.384  -0.668  0.00  0.00    -0.492 OA
BRANCH  27  29
ATOM     28  C   UNL     1       9.729   4.221   0.152  0.00  0.00    +0.048 C 
ATOM     29  C   UNL     1       8.678   5.295   0.437  0.00  0.00    +0.225 C 
ENDBRANCH  27  29
ENDBRANCH  21  27
ENDBRANCH  18  24
ENDBRANCH  14  19
ENDBRANCH   1  15
BRANCH   2  30
ATOM     30  C   UNL     1      -1.879   6.215  -2.483  0.00  0.00    +0.163 C 
BRANCH  30  31
ATOM     31  N   UNL     1      -2.721   5.993  -1.300  0.00  0.00    -0.324 N 
ATOM     32  C   UNL     1      -1.940   6.124  -0.068  0.00  0.00    +0.106 C 
ATOM     33  C   UNL     1      -2.873   5.911   1.130  0.00  0.00    +0.024 C 
ATOM     34  C   UNL     1      -3.840   7.095   1.190  0.00  0.00    +0.038 C 
ATOM     35  C   UNL     1      -4.411   7.353  -0.182  0.00  0.00    -0.026 A 
ATOM     36  C   UNL     1      -3.845   6.816  -1.325  0.00  0.00    +0.033 A 
ATOM     37  C   UNL     1      -4.414   7.099  -2.568  0.00  0.00    +0.023 A 
ATOM     38  C   UNL     1      -5.530   7.902  -2.659  0.00  0.00    +0.002 A 
ATOM     39  C   UNL     1      -6.094   8.432  -1.513  0.00  0.00    +0.000 A 
ATOM     40  C   UNL     1      -5.536   8.158  -0.281  0.00  0.00    +0.005 A 
ENDBRANCH  30  31
ENDBRANCH   2  30
TORSDOF 7
