REMARK  Name = ZINC14543272
REMARK  9 active torsions:
REMARK  status: ('A' for Active; 'I' for Inactive)
REMARK    1  A    between atoms: C_4  and  C_7
REMARK    2  A    between atoms: C_7  and  C_8
REMARK    3  A    between atoms: C_8  and  N_9
REMARK    4  A    between atoms: N_12  and  C_28
REMARK    5  A    between atoms: C_20  and  C_21
REMARK    6  A    between atoms: C_20  and  N_65
REMARK    7  A    between atoms: C_24  and  C_26
REMARK    8  A    between atoms: C_26  and  O_27
REMARK    9  A    between atoms: C_28  and  C_29
REMARK                            x       y       z     vdW  Elec       q    Type
REMARK                         _______ _______ _______ _____ _____    ______ ____
ROOT
ATOM      1  N   UNL     1       4.572  -1.129  -3.153  0.00  0.00    -0.271 N 
ATOM      2  C   UNL     1       4.996  -1.681  -4.306  0.00  0.00    +0.312 C 
ATOM      3  O   UNL     1       5.286  -2.856  -4.425  0.00  0.00    -0.252 OA
ATOM      4  N   UNL     1       5.063  -0.792  -5.304  0.00  0.00    -0.220 N 
ATOM      5  C   UNL     1       4.686   0.439  -4.899  0.00  0.00    +0.247 C 
ATOM      6  O   UNL     1       4.639   1.449  -5.568  0.00  0.00    -0.273 OA
ATOM      7  C   UNL     1       4.335   0.292  -3.437  0.00  0.00    +0.112 C 
ATOM      8  C   UNL     1       5.241   1.168  -2.579  0.00  0.00    +0.017 C 
ATOM      9  C   UNL     1       4.844   1.020  -1.107  0.00  0.00    -0.076 C 
ATOM     10  C   UNL     1       2.550   0.516  -1.710  0.00  0.00    -0.076 C 
ATOM     11  C   UNL     1       2.870   0.648  -3.202  0.00  0.00    +0.017 C 
ATOM     12  N   UNL     1       3.432   1.427  -0.950  0.00  0.00    +0.385 N 
ATOM     13  H   UNL     1       3.318   2.381  -1.314  0.00  0.00    -0.081 HD
ENDROOT
BRANCH   1  14
ATOM     14  C   UNL     1       4.384  -1.810  -1.869  0.00  0.00    +0.115 C 
BRANCH  14  15
ATOM     15  C   UNL     1       5.742  -2.267  -1.332  0.00  0.00    +0.054 C 
BRANCH  15  19
ATOM     16  C   UNL     1       5.209  -4.151   2.465  0.00  0.00    +0.000 A 
ATOM     17  C   UNL     1       5.155  -4.903   1.306  0.00  0.00    +0.000 A 
ATOM     18  C   UNL     1       5.327  -4.293   0.078  0.00  0.00    +0.004 A 
ATOM     19  C   UNL     1       5.554  -2.931   0.008  0.00  0.00    -0.046 A 
ATOM     20  C   UNL     1       5.613  -2.180   1.167  0.00  0.00    +0.004 A 
ATOM     21  C   UNL     1       5.436  -2.789   2.395  0.00  0.00    +0.000 A 
ENDBRANCH  15  19
ENDBRANCH  14  15
ENDBRANCH   1  14
BRANCH  12  22
ATOM     22  C   UNL     1       3.060   1.413   0.480  0.00  0.00    -0.003 C 
BRANCH  22  23
ATOM     23  C   UNL     1       1.696   2.037   0.632  0.00  0.00    +0.089 A 
ATOM     24  C   UNL     1       0.523   1.380   0.600  0.00  0.00    +0.043 A 
ATOM     25  C   UNL     1      -0.493   2.348   0.776  0.00  0.00    +0.047 A 
ATOM     26  C   UNL     1       0.121   3.536   0.916  0.00  0.00    +0.130 A 
ATOM     27  O   UNL     1       1.447   3.342   0.825  0.00  0.00    -0.464 OA
BRANCH  26  28
ATOM     28  C   UNL     1      -0.563   4.861   1.134  0.00  0.00    +0.230 C 
BRANCH  28  29
ATOM     29  O   UNL     1      -0.713   5.096   2.535  0.00  0.00    -0.387 OA
ATOM     30  H   UNL     1      -1.147   5.933   2.750  0.00  0.00    +0.210 HD
ENDBRANCH  28  29
ENDBRANCH  26  28
ENDBRANCH  22  23
ENDBRANCH  12  22
BRANCH   4  31
ATOM     31  C   UNL     1       5.492  -1.115  -6.667  0.00  0.00    +0.154 C 
BRANCH  31  32
ATOM     32  C   UNL     1       6.983  -0.931  -6.781  0.00  0.00    -0.011 A 
ATOM     33  C   UNL     1       7.843  -1.985  -6.512  0.00  0.00    +0.008 A 
ATOM     34  C   UNL     1       9.208  -1.770  -6.630  0.00  0.00    +0.020 A 
ATOM     35  C   UNL     1       9.662  -0.521  -7.009  0.00  0.00    +0.111 A 
ATOM     36  N   UNL     1       8.815   0.458  -7.257  0.00  0.00    -0.263 NA
ATOM     37  C   UNL     1       7.511   0.288  -7.160  0.00  0.00    +0.116 A 
ENDBRANCH  31  32
ENDBRANCH   4  31
TORSDOF 9
