REMARK  Name = ZINC17425568
REMARK  2 active torsions:
REMARK  status: ('A' for Active; 'I' for Inactive)
REMARK    1  A    between atoms: C_3  and  N_16
REMARK    2  A    between atoms: C_6  and  N_7
REMARK                            x       y       z     vdW  Elec       q    Type
REMARK                         _______ _______ _______ _____ _____    ______ ____
ROOT
ATOM      1  C   UNL     1       5.492  -1.911   2.588  0.00  0.00    +0.030 A 
ATOM      2  C   UNL     1       6.626  -2.688   2.715  0.00  0.00    +0.035 A 
ATOM      3  C   UNL     1       7.739  -2.423   1.938  0.00  0.00    +0.126 A 
ATOM      4  C   UNL     1       7.722  -1.384   1.025  0.00  0.00    +0.035 A 
ATOM      5  C   UNL     1       6.593  -0.604   0.884  0.00  0.00    +0.030 A 
ATOM      6  C   UNL     1       5.466  -0.865   1.666  0.00  0.00    +0.067 A 
ENDROOT
BRANCH   6   7
ATOM      7  N   UNL     1       4.341  -0.093   1.531  0.00  0.00    -0.222 NA
ATOM      8  C   UNL     1       3.166  -0.657   1.468  0.00  0.00    +0.191 C 
ATOM      9  N   UNL     1       2.043   0.113   1.334  0.00  0.00    -0.306 N 
ATOM     10  C   UNL     1       0.714  -0.508   1.262  0.00  0.00    +0.107 C 
ATOM     11  C   UNL     1       0.002  -0.004   0.002  0.00  0.00    +0.019 C 
ATOM     12  C   UNL     1      -0.019   1.526   0.010  0.00  0.00    +0.003 C 
ATOM     13  C   UNL     1       1.417   2.058  -0.000  0.00  0.00    +0.019 C 
ATOM     14  C   UNL     1       2.144   1.577   1.259  0.00  0.00    +0.107 C 
ATOM     15 CL   UNL     1       3.028  -2.386   1.554  0.00  0.00    -0.045 Cl
ENDBRANCH   6   7
BRANCH   3  16
ATOM     16  N   UNL     1       8.954  -3.256   2.084  0.00  0.00    +0.056 N 
ATOM     17  O   UNL     1       9.936  -3.025   1.401  0.00  0.00    -0.126 OA
ATOM     18  O   UNL     1       8.972  -4.171   2.887  0.00  0.00    -0.126 OA
ENDBRANCH   3  16
TORSDOF 2
