REMARK  Name = ZINC08800209
REMARK  9 active torsions:
REMARK  status: ('A' for Active; 'I' for Inactive)
REMARK    1  A    between atoms: C_1  and  C_2
REMARK    2  A    between atoms: C_5  and  S_9
REMARK    3  A    between atoms: C_7  and  C_8
REMARK    4  A    between atoms: S_9  and  N_12
REMARK    5  A    between atoms: N_12  and  C_13
REMARK    6  A    between atoms: C_13  and  C_14
REMARK    7  A    between atoms: C_14  and  C_16
REMARK    8  A    between atoms: C_14  and  N_66
REMARK    9  A    between atoms: N_25  and  C_26
REMARK                            x       y       z     vdW  Elec       q    Type
REMARK                         _______ _______ _______ _____ _____    ______ ____
ROOT
ATOM      1  C   UNL     1      -5.368   3.634  -4.045  0.00  0.00    -0.022 C 
ENDROOT
BRANCH   1   2
ATOM      2  C   UNL     1      -5.421   2.282  -4.709  0.00  0.00    -0.059 A 
ATOM      3  C   UNL     1      -5.320   1.131  -3.948  0.00  0.00    +0.004 A 
ATOM      4  C   UNL     1      -5.372  -0.104  -4.556  0.00  0.00    +0.023 A 
ATOM      5  C   UNL     1      -5.513  -0.203  -5.942  0.00  0.00    +0.033 A 
ATOM      6  C   UNL     1      -5.612   0.950  -6.699  0.00  0.00    -0.026 A 
ATOM      7  C   UNL     1      -5.564   2.189  -6.079  0.00  0.00    +0.007 A 
ATOM      8  C   UNL     1      -5.777   0.911  -8.198  0.00  0.00    +0.038 C 
ATOM      9  C   UNL     1      -5.426  -0.484  -8.718  0.00  0.00    +0.024 C 
ATOM     10  C   UNL     1      -6.144  -1.512  -7.834  0.00  0.00    +0.105 C 
ATOM     11  N   UNL     1      -5.544  -1.481  -6.499  0.00  0.00    -0.333 N 
ATOM     12  C   UNL     1      -6.211  -2.432  -5.600  0.00  0.00    +0.129 C 
ENDBRANCH   1   2
BRANCH   1  18
ATOM     13  C   UNL     1      -6.752   2.813  -2.236  0.00  0.00    -0.078 C 
ATOM     14  C   UNL     1      -7.958   3.147  -1.356  0.00  0.00    -0.019 C 
ATOM     15  C   UNL     1      -9.216   3.216  -2.228  0.00  0.00    -0.004 C 
ATOM     16  C   UNL     1      -9.009   4.265  -3.324  0.00  0.00    -0.019 C 
ATOM     17  C   UNL     1      -7.772   3.899  -4.147  0.00  0.00    -0.078 C 
ATOM     18  N   UNL     1      -6.593   3.873  -3.255  0.00  0.00    +0.385 N 
ATOM     19  H   UNL     1      -6.513   4.780  -2.783  0.00  0.00    -0.081 HD
ENDBRANCH   1  18
BRANCH   1  20
ATOM     20  C   UNL     1      -4.157   3.696  -3.112  0.00  0.00    +0.095 C 
BRANCH  20  21
ATOM     21  N   UNL     1      -4.172   4.964  -2.378  0.00  0.00    -0.191 NA
ATOM     22  H   UNL     1      -4.744   5.689  -2.674  0.00  0.00    +0.148 HD
BRANCH  21  23
ATOM     23  S   UNL     1      -3.213   5.158  -1.042  0.00  0.00    +0.058 S 
ATOM     24  O   UNL     1      -3.424   4.018  -0.221  0.00  0.00    -0.153 OA
ATOM     25  O   UNL     1      -3.429   6.483  -0.576  0.00  0.00    -0.153 OA
BRANCH  23  30
ATOM     26  C   UNL     1       2.518   4.901  -2.911  0.00  0.00    +0.044 C 
ATOM     27  C   UNL     1       1.087   4.966  -2.444  0.00  0.00    -0.047 A 
ATOM     28  C   UNL     1       0.433   3.810  -2.059  0.00  0.00    +0.005 A 
ATOM     29  C   UNL     1      -0.881   3.868  -1.636  0.00  0.00    +0.029 A 
ATOM     30  C   UNL     1      -1.539   5.083  -1.588  0.00  0.00    +0.106 A 
ATOM     31  C   UNL     1      -0.885   6.239  -1.972  0.00  0.00    +0.032 A 
ATOM     32  C   UNL     1       0.428   6.180  -2.401  0.00  0.00    -0.046 A 
ATOM     33  C   UNL     1       1.141   7.439  -2.821  0.00  0.00    +0.044 C 
ENDBRANCH  23  30
ENDBRANCH  21  23
ENDBRANCH  20  21
ENDBRANCH   1  20
TORSDOF 6
