REMARK  Name = ZINC39601745
REMARK  10 active torsions:
REMARK  status: ('A' for Active; 'I' for Inactive)
REMARK    1  A    between atoms: C_1  and  C_2
REMARK    2  A    between atoms: C_3  and  C_15
REMARK    3  A    between atoms: C_4  and  C_7
REMARK    4  A    between atoms: C_19  and  C_28
REMARK    5  A    between atoms: N_30  and  C_31
REMARK    6  A    between atoms: C_31  and  C_32
REMARK    7  A    between atoms: C_32  and  O_33
REMARK    8  A    between atoms: O_33  and  C_34
REMARK    9  A    between atoms: C_34  and  C_35
REMARK   10  A    between atoms: C_35  and  O_36
REMARK                            x       y       z     vdW  Elec       q    Type
REMARK                         _______ _______ _______ _____ _____    ______ ____
ROOT
ATOM      1  C   UNL     1      -2.586  -0.081   0.861  0.00  0.00    +0.252 C 
ATOM      2  O   UNL     1      -3.416   0.115  -0.006  0.00  0.00    -0.270 OA
ATOM      3  N   UNL     1      -2.896   0.138   2.154  0.00  0.00    -0.296 N 
ATOM      4  C   UNL     1      -2.060  -0.132   3.347  0.00  0.00    +0.121 C 
ATOM      5  C   UNL     1      -2.317   1.069   4.284  0.00  0.00    +0.100 C 
ATOM      6  C   UNL     1      -3.692   1.611   3.858  0.00  0.00    -0.004 C 
ATOM      7  C   UNL     1      -4.149   0.708   2.703  0.00  0.00    +0.115 C 
ATOM      8  C   UNL     1      -3.566   3.053   3.374  0.00  0.00    -0.010 C 
ATOM      9  C   UNL     1      -4.953   3.588   3.010  0.00  0.00    -0.082 C 
ATOM     10  N   UNL     1      -5.829   3.521   4.186  0.00  0.00    +0.379 N 
ATOM     11  C   UNL     1      -6.020   2.122   4.589  0.00  0.00    -0.082 C 
ATOM     12  C   UNL     1      -4.678   1.525   5.020  0.00  0.00    -0.010 C 
ATOM     13  H   UNL     1      -5.409   4.034   4.947  0.00  0.00    -0.086 HD
ATOM     14  H   UNL     1      -6.724   3.930   3.962  0.00  0.00    -0.086 HD
ENDROOT
BRANCH   1  17
ATOM     15  C   UNL     1      -0.214   1.701  -0.123  0.00  0.00    +0.090 C 
ATOM     16  C   UNL     1      -0.196   0.206   0.066  0.00  0.00    +0.147 A 
ATOM     17  C   UNL     1      -1.240  -0.557   0.497  0.00  0.00    +0.106 A 
ATOM     18  C   UNL     1      -0.764  -1.949   0.528  0.00  0.00    +0.128 A 
ATOM     19  N   UNL     1       0.483  -1.933   0.131  0.00  0.00    -0.077 NA
ATOM     20  O   UNL     1       0.845  -0.598  -0.164  0.00  0.00    -0.359 OA
BRANCH  18  21
ATOM     21  C   UNL     1      -1.547  -3.141   0.932  0.00  0.00    +0.041 A 
ATOM     22  C   UNL     1      -2.714  -3.478   0.246  0.00  0.00    +0.052 A 
ATOM     23  C   UNL     1      -3.439  -4.591   0.627  0.00  0.00    +0.021 A 
ATOM     24  C   UNL     1      -3.010  -5.370   1.686  0.00  0.00    +0.003 A 
ATOM     25  C   UNL     1      -1.854  -5.041   2.371  0.00  0.00    +0.021 A 
ATOM     26  C   UNL     1      -1.117  -3.934   1.996  0.00  0.00    +0.052 A 
ATOM     27 CL   UNL     1       0.338  -3.527   2.852  0.00  0.00    -0.083 Cl
ATOM     28 CL   UNL     1      -3.255  -2.501  -1.083  0.00  0.00    -0.083 Cl
ENDBRANCH  18  21
ENDBRANCH   1  17
BRANCH   5  29
ATOM     29  C   UNL     1      -1.255   2.121   4.093  0.00  0.00    +0.218 C 
ATOM     30  O   UNL     1      -0.775   2.307   2.995  0.00  0.00    -0.275 OA
ATOM     31  N   UNL     1      -0.837   2.854   5.144  0.00  0.00    -0.313 N 
ATOM     32  H   UNL     1      -1.220   2.706   6.023  0.00  0.00    +0.149 HD
BRANCH  31  33
ATOM     33  C   UNL     1       0.197   3.876   4.959  0.00  0.00    +0.132 C 
BRANCH  33  34
ATOM     34  C   UNL     1       0.486   4.558   6.298  0.00  0.00    +0.178 C 
BRANCH  34  35
ATOM     35  O   UNL     1       1.051   3.608   7.204  0.00  0.00    -0.376 OA
BRANCH  35  36
ATOM     36  C   UNL     1       1.360   4.145   8.491  0.00  0.00    +0.187 C 
BRANCH  36  37
ATOM     37  C   UNL     1       1.957   3.046   9.373  0.00  0.00    +0.184 C 
BRANCH  37  38
ATOM     38  O   UNL     1       3.209   2.626   8.828  0.00  0.00    -0.393 OA
ATOM     39  H   UNL     1       3.646   1.929   9.337  0.00  0.00    +0.209 HD
ENDBRANCH  37  38
ENDBRANCH  36  37
ENDBRANCH  35  36
ENDBRANCH  34  35
ENDBRANCH  33  34
ENDBRANCH  31  33
ENDBRANCH   5  29
TORSDOF 9
