REMARK  Name = ZINC02400699
REMARK  7 active torsions:
REMARK  status: ('A' for Active; 'I' for Inactive)
REMARK    1  A    between atoms: C_1  and  C_2
REMARK    2  A    between atoms: C_2  and  C_28
REMARK    3  A    between atoms: C_6  and  N_20
REMARK    4  A    between atoms: C_12  and  S_16
REMARK    5  A    between atoms: S_16  and  C_17
REMARK    6  A    between atoms: C_17  and  C_18
REMARK    7  A    between atoms: C_18  and  O_19
REMARK                            x       y       z     vdW  Elec       q    Type
REMARK                         _______ _______ _______ _____ _____    ______ ____
ROOT
ATOM      1  C   UNL     1       3.917  -1.752   8.783  0.00  0.00    +0.041 C 
ATOM      2  C   UNL     1       2.886  -0.623   8.836  0.00  0.00    +0.068 C 
ATOM      3  C   UNL     1       2.142  -0.541   7.501  0.00  0.00    +0.070 C 
ATOM      4  C   UNL     1       0.947   0.363   7.641  0.00  0.00    -0.024 A 
ATOM      5  C   UNL     1       0.445   0.711   8.856  0.00  0.00    +0.020 A 
ATOM      6  C   UNL     1      -0.673   1.548   8.933  0.00  0.00    +0.105 A 
ATOM      7  C   UNL     1      -0.782   1.694   6.640  0.00  0.00    +0.089 A 
ATOM      8  C   UNL     1       0.334   0.858   6.464  0.00  0.00    +0.035 A 
ATOM      9  C   UNL     1       0.730   0.596   5.068  0.00  0.00    +0.092 A 
ATOM     10  C   UNL     1      -0.052   1.214   4.084  0.00  0.00    +0.072 A 
ATOM     11  S   UNL     1      -1.280   2.115   4.988  0.00  0.00    -0.066 S 
ATOM     12  C   UNL     1       0.229   1.038   2.736  0.00  0.00    +0.115 A 
ATOM     13  N   UNL     1       1.260   0.261   2.401  0.00  0.00    -0.228 NA
ATOM     14  C   UNL     1       1.990  -0.309   3.341  0.00  0.00    +0.223 A 
ATOM     15  N   UNL     1       1.754  -0.166   4.622  0.00  0.00    -0.234 NA
ATOM     16  C   UNL     1       1.068   0.217  10.136  0.00  0.00    +0.199 C 
ATOM     17  O   UNL     1       1.932  -0.888   9.870  0.00  0.00    -0.369 OA
ATOM     18  C   UNL     1       3.591   0.707   9.114  0.00  0.00    +0.041 C 
ATOM     19  N   UNL     1      -1.306   2.054   7.837  0.00  0.00    -0.337 N 
ATOM     20  H   UNL     1      -2.126   2.668   7.913  0.00  0.00    +0.168 HD
ENDROOT
BRANCH   6  21
ATOM     21  N   UNL     1      -1.187   1.899  10.175  0.00  0.00    -0.312 N 
ATOM     22  C   UNL     1      -2.570   1.423  10.325  0.00  0.00    +0.134 C 
ATOM     23  C   UNL     1      -3.076   1.777  11.726  0.00  0.00    +0.178 C 
ATOM     24  O   UNL     1      -2.964   3.189  11.925  0.00  0.00    -0.377 OA
ATOM     25  C   UNL     1      -1.631   3.687  11.786  0.00  0.00    +0.178 C 
ATOM     26  C   UNL     1      -1.110   3.352  10.386  0.00  0.00    +0.134 C 
ENDBRANCH   6  21
BRANCH  12  27
ATOM     27  S   UNL     1      -0.755   1.817   1.499  0.00  0.00    -0.102 S 
BRANCH  27  28
ATOM     28  C   UNL     1       0.085   1.222   0.010  0.00  0.00    +0.103 C 
BRANCH  28  29
ATOM     29  C   UNL     1      -0.615   1.786  -1.229  0.00  0.00    +0.167 C 
BRANCH  29  30
ATOM     30  O   UNL     1       0.048   1.317  -2.405  0.00  0.00    -0.394 OA
ATOM     31  H   UNL     1      -0.343   1.635  -3.230  0.00  0.00    +0.209 HD
ENDBRANCH  29  30
ENDBRANCH  28  29
ENDBRANCH  27  28
ENDBRANCH  12  27
TORSDOF 5
