REMARK  Name = ZINC21782951
REMARK  7 active torsions:
REMARK  status: ('A' for Active; 'I' for Inactive)
REMARK    1  A    between atoms: C_1  and  C_2
REMARK    2  A    between atoms: C_4  and  C_34
REMARK    3  A    between atoms: C_5  and  C_9
REMARK    4  A    between atoms: C_6  and  O_8
REMARK    5  A    between atoms: N_17  and  C_27
REMARK    6  A    between atoms: C_18  and  C_20
REMARK    7  A    between atoms: C_27  and  C_28
REMARK                            x       y       z     vdW  Elec       q    Type
REMARK                         _______ _______ _______ _____ _____    ______ ____
ROOT
ATOM      1  C   UNL     1       0.217  -3.922  -0.025  0.00  0.00    +0.102 A 
ATOM      2  C   UNL     1       0.209  -4.760   1.096  0.00  0.00    +0.035 A 
ATOM      3  C   UNL     1       0.528  -6.019   0.627  0.00  0.00    +0.126 A 
ATOM      4  N   UNL     1       0.710  -5.888  -0.721  0.00  0.00    -0.272 N 
ATOM      5  H   UNL     1       0.944  -6.611  -1.324  0.00  0.00    +0.189 HD
ATOM      6  N   UNL     1       0.518  -4.666  -1.071  0.00  0.00    -0.173 NA
ATOM      7  C   UNL     1       0.536  -6.951   1.760  0.00  0.00    +0.266 C 
ATOM      8  O   UNL     1       0.782  -8.139   1.681  0.00  0.00    -0.268 OA
ATOM      9  N   UNL     1       0.234  -6.304   2.901  0.00  0.00    -0.283 N 
ATOM     10  C   UNL     1       0.006  -4.889   2.581  0.00  0.00    +0.141 C 
ENDROOT
BRANCH   1  15
ATOM     11  C   UNL     1      -0.883   1.735  -0.069  0.00  0.00    +0.044 C 
ATOM     12  C   UNL     1      -0.598   0.255  -0.056  0.00  0.00    -0.047 A 
ATOM     13  C   UNL     1       0.539  -0.233  -0.675  0.00  0.00    +0.007 A 
ATOM     14  C   UNL     1       0.808  -1.587  -0.668  0.00  0.00    -0.037 A 
ATOM     15  C   UNL     1      -0.067  -2.466  -0.035  0.00  0.00    +0.047 A 
ATOM     16  C   UNL     1      -1.215  -1.970   0.590  0.00  0.00    +0.127 A 
ATOM     17  C   UNL     1      -1.470  -0.608   0.580  0.00  0.00    +0.049 A 
ATOM     18  C   UNL     1       2.048  -2.113  -1.344  0.00  0.00    +0.044 C 
BRANCH  16  19
ATOM     19  O   UNL     1      -2.075  -2.820   1.209  0.00  0.00    -0.506 OA
ATOM     20  H   UNL     1      -1.925  -2.906   2.161  0.00  0.00    +0.292 HD
ENDBRANCH  16  19
ENDBRANCH   1  15
BRANCH  10  21
ATOM     21  C   UNL     1       0.997  -4.024   3.317  0.00  0.00    -0.022 A 
ATOM     22  C   UNL     1       2.350  -4.160   3.069  0.00  0.00    +0.008 A 
ATOM     23  C   UNL     1       3.260  -3.367   3.743  0.00  0.00    +0.038 A 
ATOM     24  C   UNL     1       2.815  -2.437   4.667  0.00  0.00    +0.123 A 
ATOM     25  C   UNL     1       1.460  -2.302   4.914  0.00  0.00    +0.038 A 
ATOM     26  C   UNL     1       0.552  -3.092   4.235  0.00  0.00    +0.008 A 
ATOM     27  F   UNL     1       3.703  -1.662   5.327  0.00  0.00    -0.205 F 
ENDBRANCH  10  21
BRANCH   9  28
ATOM     28  C   UNL     1       0.146  -6.908   4.232  0.00  0.00    +0.140 C 
BRANCH  28  29
ATOM     29  C   UNL     1       1.545  -6.994   4.846  0.00  0.00    +0.136 C 
ATOM     30  C   UNL     1       1.475  -7.718   6.209  0.00  0.00    +0.035 C 
ATOM     31  C   UNL     1       2.482  -6.904   7.066  0.00  0.00    +0.031 C 
ATOM     32  C   UNL     1       2.280  -5.481   6.487  0.00  0.00    +0.160 C 
ATOM     33  O   UNL     1       2.055  -5.677   5.080  0.00  0.00    -0.375 OA
ENDBRANCH  28  29
ENDBRANCH   9  28
TORSDOF 5
