REMARK  Name = ZINC36491884
REMARK  10 active torsions:
REMARK  status: ('A' for Active; 'I' for Inactive)
REMARK    1  A    between atoms: C_1  and  C_2
REMARK    2  A    between atoms: C_5  and  S_8
REMARK    3  A    between atoms: S_8  and  C_11
REMARK    4  A    between atoms: C_11  and  N_12
REMARK    5  A    between atoms: C_13  and  C_15
REMARK    6  A    between atoms: C_15  and  C_17
REMARK    7  A    between atoms: C_15  and  N_24
REMARK    8  A    between atoms: C_22  and  O_23
REMARK    9  A    between atoms: N_24  and  C_25
REMARK   10  A    between atoms: C_31  and  C_33
REMARK                            x       y       z     vdW  Elec       q    Type
REMARK                         _______ _______ _______ _____ _____    ______ ____
ROOT
ATOM      1  C   UNL     1       3.643  -5.086   3.238  0.00  0.00    +0.196 C 
ENDROOT
BRANCH   1   2
ATOM      2  C   UNL     1       2.761  -4.087   3.943  0.00  0.00    +0.023 A 
ATOM      3  C   UNL     1       1.715  -3.490   3.266  0.00  0.00    +0.009 A 
ATOM      4  C   UNL     1       0.906  -2.573   3.912  0.00  0.00    +0.001 A 
ATOM      5  C   UNL     1       1.142  -2.251   5.235  0.00  0.00    +0.004 A 
ATOM      6  C   UNL     1       2.187  -2.845   5.916  0.00  0.00    +0.046 A 
ATOM      7  C   UNL     1       2.997  -3.769   5.272  0.00  0.00    +0.122 A 
BRANCH   7   8
ATOM      8  O   UNL     1       4.022  -4.359   5.942  0.00  0.00    -0.506 OA
ATOM      9  H   UNL     1       4.838  -3.840   5.949  0.00  0.00    +0.292 HD
ENDBRANCH   7   8
ENDBRANCH   1   2
BRANCH   1  11
ATOM     10  N   UNL     1       3.181  -4.327   0.930  0.00  0.00    -0.294 N 
ATOM     11  C   UNL     1       3.124  -5.317   1.842  0.00  0.00    +0.239 C 
ATOM     12  O   UNL     1       2.655  -6.394   1.540  0.00  0.00    -0.273 OA
ATOM     13  H   UNL     1       3.578  -3.473   1.164  0.00  0.00    +0.150 HD
BRANCH  10  14
ATOM     14  C   UNL     1       2.644  -4.540  -0.416  0.00  0.00    +0.278 C 
BRANCH  14  15
ATOM     15  S   UNL     1       0.961  -3.869  -0.508  0.00  0.00    +0.013 S 
ATOM     16  O   UNL     1       0.213  -4.265   0.634  0.00  0.00    -0.168 OA
ATOM     17  O   UNL     1       0.434  -4.048  -1.816  0.00  0.00    -0.168 OA
BRANCH  15  22
ATOM     18  C   UNL     1       1.629   2.098   0.080  0.00  0.00    +0.044 C 
ATOM     19  C   UNL     1       1.462   0.608  -0.067  0.00  0.00    -0.050 A 
ATOM     20  C   UNL     1       1.755  -0.005  -1.271  0.00  0.00    +0.005 A 
ATOM     21  C   UNL     1       1.602  -1.373  -1.406  0.00  0.00    +0.027 A 
ATOM     22  C   UNL     1       1.157  -2.127  -0.336  0.00  0.00    +0.090 A 
ATOM     23  C   UNL     1       0.865  -1.514   0.868  0.00  0.00    +0.027 A 
ATOM     24  C   UNL     1       1.022  -0.147   1.004  0.00  0.00    +0.005 A 
ENDBRANCH  15  22
ENDBRANCH  14  15
ENDBRANCH  10  14
ENDBRANCH   1  11
BRANCH   1  25
ATOM     25  N   UNL     1       3.635  -6.351   3.978  0.00  0.00    -0.279 N 
ATOM     26  C   UNL     1       4.794  -6.891   4.401  0.00  0.00    +0.249 C 
ATOM     27  O   UNL     1       5.853  -6.402   4.059  0.00  0.00    -0.270 OA
BRANCH  25  28
ATOM     28  C   UNL     1       2.366  -7.028   4.257  0.00  0.00    +0.077 C 
ATOM     29  C   UNL     1       2.169  -8.172   3.261  0.00  0.00    +0.022 C 
ATOM     30  C   UNL     1       0.844  -8.880   3.552  0.00  0.00    +0.002 C 
ATOM     31  C   UNL     1      -0.308  -7.881   3.417  0.00  0.00    +0.000 C 
ATOM     32  C   UNL     1      -0.111  -6.737   4.413  0.00  0.00    +0.002 C 
ATOM     33  C   UNL     1       1.214  -6.030   4.122  0.00  0.00    +0.022 C 
ENDBRANCH  25  28
BRANCH  26  34
ATOM     34  C   UNL     1       4.779  -8.078   5.282  0.00  0.00    +0.055 A 
ATOM     35  C   UNL     1       5.867  -8.360   6.116  0.00  0.00    +0.016 A 
ATOM     36  C   UNL     1       5.803  -9.483   6.921  0.00  0.00    +0.020 A 
ATOM     37  C   UNL     1       4.675 -10.284   6.877  0.00  0.00    +0.111 A 
ATOM     38  N   UNL     1       3.664  -9.994   6.080  0.00  0.00    -0.263 NA
ATOM     39  C   UNL     1       3.677  -8.934   5.300  0.00  0.00    +0.123 A 
ENDBRANCH  26  34
ENDBRANCH   1  25
TORSDOF 9
