REMARK  Name = ZINC20882054
REMARK  10 active torsions:
REMARK  status: ('A' for Active; 'I' for Inactive)
REMARK    1  A    between atoms: C_1  and  C_2
REMARK    2  A    between atoms: C_2  and  C_3
REMARK    3  A    between atoms: C_2  and  O_4
REMARK    4  A    between atoms: O_4  and  C_5
REMARK    5  A    between atoms: C_8  and  C_13
REMARK    6  A    between atoms: C_10  and  O_11
REMARK    7  A    between atoms: O_11  and  C_12
REMARK    8  A    between atoms: C_18  and  C_24
REMARK    9  A    between atoms: C_29  and  O_30
REMARK   10  A    between atoms: O_30  and  C_31
REMARK                            x       y       z     vdW  Elec       q    Type
REMARK                         _______ _______ _______ _____ _____    ______ ____
ROOT
ATOM      1  C   UNL     1      -0.946  -2.880   0.368  0.00  0.00    +0.032 C 
ATOM      2  C   UNL     1      -0.598  -1.593  -0.382  0.00  0.00    +0.059 C 
ATOM      3  C   UNL     1       0.734  -1.072   0.097  0.00  0.00    +0.018 C 
ATOM      4  C   UNL     1       1.692  -1.918   0.531  0.00  0.00    +0.020 C 
ATOM      5  C   UNL     1       3.022  -1.374   0.998  0.00  0.00    +0.066 C 
ATOM      6  C   UNL     1       3.391  -0.147   0.162  0.00  0.00    +0.109 C 
ATOM      7  C   UNL     1       2.205   0.781   0.098  0.00  0.00    +0.218 C 
ATOM      8  O   UNL     1       2.377   1.980   0.060  0.00  0.00    -0.275 OA
ATOM      9  N   UNL     1       0.957   0.281   0.082  0.00  0.00    -0.289 N 
ATOM     10  C   UNL     1       1.482  -3.307   0.564  0.00  0.00    +0.162 C 
ATOM     11  O   UNL     1       2.372  -4.037   0.949  0.00  0.00    -0.292 OA
ATOM     12  C   UNL     1       0.170  -3.903   0.128  0.00  0.00    +0.088 C 
ATOM     13  H   UNL     1       0.107   0.979   0.056  0.00  0.00    +0.155 HD
ENDROOT
BRANCH   5  14
ATOM     14  C   UNL     1       2.923  -0.982   2.450  0.00  0.00    +0.003 A 
ATOM     15  C   UNL     1       2.013  -0.021   2.845  0.00  0.00    +0.023 A 
ATOM     16  C   UNL     1       1.921   0.340   4.178  0.00  0.00    +0.018 A 
ATOM     17  C   UNL     1       2.741  -0.261   5.117  0.00  0.00    +0.019 A 
ATOM     18  C   UNL     1       3.653  -1.222   4.725  0.00  0.00    +0.047 A 
ATOM     19  C   UNL     1       3.742  -1.589   3.390  0.00  0.00    +0.124 A 
ATOM     20 BR   UNL     1       0.674   1.655   4.717  0.00  0.00    -0.050 Br
BRANCH  19  21
ATOM     21  O   UNL     1       4.634  -2.539   3.003  0.00  0.00    -0.495 OA
ATOM     22  C   UNL     1       5.445  -3.122   4.026  0.00  0.00    +0.277 C 
ENDBRANCH  19  21
ENDBRANCH   5  14
BRANCH   1  26
ATOM     23  C   UNL     1      -4.652  -4.435  -1.093  0.00  0.00    +0.162 A 
ATOM     24  C   UNL     1      -3.582  -4.260  -1.956  0.00  0.00    +0.050 A 
ATOM     25  C   UNL     1      -2.385  -3.757  -1.481  0.00  0.00    +0.008 A 
ATOM     26  C   UNL     1      -2.253  -3.428  -0.145  0.00  0.00    -0.040 A 
ATOM     27  C   UNL     1      -3.315  -3.604   0.723  0.00  0.00    +0.053 A 
ATOM     28  C   UNL     1      -4.519  -4.103   0.251  0.00  0.00    +0.162 A 
BRANCH  28  29
ATOM     29  O   UNL     1      -5.566  -4.273   1.102  0.00  0.00    -0.491 OA
ATOM     30  C   UNL     1      -5.357  -3.911   2.469  0.00  0.00    +0.277 C 
ENDBRANCH  28  29
BRANCH  23  31
ATOM     31  O   UNL     1      -5.830  -4.931  -1.560  0.00  0.00    -0.486 OA
BRANCH  31  33
ATOM     32  C   UNL     1      -5.351  -6.506  -3.328  0.00  0.00    +0.051 C 
ATOM     33  C   UNL     1      -5.933  -5.138  -2.970  0.00  0.00    +0.167 C 
ATOM     34  C   UNL     1      -7.405  -5.085  -3.386  0.00  0.00    +0.051 C 
ENDBRANCH  31  33
ENDBRANCH  23  31
ENDBRANCH   1  26
TORSDOF 6
