REMARK  Name = ZINC11970405
REMARK  8 active torsions:
REMARK  status: ('A' for Active; 'I' for Inactive)
REMARK    1  A    between atoms: C_4  and  C_7
REMARK    2  A    between atoms: C_7  and  N_64
REMARK    3  A    between atoms: C_11  and  N_14
REMARK    4  A    between atoms: C_15  and  C_17
REMARK    5  A    between atoms: C_17  and  C_18
REMARK    6  A    between atoms: C_18  and  C_19
REMARK    7  A    between atoms: C_19  and  C_25
REMARK    8  A    between atoms: C_25  and  C_26
REMARK                            x       y       z     vdW  Elec       q    Type
REMARK                         _______ _______ _______ _____ _____    ______ ____
ROOT
ATOM      1  N   UNL     1      -1.432   4.944  -0.390  0.00  0.00    -0.314 N 
ATOM      2  C   UNL     1      -2.453   5.706  -0.831  0.00  0.00    +0.213 C 
ATOM      3  O   UNL     1      -3.422   5.186  -1.341  0.00  0.00    -0.276 OA
ATOM      4  H   UNL     1      -0.657   5.361   0.018  0.00  0.00    +0.149 HD
ENDROOT
BRANCH   1   8
ATOM      5  C   UNL     1      -0.134   0.961  -0.931  0.00  0.00    -0.078 C 
ATOM      6  C   UNL     1      -1.011   1.557  -2.034  0.00  0.00    -0.017 C 
ATOM      7  C   UNL     1      -1.000   3.083  -1.920  0.00  0.00    +0.018 C 
ATOM      8  C   UNL     1      -1.494   3.487  -0.528  0.00  0.00    +0.056 C 
ATOM      9  C   UNL     1      -0.603   2.836   0.532  0.00  0.00    -0.056 C 
ATOM     10  N   UNL     1      -0.676   1.367   0.384  0.00  0.00    +0.384 N 
ATOM     11  H   UNL     1      -1.659   1.075   0.443  0.00  0.00    -0.081 HD
BRANCH  10  12
ATOM     12  C   UNL     1       0.085   0.711   1.467  0.00  0.00    -0.043 C 
BRANCH  12  16
ATOM     13  C   UNL     1       4.136   2.066   1.489  0.00  0.00    +0.000 A 
ATOM     14  C   UNL     1       3.180   2.734   2.230  0.00  0.00    +0.000 A 
ATOM     15  C   UNL     1       1.869   2.296   2.223  0.00  0.00    +0.002 A 
ATOM     16  C   UNL     1       1.514   1.189   1.475  0.00  0.00    -0.064 A 
ATOM     17  C   UNL     1       2.471   0.518   0.737  0.00  0.00    +0.002 A 
ATOM     18  C   UNL     1       3.781   0.959   0.740  0.00  0.00    +0.000 A 
ENDBRANCH  12  16
ENDBRANCH  10  12
ENDBRANCH   1   8
BRANCH   2  19
ATOM     19  C   UNL     1      -2.389   7.205  -0.689  0.00  0.00    +0.098 C 
BRANCH  19  20
ATOM     20  C   UNL     1      -3.664   7.826  -1.264  0.00  0.00    +0.035 C 
BRANCH  20  21
ATOM     21  C   UNL     1      -3.658   9.334  -1.006  0.00  0.00    +0.039 C 
ATOM     22  C   UNL     1      -4.996   9.960  -1.460  0.00  0.00    +0.035 C 
ATOM     23  C   UNL     1      -5.815   9.939  -0.148  0.00  0.00    +0.098 C 
ATOM     24  C   UNL     1      -4.767   9.939   0.943  0.00  0.00    +0.214 C 
ATOM     25  O   UNL     1      -4.978  10.204   2.108  0.00  0.00    -0.276 OA
ATOM     26  N   UNL     1      -3.570   9.603   0.434  0.00  0.00    -0.309 N 
ATOM     27  H   UNL     1      -2.752   9.545   0.952  0.00  0.00    +0.149 HD
BRANCH  21  28
ATOM     28  C   UNL     1      -2.490   9.992  -1.742  0.00  0.00    +0.061 C 
BRANCH  28  29
ATOM     29  C   UNL     1      -2.419  11.451  -1.371  0.00  0.00    -0.045 A 
ATOM     30  C   UNL     1      -3.010  12.400  -2.185  0.00  0.00    +0.005 A 
ATOM     31  C   UNL     1      -2.951  13.738  -1.843  0.00  0.00    +0.020 A 
ATOM     32  C   UNL     1      -2.291  14.128  -0.691  0.00  0.00    +0.041 A 
ATOM     33  C   UNL     1      -1.695  13.178   0.120  0.00  0.00    +0.020 A 
ATOM     34  C   UNL     1      -1.760  11.841  -0.221  0.00  0.00    +0.005 A 
ATOM     35 CL   UNL     1      -2.210  15.809  -0.264  0.00  0.00    -0.084 Cl
ENDBRANCH  28  29
ENDBRANCH  21  28
ENDBRANCH  20  21
ENDBRANCH  19  20
ENDBRANCH   2  19
TORSDOF 8
