REMARK  Name = ZINC34906080
REMARK  8 active torsions:
REMARK  status: ('A' for Active; 'I' for Inactive)
REMARK    1  A    between atoms: C_1  and  C_2
REMARK    2  A    between atoms: C_2  and  N_3
REMARK    3  A    between atoms: N_6  and  C_7
REMARK    4  A    between atoms: C_13  and  N_15
REMARK    5  A    between atoms: C_16  and  C_18
REMARK    6  A    between atoms: C_21  and  C_23
REMARK    7  A    between atoms: C_23  and  O_24
REMARK    8  A    between atoms: O_24  and  C_25
REMARK                            x       y       z     vdW  Elec       q    Type
REMARK                         _______ _______ _______ _____ _____    ______ ____
ROOT
ATOM      1  N   UNL     1      -4.505  -3.540   2.012  0.00  0.00    -0.305 N 
ATOM      2  C   UNL     1      -5.677  -3.210   2.590  0.00  0.00    +0.263 C 
ATOM      3  O   UNL     1      -6.715  -3.323   1.967  0.00  0.00    -0.269 OA
ATOM      4  H   UNL     1      -3.677  -3.450   2.509  0.00  0.00    +0.149 HD
ENDROOT
BRANCH   1  10
ATOM      5  C   UNL     1      -3.113  -3.750   0.012  0.00  0.00    +0.095 C 
ATOM      6  C   UNL     1      -3.089  -4.266  -1.428  0.00  0.00    +0.024 C 
ATOM      7  C   UNL     1      -3.349  -5.774  -1.434  0.00  0.00    +0.002 C 
ATOM      8  C   UNL     1      -4.717  -6.058  -0.813  0.00  0.00    +0.002 C 
ATOM      9  C   UNL     1      -4.741  -5.542   0.627  0.00  0.00    +0.024 C 
ATOM     10  C   UNL     1      -4.482  -4.034   0.633  0.00  0.00    +0.093 C 
BRANCH   5  14
ATOM     11  N   UNL     1      -1.372  -0.511   0.012  0.00  0.00    -0.300 N 
ATOM     12  C   UNL     1      -1.601  -1.839   0.007  0.00  0.00    +0.300 C 
ATOM     13  O   UNL     1      -0.666  -2.617  -0.006  0.00  0.00    -0.253 OA
ATOM     14  N   UNL     1      -2.865  -2.306   0.017  0.00  0.00    -0.295 N 
ATOM     15  H   UNL     1      -2.118   0.109   0.023  0.00  0.00    +0.150 HD
ATOM     16  H   UNL     1      -3.611  -1.686   0.028  0.00  0.00    +0.151 HD
BRANCH  11  18
ATOM     17  C   UNL     1      -0.019   1.526   0.010  0.00  0.00    +0.024 C 
ATOM     18  C   UNL     1       0.002  -0.004   0.002  0.00  0.00    +0.102 C 
ENDBRANCH  11  18
ENDBRANCH   5  14
ENDBRANCH   1  10
BRANCH   2  19
ATOM     19  C   UNL     1      -5.700  -2.713   3.976  0.00  0.00    +0.133 A 
ATOM     20  C   UNL     1      -6.867  -2.372   4.605  0.00  0.00    +0.080 A 
ATOM     21  S   UNL     1      -6.333  -1.884   6.121  0.00  0.00    -0.076 S 
ATOM     22  C   UNL     1      -4.684  -2.123   5.917  0.00  0.00    +0.116 A 
ATOM     23  N   UNL     1      -4.582  -2.575   4.697  0.00  0.00    -0.236 NA
BRANCH  22  24
ATOM     24  C   UNL     1      -3.579  -1.879   6.913  0.00  0.00    +0.291 C 
BRANCH  24  25
ATOM     25  O   UNL     1      -3.103  -0.538   6.777  0.00  0.00    -0.485 OA
BRANCH  25  26
ATOM     26  C   UNL     1      -2.099  -0.153   7.608  0.00  0.00    +0.121 A 
ATOM     27  C   UNL     1      -1.578  -1.048   8.530  0.00  0.00    +0.047 A 
ATOM     28  C   UNL     1      -0.558  -0.655   9.374  0.00  0.00    +0.023 A 
ATOM     29  C   UNL     1      -0.055   0.632   9.299  0.00  0.00    +0.041 A 
ATOM     30  C   UNL     1      -0.573   1.527   8.380  0.00  0.00    +0.023 A 
ATOM     31  C   UNL     1      -1.589   1.135   7.530  0.00  0.00    +0.047 A 
ATOM     32 CL   UNL     1       1.228   1.124  10.361  0.00  0.00    -0.084 Cl
ENDBRANCH  25  26
ENDBRANCH  24  25
ENDBRANCH  22  24
ENDBRANCH   2  19
TORSDOF 7
