REMARK  Name = ZINC63627492
REMARK  4 active torsions:
REMARK  status: ('A' for Active; 'I' for Inactive)
REMARK    1  A    between atoms: C_5  and  S_7
REMARK    2  A    between atoms: S_7  and  N_10
REMARK    3  A    between atoms: N_10  and  C_11
REMARK    4  A    between atoms: C_14  and  C_17
REMARK                            x       y       z     vdW  Elec       q    Type
REMARK                         _______ _______ _______ _____ _____    ______ ____
ROOT
ATOM      1  C   UNL     1       0.007  -2.573   2.320  0.00  0.00    +0.048 A 
ATOM      2  C   UNL     1      -0.693  -1.391   2.116  0.00  0.00    +0.025 A 
ATOM      3  C   UNL     1      -1.836  -1.132   2.846  0.00  0.00    +0.008 A 
ATOM      4  C   UNL     1      -2.284  -2.049   3.780  0.00  0.00    -0.021 A 
ATOM      5  C   UNL     1      -1.590  -3.227   3.986  0.00  0.00    +0.008 A 
ATOM      6  C   UNL     1      -0.449  -3.494   3.255  0.00  0.00    +0.025 A 
ENDROOT
BRANCH   4   7
ATOM      7  C   UNL     1      -3.532  -1.762   4.576  0.00  0.00    +0.133 C 
ATOM      8  C   UNL     1      -4.697  -2.551   4.020  0.00  0.00    +0.012 C 
ATOM      9  C   UNL     1      -5.115  -3.357   5.022  0.00  0.00    -0.001 A 
ATOM     10  C   UNL     1      -6.192  -4.350   5.115  0.00  0.00    +0.048 A 
ATOM     11  C   UNL     1      -6.373  -5.016   6.280  0.00  0.00    +0.124 A 
ATOM     12  C   UNL     1      -5.557  -4.780   7.398  0.00  0.00    +0.040 A 
ATOM     13  C   UNL     1      -4.548  -3.884   7.388  0.00  0.00    +0.029 A 
ATOM     14  C   UNL     1      -4.269  -3.128   6.216  0.00  0.00    +0.043 A 
ATOM     15  N   UNL     1      -3.362  -2.214   5.962  0.00  0.00    -0.374 N 
ATOM     16  F   UNL     1      -7.364  -5.930   6.369  0.00  0.00    -0.205 F 
ATOM     17  H   UNL     1      -2.692  -1.892   6.584  0.00  0.00    +0.161 HD
ENDBRANCH   4   7
BRANCH   1  18
ATOM     18  N   UNL     1       1.163  -2.838   1.583  0.00  0.00    -0.216 N 
ATOM     19  H   UNL     1       2.034  -2.757   2.002  0.00  0.00    +0.174 HD
BRANCH  18  20
ATOM     20  S   UNL     1       1.047  -3.291  -0.005  0.00  0.00    +0.072 S 
ATOM     21  O   UNL     1       2.369  -3.564  -0.448  0.00  0.00    -0.150 OA
ATOM     22  O   UNL     1       0.213  -2.332  -0.641  0.00  0.00    -0.150 OA
BRANCH  20  27
ATOM     23  C   UNL     1       0.176  -7.212   0.106  0.00  0.00    +0.005 A 
ATOM     24  C   UNL     1      -1.188  -7.228  -0.116  0.00  0.00    +0.038 A 
ATOM     25  C   UNL     1      -1.872  -6.039  -0.304  0.00  0.00    +0.125 A 
ATOM     26  C   UNL     1      -1.188  -4.835  -0.270  0.00  0.00    +0.067 A 
ATOM     27  C   UNL     1       0.176  -4.822  -0.048  0.00  0.00    +0.111 A 
ATOM     28  C   UNL     1       0.858  -6.011   0.140  0.00  0.00    +0.029 A 
ATOM     29  F   UNL     1      -3.205  -6.053  -0.521  0.00  0.00    -0.205 F 
ENDBRANCH  20  27
ENDBRANCH  18  20
ENDBRANCH   1  18
TORSDOF 4
