REMARK  Name = ZINC12338908
REMARK  5 active torsions:
REMARK  status: ('A' for Active; 'I' for Inactive)
REMARK    1  A    between atoms: C_1  and  C_2
REMARK    2  A    between atoms: C_5  and  C_26
REMARK    3  A    between atoms: N_14  and  C_15
REMARK    4  A    between atoms: C_15  and  C_16
REMARK    5  A    between atoms: N_24  and  C_25
REMARK                            x       y       z     vdW  Elec       q    Type
REMARK                         _______ _______ _______ _____ _____    ______ ____
ROOT
ATOM      1  C   UNL     1      -2.137  -1.484  -1.110  0.00  0.00    +0.009 C 
ATOM      2  C   UNL     1      -1.453  -1.984   0.164  0.00  0.00    +0.004 C 
ATOM      3  C   UNL     1      -2.121  -1.348   1.385  0.00  0.00    +0.009 C 
ATOM      4  C   UNL     1      -1.458  -1.872   2.662  0.00  0.00    +0.004 C 
ATOM      5  C   UNL     1       0.023  -1.480   2.662  0.00  0.00    +0.111 C 
ATOM      6  N   UNL     1       0.640  -1.964   1.419  0.00  0.00    -0.300 N 
ATOM      7  C   UNL     1       0.028  -1.594   0.135  0.00  0.00    +0.111 C 
ATOM      8  C   UNL     1       1.769  -2.749   1.457  0.00  0.00    +0.201 A 
ATOM      9  N   UNL     1       1.780  -4.062   1.571  0.00  0.00    -0.196 NA
ATOM     10  C   UNL     1       3.038  -4.508   1.575  0.00  0.00    +0.170 A 
ATOM     11  C   UNL     1       3.875  -3.404   1.456  0.00  0.00    +0.153 A 
ATOM     12  N   UNL     1       3.047  -2.292   1.376  0.00  0.00    -0.302 N 
ATOM     13  C   UNL     1       5.267  -3.598   1.435  0.00  0.00    +0.280 A 
ATOM     14  O   UNL     1       6.020  -2.645   1.331  0.00  0.00    -0.265 OA
ATOM     15  N   UNL     1       5.761  -4.849   1.530  0.00  0.00    -0.273 N 
ATOM     16  H   UNL     1       6.722  -4.986   1.516  0.00  0.00    +0.173 HD
ATOM     17  C   UNL     1       4.943  -5.910   1.646  0.00  0.00    +0.331 A 
ATOM     18  O   UNL     1       5.424  -7.023   1.730  0.00  0.00    -0.246 OA
ATOM     19  N   UNL     1       3.605  -5.769   1.670  0.00  0.00    -0.280 N 
ATOM     20  C   UNL     1       2.747  -6.950   1.797  0.00  0.00    +0.155 C 
ATOM     21  C   UNL     1      -2.149  -1.261   3.883  0.00  0.00    +0.009 C 
ENDROOT
BRANCH  12  22
ATOM     22  C   UNL     1       3.468  -0.897   1.234  0.00  0.00    +0.152 C 
BRANCH  22  23
ATOM     23  C   UNL     1       3.700  -0.301   2.599  0.00  0.00    -0.013 C 
ATOM     24  C   UNL     1       4.853   0.252   2.885  0.00  0.00    +0.005 C 
ENDBRANCH  22  23
ENDBRANCH  12  22
TORSDOF 2
