REMARK  Name = ZINC63929213
REMARK  5 active torsions:
REMARK  status: ('A' for Active; 'I' for Inactive)
REMARK    1  A    between atoms: C_1  and  C_2
REMARK    2  A    between atoms: C_4  and  C_13
REMARK    3  A    between atoms: C_13  and  C_14
REMARK    4  A    between atoms: C_14  and  N_15
REMARK    5  A    between atoms: C_16  and  C_18
REMARK                            x       y       z     vdW  Elec       q    Type
REMARK                         _______ _______ _______ _____ _____    ______ ____
ROOT
ATOM      1  N   UNL     1      -4.819  -0.826  -1.544  0.00  0.00    -0.314 N 
ATOM      2  C   UNL     1      -6.036  -1.379  -1.371  0.00  0.00    +0.227 C 
ATOM      3  O   UNL     1      -6.258  -2.061  -0.393  0.00  0.00    -0.275 OA
ATOM      4  H   UNL     1      -4.641  -0.280  -2.326  0.00  0.00    +0.149 HD
ENDROOT
BRANCH   2   5
ATOM      5  C   UNL     1      -7.120  -1.150  -2.393  0.00  0.00    +0.188 C 
ATOM      6  C   UNL     1      -8.404  -1.862  -1.956  0.00  0.00    +0.063 C 
ATOM      7  C   UNL     1      -9.578  -1.322  -2.733  0.00  0.00    -0.004 A 
ATOM      8  C   UNL     1     -10.729  -2.090  -2.810  0.00  0.00    +0.007 A 
ATOM      9  C   UNL     1     -11.830  -1.631  -3.505  0.00  0.00    +0.000 A 
ATOM     10  C   UNL     1     -11.789  -0.398  -4.129  0.00  0.00    +0.004 A 
ATOM     11  C   UNL     1     -10.646   0.371  -4.058  0.00  0.00    +0.046 A 
ATOM     12  C   UNL     1      -9.534  -0.091  -3.361  0.00  0.00    +0.135 A 
ATOM     13  O   UNL     1      -8.419   0.691  -3.332  0.00  0.00    -0.425 OA
ATOM     14  C   UNL     1      -7.427   0.331  -2.493  0.00  0.00    +0.325 C 
ATOM     15  O   UNL     1      -6.813   1.149  -1.851  0.00  0.00    -0.250 OA
ENDBRANCH   2   5
BRANCH   1  16
ATOM     16  C   UNL     1      -3.765  -1.049  -0.551  0.00  0.00    +0.108 C 
BRANCH  16  17
ATOM     17  C   UNL     1      -2.494  -0.316  -0.984  0.00  0.00    +0.052 C 
BRANCH  17  20
ATOM     18  C   UNL     1      -0.019   1.526   0.010  0.00  0.00    +0.035 C 
ATOM     19  C   UNL     1       0.002  -0.004   0.002  0.00  0.00    +0.103 C 
ATOM     20  C   UNL     1      -1.410  -0.545   0.038  0.00  0.00    -0.037 C 
ATOM     21  C   UNL     1      -1.503  -1.275   1.172  0.00  0.00    +0.000 A 
ATOM     22  C   UNL     1      -2.599  -2.045   1.772  0.00  0.00    +0.025 A 
ATOM     23  C   UNL     1      -2.386  -2.686   2.945  0.00  0.00    +0.019 A 
ATOM     24  C   UNL     1      -1.147  -2.632   3.600  0.00  0.00    +0.017 A 
ATOM     25  C   UNL     1      -0.093  -1.946   3.111  0.00  0.00    +0.027 A 
ATOM     26  C   UNL     1      -0.205  -1.235   1.884  0.00  0.00    +0.043 A 
ATOM     27  N   UNL     1       0.658  -0.508   1.214  0.00  0.00    -0.378 N 
ATOM     28 BR   UNL     1      -3.796  -3.679   3.720  0.00  0.00    -0.050 Br
ATOM     29  H   UNL     1       1.576  -0.332   1.475  0.00  0.00    +0.160 HD
ENDBRANCH  17  20
ENDBRANCH  16  17
ENDBRANCH   1  16
TORSDOF 4
