REMARK  Name = ZINC63136961
REMARK  5 active torsions:
REMARK  status: ('A' for Active; 'I' for Inactive)
REMARK    1  A    between atoms: C_1  and  O_2
REMARK    2  A    between atoms: O_2  and  C_3
REMARK    3  A    between atoms: C_7  and  C_9
REMARK    4  A    between atoms: C_9  and  N_10
REMARK    5  A    between atoms: C_30  and  C_32
REMARK                            x       y       z     vdW  Elec       q    Type
REMARK                         _______ _______ _______ _____ _____    ______ ____
ROOT
ATOM      1  N   UNL     1       2.428  -4.377  -1.196  0.00  0.00    -0.287 N 
ATOM      2  C   UNL     1       3.526  -4.550  -2.131  0.00  0.00    +0.204 C 
ATOM      3  C   UNL     1       4.736  -5.133  -1.479  0.00  0.00    +0.234 C 
ATOM      4  O   UNL     1       5.713  -5.322  -2.171  0.00  0.00    -0.274 OA
ATOM      5  N   UNL     1       4.818  -5.462  -0.184  0.00  0.00    -0.279 N 
ATOM      6  C   UNL     1       3.716  -5.265   0.751  0.00  0.00    +0.167 C 
ATOM      7  C   UNL     1       2.504  -4.688   0.097  0.00  0.00    +0.237 C 
ATOM      8  O   UNL     1       1.525  -4.494   0.786  0.00  0.00    -0.274 OA
ATOM      9  C   UNL     1       4.163  -4.348   1.904  0.00  0.00    +0.065 C 
ATOM     10  C   UNL     1       5.510  -4.853   2.358  0.00  0.00    -0.034 C 
ATOM     11  C   UNL     1       5.971  -5.171   3.561  0.00  0.00    -0.001 A 
ATOM     12  C   UNL     1       5.380  -5.043   4.903  0.00  0.00    +0.010 A 
ATOM     13  C   UNL     1       6.137  -5.498   5.937  0.00  0.00    +0.001 A 
ATOM     14  C   UNL     1       7.406  -6.060   5.772  0.00  0.00    +0.002 A 
ATOM     15  C   UNL     1       8.030  -6.208   4.577  0.00  0.00    +0.026 A 
ATOM     16  C   UNL     1       7.338  -5.759   3.415  0.00  0.00    +0.043 A 
ATOM     17  N   UNL     1       7.703  -5.757   2.167  0.00  0.00    -0.375 N 
ATOM     18  C   UNL     1       6.648  -5.118   1.379  0.00  0.00    +0.131 C 
ATOM     19  C   UNL     1       6.088  -6.049   0.300  0.00  0.00    +0.134 C 
ATOM     20  H   UNL     1       8.532  -6.118   1.817  0.00  0.00    +0.160 HD
ENDROOT
BRANCH  19  21
ATOM     21  C   UNL     1       5.830  -7.413   0.886  0.00  0.00    -0.017 A 
ATOM     22  C   UNL     1       4.954  -7.560   1.917  0.00  0.00    +0.006 A 
ATOM     23  C   UNL     1       4.702  -8.813   2.472  0.00  0.00    +0.001 A 
ATOM     24  C   UNL     1       5.326  -9.927   1.999  0.00  0.00    +0.008 A 
ATOM     25  C   UNL     1       6.237  -9.815   0.935  0.00  0.00    -0.018 A 
ATOM     26  C   UNL     1       6.488  -8.541   0.367  0.00  0.00    -0.013 A 
ATOM     27  C   UNL     1       7.395  -8.430  -0.701  0.00  0.00    +0.009 A 
ATOM     28  C   UNL     1       8.014  -9.544  -1.178  0.00  0.00    +0.001 A 
ATOM     29  C   UNL     1       7.762 -10.798  -0.623  0.00  0.00    +0.001 A 
ATOM     30  C   UNL     1       6.900 -10.942   0.420  0.00  0.00    +0.008 A 
ENDBRANCH  19  21
BRANCH   1  31
ATOM     31  C   UNL     1       1.169  -3.824  -1.702  0.00  0.00    +0.143 C 
BRANCH  31  36
ATOM     32  C   UNL     1       0.763  -0.326  -0.332  0.00  0.00    +0.120 A 
ATOM     33  C   UNL     1       1.252   0.438  -1.381  0.00  0.00    +0.045 A 
ATOM     34  C   UNL     1       1.711  -0.179  -2.528  0.00  0.00    +0.004 A 
ATOM     35  C   UNL     1       1.684  -1.558  -2.631  0.00  0.00    +0.005 A 
ATOM     36  C   UNL     1       1.197  -2.322  -1.587  0.00  0.00    -0.027 A 
ATOM     37  C   UNL     1       0.742  -1.709  -0.435  0.00  0.00    +0.050 A 
BRANCH  32  39
ATOM     38  C   UNL     1       0.363   1.707   0.835  0.00  0.00    +0.277 C 
ATOM     39  O   UNL     1       0.311   0.279   0.798  0.00  0.00    -0.495 OA
ENDBRANCH  32  39
ENDBRANCH  31  36
ENDBRANCH   1  31
TORSDOF 4
