REMARK  Name = ZINC02333990
REMARK  8 active torsions:
REMARK  status: ('A' for Active; 'I' for Inactive)
REMARK    1  A    between atoms: C_1  and  C_2
REMARK    2  A    between atoms: C_8  and  N_12
REMARK    3  A    between atoms: N_12  and  C_13
REMARK    4  A    between atoms: C_13  and  C_14
REMARK    5  A    between atoms: C_14  and  C_15
REMARK    6  A    between atoms: C_14  and  C_16
REMARK    7  A    between atoms: C_21  and  C_24
REMARK    8  A    between atoms: C_21  and  C_25
REMARK                            x       y       z     vdW  Elec       q    Type
REMARK                         _______ _______ _______ _____ _____    ______ ____
ROOT
ATOM      1  C   UNL     1       3.530  -3.381  -0.061  0.00  0.00    +0.066 C 
ATOM      2  C   UNL     1       3.044  -1.954  -0.043  0.00  0.00    +0.048 A 
ATOM      3  C   UNL     1       3.972  -0.922  -0.041  0.00  0.00    +0.003 A 
ATOM      4  C   UNL     1       3.524   0.382  -0.029  0.00  0.00    -0.023 A 
ATOM      5  C   UNL     1       2.149   0.609  -0.015  0.00  0.00    +0.070 A 
ATOM      6  C   UNL     1       1.303   1.813  -0.001  0.00  0.00    +0.124 A 
ATOM      7  C   UNL     1      -0.016   1.345   0.009  0.00  0.00    +0.196 A 
ATOM      8  C   UNL     1      -1.046   2.292   0.019  0.00  0.00    +0.165 A 
ATOM      9  N   UNL     1      -0.728   3.583   0.030  0.00  0.00    -0.217 NA
ATOM     10  C   UNL     1       0.531   3.978   0.019  0.00  0.00    +0.224 A 
ATOM     11  N   UNL     1       1.532   3.123   0.005  0.00  0.00    -0.231 NA
ATOM     12  O   UNL     1       0.002  -0.004   0.002  0.00  0.00    -0.432 OA
ATOM     13  C   UNL     1       1.265  -0.482  -0.014  0.00  0.00    +0.231 A 
ATOM     14  N   UNL     1       1.750  -1.716  -0.030  0.00  0.00    -0.217 NA
ATOM     15  C   UNL     1       4.480   1.543  -0.034  0.00  0.00    +0.070 C 
ATOM     16  C   UNL     1       5.878   1.062   0.364  0.00  0.00    +0.068 C 
ATOM     17  O   UNL     1       6.200  -0.095  -0.415  0.00  0.00    -0.369 OA
ATOM     18  C   UNL     1       5.441  -1.248  -0.050  0.00  0.00    +0.197 C 
ATOM     19  C   UNL     1       6.899   2.168   0.089  0.00  0.00    +0.041 C 
ATOM     20  C   UNL     1       5.894   0.707   1.852  0.00  0.00    +0.041 C 
ENDROOT
BRANCH   8  21
ATOM     21  N   UNL     1      -2.374   1.892   0.023  0.00  0.00    -0.326 N 
ATOM     22  H   UNL     1      -2.596   0.948   0.019  0.00  0.00    +0.148 HD
BRANCH  21  23
ATOM     23  C   UNL     1      -3.441   2.895   0.033  0.00  0.00    +0.106 C 
BRANCH  23  24
ATOM     24  C   UNL     1      -4.801   2.193   0.036  0.00  0.00    -0.000 C 
ATOM     25  C   UNL     1      -4.968   1.411   1.340  0.00  0.00    +0.009 C 
ATOM     26  C   UNL     1      -5.914   3.237  -0.079  0.00  0.00    +0.009 C 
ENDBRANCH  23  24
ENDBRANCH  21  23
ENDBRANCH   8  21
TORSDOF 3
