REMARK  Name = ZINC29658017
REMARK  8 active torsions:
REMARK  status: ('A' for Active; 'I' for Inactive)
REMARK    1  A    between atoms: C_1  and  C_2
REMARK    2  A    between atoms: C_2  and  C_4
REMARK    3  A    between atoms: C_2  and  N_12
REMARK    4  A    between atoms: N_15  and  N_16
REMARK    5  A    between atoms: C_17  and  C_19
REMARK    6  A    between atoms: C_22  and  C_24
REMARK    7  A    between atoms: C_24  and  O_25
REMARK    8  A    between atoms: O_25  and  C_26
REMARK                            x       y       z     vdW  Elec       q    Type
REMARK                         _______ _______ _______ _____ _____    ______ ____
ROOT
ATOM      1  N   UNL     1       2.140  -1.382  -3.324  0.00  0.00    -0.227 N 
ATOM      2  C   UNL     1       2.841  -1.825  -4.387  0.00  0.00    +0.295 C 
ATOM      3  O   UNL     1       4.044  -1.985  -4.298  0.00  0.00    -0.265 OA
ATOM      4  H   UNL     1       1.181  -1.254  -3.395  0.00  0.00    +0.173 HD
ENDROOT
BRANCH   1   8
ATOM      5  N   UNL     1       0.764  -0.485  -1.153  0.00  0.00    -0.292 N 
ATOM      6  C   UNL     1       2.096  -0.663  -1.055  0.00  0.00    +0.316 C 
ATOM      7  O   UNL     1       2.666  -0.424  -0.008  0.00  0.00    -0.251 OA
ATOM      8  N   UNL     1       2.797  -1.106  -2.118  0.00  0.00    -0.218 N 
ATOM      9  H   UNL     1       0.309  -0.676  -1.988  0.00  0.00    +0.151 HD
ATOM     10  H   UNL     1       3.756  -1.234  -2.047  0.00  0.00    +0.174 HD
BRANCH   5  12
ATOM     11  C   UNL     1       0.009   1.526   0.016  0.00  0.00    +0.033 C 
ATOM     12  C   UNL     1       0.002  -0.004   0.002  0.00  0.00    +0.103 C 
BRANCH  12  13
ATOM     13  C   UNL     1      -1.418  -0.499  -0.091  0.00  0.00    -0.009 A 
ATOM     14  C   UNL     1      -1.976  -0.770  -1.327  0.00  0.00    +0.008 A 
ATOM     15  C   UNL     1      -3.278  -1.224  -1.413  0.00  0.00    +0.020 A 
ATOM     16  C   UNL     1      -4.025  -1.407  -0.263  0.00  0.00    +0.042 A 
ATOM     17  C   UNL     1      -3.468  -1.137   0.974  0.00  0.00    +0.040 A 
ATOM     18  C   UNL     1      -2.162  -0.687   1.060  0.00  0.00    +0.047 A 
ATOM     19 CL   UNL     1      -1.459  -0.353   2.612  0.00  0.00    -0.083 Cl
ATOM     20 CL   UNL     1      -5.661  -1.977  -0.371  0.00  0.00    -0.083 Cl
ENDBRANCH  12  13
ENDBRANCH   5  12
ENDBRANCH   1   8
BRANCH   2  21
ATOM     21  C   UNL     1       2.154  -2.113  -5.650  0.00  0.00    +0.191 A 
ATOM     22  C   UNL     1       2.739  -2.570  -6.796  0.00  0.00    +0.055 A 
ATOM     23  C   UNL     1       1.715  -2.705  -7.746  0.00  0.00    +0.049 A 
ATOM     24  C   UNL     1       0.564  -2.330  -7.146  0.00  0.00    +0.143 A 
ATOM     25  O   UNL     1       0.832  -1.979  -5.881  0.00  0.00    -0.452 OA
BRANCH  24  26
ATOM     26  C   UNL     1      -0.798  -2.315  -7.792  0.00  0.00    +0.303 C 
BRANCH  26  27
ATOM     27  O   UNL     1      -1.433  -3.580  -7.594  0.00  0.00    -0.484 OA
BRANCH  27  28
ATOM     28  C   UNL     1      -2.677  -3.734  -8.118  0.00  0.00    +0.121 A 
ATOM     29  C   UNL     1      -3.273  -2.692  -8.813  0.00  0.00    +0.045 A 
ATOM     30  C   UNL     1      -4.537  -2.851  -9.345  0.00  0.00    +0.004 A 
ATOM     31  C   UNL     1      -5.210  -4.048  -9.185  0.00  0.00    +0.000 A 
ATOM     32  C   UNL     1      -4.619  -5.089  -8.492  0.00  0.00    +0.004 A 
ATOM     33  C   UNL     1      -3.352  -4.936  -7.964  0.00  0.00    +0.045 A 
ENDBRANCH  27  28
ENDBRANCH  26  27
ENDBRANCH  24  26
ENDBRANCH   2  21
TORSDOF 7
