REMARK  Name = ZINC02733025
REMARK  10 active torsions:
REMARK  status: ('A' for Active; 'I' for Inactive)
REMARK    1  A    between atoms: C_1  and  C_2
REMARK    2  A    between atoms: C_2  and  N_3
REMARK    3  A    between atoms: C_6  and  C_8
REMARK    4  A    between atoms: C_8  and  N_9
REMARK    5  A    between atoms: N_9  and  C_10
REMARK    6  A    between atoms: C_11  and  C_13
REMARK    7  A    between atoms: N_18  and  S_20
REMARK    8  A    between atoms: S_20  and  C_23
REMARK    9  A    between atoms: N_26  and  C_29
REMARK   10  A    between atoms: C_27  and  C_28
REMARK                            x       y       z     vdW  Elec       q    Type
REMARK                         _______ _______ _______ _____ _____    ______ ____
ROOT
ATOM      1  C   UNL     1       1.236  -1.475   0.770  0.00  0.00    +0.091 C 
ATOM      2  C   UNL     1       1.544  -2.064   2.148  0.00  0.00    +0.015 C 
ATOM      3  C   UNL     1       0.819  -1.253   3.225  0.00  0.00    +0.018 C 
ATOM      4  C   UNL     1       1.326   0.197   3.194  0.00  0.00    +0.109 C 
ATOM      5  N   UNL     1       1.161   0.720   1.831  0.00  0.00    -0.176 NA
ATOM      6  C   UNL     1       1.743  -0.031   0.711  0.00  0.00    +0.122 C 
ENDROOT
BRANCH   1   9
ATOM      7  N   UNL     1       1.502  -3.546  -0.557  0.00  0.00    -0.298 N 
ATOM      8  C   UNL     1       0.306  -4.072   0.106  0.00  0.00    +0.132 C 
ATOM      9  C   UNL     1       1.924  -2.294  -0.292  0.00  0.00    +0.220 C 
ATOM     10  O   UNL     1       2.858  -1.825  -0.908  0.00  0.00    -0.275 OA
BRANCH   7  11
ATOM     11  C   UNL     1       2.238  -4.381  -1.509  0.00  0.00    +0.166 C 
BRANCH  11  15
ATOM     12  N   UNL     1       4.361  -6.728   0.339  0.00  0.00    -0.270 N 
ATOM     13  C   UNL     1       5.245  -5.727   0.142  0.00  0.00    +0.128 A 
ATOM     14  C   UNL     1       4.614  -4.749  -0.550  0.00  0.00    +0.083 A 
ATOM     15  C   UNL     1       3.297  -5.164  -0.776  0.00  0.00    +0.098 A 
ATOM     16  N   UNL     1       3.145  -6.351  -0.247  0.00  0.00    -0.173 NA
ATOM     17 CL   UNL     1       5.314  -3.245  -1.062  0.00  0.00    -0.080 Cl
BRANCH  12  19
ATOM     18  C   UNL     1       3.602  -8.168   2.164  0.00  0.00    +0.029 C 
ATOM     19  C   UNL     1       4.625  -7.986   1.042  0.00  0.00    +0.140 C 
ENDBRANCH  12  19
ENDBRANCH  11  15
ENDBRANCH   7  11
ENDBRANCH   1   9
BRANCH   5  20
ATOM     20  S   UNL     1       0.342   2.135   1.565  0.00  0.00    +0.064 S 
ATOM     21  O   UNL     1       0.818   2.653   0.331  0.00  0.00    -0.153 OA
ATOM     22  O   UNL     1       0.403   2.874   2.776  0.00  0.00    -0.153 OA
BRANCH  20  23
ATOM     23  C   UNL     1      -1.351   1.716   1.315  0.00  0.00    +0.146 A 
ATOM     24  C   UNL     1      -2.419   2.074   2.145  0.00  0.00    +0.163 A 
ATOM     25  N   UNL     1      -3.518   1.582   1.633  0.00  0.00    -0.178 NA
ATOM     26  N   UNL     1      -3.184   0.899   0.456  0.00  0.00    -0.270 N 
ATOM     27  C   UNL     1      -1.849   0.992   0.286  0.00  0.00    +0.062 A 
ATOM     28  C   UNL     1      -1.055   0.401  -0.851  0.00  0.00    +0.067 C 
ATOM     29  C   UNL     1      -4.120   0.204  -0.431  0.00  0.00    +0.172 C 
ENDBRANCH  20  23
ENDBRANCH   5  20
TORSDOF 6
