REMARK  Name = ZINC04228052
REMARK  4 active torsions:
REMARK  status: ('A' for Active; 'I' for Inactive)
REMARK    1  A    between atoms: C_1  and  N_2
REMARK    2  A    between atoms: N_2  and  C_3
REMARK    3  A    between atoms: N_2  and  C_4
REMARK    4  A    between atoms: C_7  and  C_10
REMARK                            x       y       z     vdW  Elec       q    Type
REMARK                         _______ _______ _______ _____ _____    ______ ____
ROOT
ATOM      1  C   UNL     1      -0.638   6.364  -0.225  0.00  0.00    +0.029 A 
ATOM      2  C   UNL     1      -1.917   5.820  -0.135  0.00  0.00    +0.023 A 
ATOM      3  C   UNL     1      -2.081   4.467  -0.043  0.00  0.00    +0.010 A 
ATOM      4  C   UNL     1      -0.959   3.626  -0.041  0.00  0.00    -0.025 A 
ATOM      5  C   UNL     1       0.326   4.179  -0.126  0.00  0.00    +0.010 A 
ATOM      6  C   UNL     1       0.479   5.533  -0.223  0.00  0.00    +0.023 A 
ENDROOT
BRANCH   4   7
ATOM      7  C   UNL     1      -1.129   2.173   0.057  0.00  0.00    +0.015 C 
ATOM      8  C   UNL     1      -2.267   1.591  -0.398  0.00  0.00    -0.004 C 
ATOM      9  C   UNL     1      -3.373   2.302  -1.144  0.00  0.00    +0.039 C 
ATOM     10  C   UNL     1      -4.200   1.180  -1.809  0.00  0.00    +0.013 C 
ATOM     11  C   UNL     1      -3.950  -0.026  -0.879  0.00  0.00    +0.079 C 
ATOM     12  C   UNL     1      -2.603   0.234  -0.243  0.00  0.00    +0.159 C 
ATOM     13  O   UNL     1      -1.918  -0.600   0.314  0.00  0.00    -0.292 OA
ENDBRANCH   4   7
BRANCH   1  15
ATOM     14  C   UNL     1      -1.640   8.625  -0.200  0.00  0.00    +0.129 C 
ATOM     15  N   UNL     1      -0.477   7.742  -0.317  0.00  0.00    -0.336 N 
ATOM     16  C   UNL     1       0.856   8.310  -0.532  0.00  0.00    +0.129 C 
ENDBRANCH   1  15
TORSDOF 2
