REMARK  Name = ZINC49584036
REMARK  12 active torsions:
REMARK  status: ('A' for Active; 'I' for Inactive)
REMARK    1  A    between atoms: C_1  and  C_2
REMARK    2  A    between atoms: C_2  and  O_3
REMARK    3  A    between atoms: O_3  and  C_4
REMARK    4  A    between atoms: C_10  and  C_11
REMARK    5  A    between atoms: C_14  and  O_21
REMARK    6  A    between atoms: C_15  and  O_19
REMARK    7  A    between atoms: C_16  and  O_17
REMARK    8  A    between atoms: O_17  and  C_18
REMARK    9  A    between atoms: O_19  and  C_20
REMARK   10  A    between atoms: O_21  and  C_22
REMARK   11  A    between atoms: N_25  and  C_26
REMARK   12  A    between atoms: C_29  and  N_32
REMARK                            x       y       z     vdW  Elec       q    Type
REMARK                         _______ _______ _______ _____ _____    ______ ____
ROOT
ATOM      1  C   UNL     1       0.477  -1.766   1.511  0.00  0.00    +0.346 C 
ATOM      2  O   UNL     1      -0.132  -2.578   0.632  0.00  0.00    -0.245 OA
ATOM      3  C   UNL     1       1.220  -2.311   2.571  0.00  0.00    +0.139 C 
ATOM      4  C   UNL     1       1.370  -3.755   2.775  0.00  0.00    +0.120 C 
ATOM      5  S   UNL     1       2.388  -3.863   4.231  0.00  0.00    -0.065 S 
ATOM      6  C   UNL     1       2.615  -2.236   4.568  0.00  0.00    +0.062 C 
ATOM      7  C   UNL     1       3.350  -1.679   5.625  0.00  0.00    +0.030 C 
ATOM      8  C   UNL     1       1.882  -1.520   3.515  0.00  0.00    +0.209 C 
ATOM      9  O   UNL     1       1.850  -0.302   3.470  0.00  0.00    -0.286 OA
ATOM     10  N   UNL     1       0.867  -4.746   2.047  0.00  0.00    -0.240 NA
ENDROOT
BRANCH   7  11
ATOM     11  C   UNL     1       3.844  -2.503   6.647  0.00  0.00    +0.022 A 
ATOM     12  C   UNL     1       3.279  -3.781   6.867  0.00  0.00    +0.015 A 
ATOM     13  C   UNL     1       3.760  -4.577   7.857  0.00  0.00    +0.050 A 
ATOM     14  C   UNL     1       4.816  -4.143   8.668  0.00  0.00    +0.165 A 
ATOM     15  C   UNL     1       5.390  -2.888   8.471  0.00  0.00    +0.204 A 
ATOM     16  C   UNL     1       4.918  -2.064   7.463  0.00  0.00    +0.172 A 
BRANCH  16  17
ATOM     17  O   UNL     1       5.475  -0.844   7.262  0.00  0.00    -0.491 OA
ATOM     18  C   UNL     1       4.910   0.253   7.982  0.00  0.00    +0.277 C 
ENDBRANCH  16  17
BRANCH  15  19
ATOM     19  O   UNL     1       6.416  -2.475   9.264  0.00  0.00    -0.488 OA
ATOM     20  C   UNL     1       7.740  -2.788   8.827  0.00  0.00    +0.277 C 
ENDBRANCH  15  19
BRANCH  14  21
ATOM     21  O   UNL     1       5.283  -4.949   9.652  0.00  0.00    -0.491 OA
ATOM     22  C   UNL     1       4.652  -6.222   9.802  0.00  0.00    +0.277 C 
ENDBRANCH  14  21
ENDBRANCH   7  11
BRANCH  10  23
ATOM     23  C   UNL     1       1.111  -6.017   2.388  0.00  0.00    +0.065 A 
ATOM     24  C   UNL     1       2.416  -6.418   2.753  0.00  0.00    +0.030 A 
ATOM     25  C   UNL     1       2.651  -7.718   3.098  0.00  0.00    +0.035 A 
ATOM     26  C   UNL     1       1.616  -8.643   3.091  0.00  0.00    +0.126 A 
ATOM     27  C   UNL     1       0.329  -8.261   2.734  0.00  0.00    +0.035 A 
ATOM     28  C   UNL     1       0.066  -6.967   2.390  0.00  0.00    +0.030 A 
BRANCH  26  29
ATOM     29  N   UNL     1       1.886 -10.049   3.468  0.00  0.00    +0.056 N 
ATOM     30  O   UNL     1       3.104 -10.417   3.807  0.00  0.00    -0.126 OA
ATOM     31  O   UNL     1       0.908 -10.931   3.464  0.00  0.00    -0.126 OA
ENDBRANCH  26  29
ENDBRANCH  10  23
BRANCH   1  32
ATOM     32  O   UNL     1       0.376  -0.435   1.377  0.00  0.00    -0.461 OA
BRANCH  32  34
ATOM     33  C   UNL     1      -0.396   1.580   0.287  0.00  0.00    +0.048 C 
ATOM     34  C   UNL     1      -0.395   0.050   0.276  0.00  0.00    +0.229 C 
ENDBRANCH  32  34
ENDBRANCH   1  32
TORSDOF 8
