REMARK  Name = ZINC35756878
REMARK  12 active torsions:
REMARK  status: ('A' for Active; 'I' for Inactive)
REMARK    1  A    between atoms: C_1  and  C_2
REMARK    2  A    between atoms: C_7  and  C_8
REMARK    3  A    between atoms: C_8  and  N_9
REMARK    4  A    between atoms: C_10  and  C_31
REMARK    5  A    between atoms: C_12  and  C_17
REMARK    6  A    between atoms: C_20  and  N_23
REMARK    7  A    between atoms: C_24  and  C_26
REMARK    8  A    between atoms: N_33  and  C_34
REMARK    9  A    between atoms: C_34  and  C_35
REMARK   10  A    between atoms: C_35  and  N_36
REMARK   11  A    between atoms: N_36  and  C_37
REMARK   12  A    between atoms: N_36  and  C_38
REMARK                            x       y       z     vdW  Elec       q    Type
REMARK                         _______ _______ _______ _____ _____    ______ ____
ROOT
ATOM      1  N   UNL     1      -1.431  -0.027   3.189  0.00  0.00    -0.248 N 
ATOM      2  C   UNL     1      -2.155   1.212   2.843  0.00  0.00    +0.210 C 
ATOM      3  C   UNL     1      -3.632   0.793   3.035  0.00  0.00    +0.238 C 
ATOM      4  O   UNL     1      -3.515  -0.301   3.966  0.00  0.00    -0.440 OA
ATOM      5  C   UNL     1      -2.298  -0.849   3.809  0.00  0.00    +0.405 C 
ATOM      6  O   UNL     1      -2.010  -1.966   4.190  0.00  0.00    -0.226 OA
ENDROOT
BRANCH   3   7
ATOM      7  C   UNL     1      -4.439   1.920   3.626  0.00  0.00    -0.005 A 
ATOM      8  C   UNL     1      -4.383   2.170   4.985  0.00  0.00    +0.009 A 
ATOM      9  C   UNL     1      -5.121   3.202   5.530  0.00  0.00    +0.024 A 
ATOM     10  C   UNL     1      -5.921   3.989   4.712  0.00  0.00    +0.034 A 
ATOM     11  C   UNL     1      -5.975   3.736   3.347  0.00  0.00    +0.024 A 
ATOM     12  C   UNL     1      -5.230   2.705   2.808  0.00  0.00    +0.009 A 
BRANCH  10  13
ATOM     13  N   UNL     1      -6.670   5.034   5.260  0.00  0.00    -0.279 N 
ATOM     14  C   UNL     1      -7.866   5.357   4.729  0.00  0.00    +0.284 C 
ATOM     15  O   UNL     1      -8.337   4.680   3.834  0.00  0.00    -0.266 OA
ATOM     16  H   UNL     1      -6.329   5.527   6.023  0.00  0.00    +0.155 HD
BRANCH  14  17
ATOM     17  C   UNL     1      -8.601   6.523   5.231  0.00  0.00    +0.189 A 
ATOM     18  C   UNL     1      -9.818   6.956   4.788  0.00  0.00    +0.054 A 
ATOM     19  C   UNL     1     -10.140   8.095   5.543  0.00  0.00    +0.042 A 
ATOM     20  C   UNL     1      -9.118   8.305   6.402  0.00  0.00    +0.196 A 
ATOM     21  O   UNL     1      -8.195   7.352   6.214  0.00  0.00    -0.458 OA
ENDBRANCH  14  17
ENDBRANCH  10  13
ENDBRANCH   3   7
BRANCH   2  22
ATOM     22  C   UNL     1      -1.784   2.330   3.784  0.00  0.00    +0.238 C 
ATOM     23  O   UNL     1      -1.268   2.078   4.852  0.00  0.00    -0.274 OA
ATOM     24  N   UNL     1      -2.026   3.610   3.438  0.00  0.00    -0.315 N 
ATOM     25  H   UNL     1      -2.438   3.812   2.583  0.00  0.00    +0.149 HD
BRANCH  24  26
ATOM     26  C   UNL     1      -1.665   4.697   4.352  0.00  0.00    +0.085 C 
BRANCH  26  27
ATOM     27  C   UNL     1      -2.043   6.039   3.723  0.00  0.00    -0.061 C 
BRANCH  27  28
ATOM     28  N   UNL     1      -1.681   7.128   4.639  0.00  0.00    +0.377 N 
ATOM     29  C   UNL     1      -0.222   7.171   4.798  0.00  0.00    -0.097 C 
ATOM     30  C   UNL     1      -2.152   8.407   4.090  0.00  0.00    -0.097 C 
ATOM     31  H   UNL     1      -2.113   6.970   5.537  0.00  0.00    -0.083 HD
ENDBRANCH  27  28
ENDBRANCH  26  27
ENDBRANCH  24  26
ENDBRANCH   2  22
BRANCH   1  32
ATOM     32  C   UNL     1      -0.023  -0.314   2.902  0.00  0.00    +0.147 C 
BRANCH  32  39
ATOM     33  C   UNL     1       2.551  -1.214   1.948  0.00  0.00    +0.044 C 
ATOM     34  C   UNL     1       1.320  -1.421   1.103  0.00  0.00    -0.046 A 
ATOM     35  C   UNL     1       1.421  -2.046  -0.125  0.00  0.00    +0.003 A 
ATOM     36  C   UNL     1       0.292  -2.236  -0.900  0.00  0.00    +0.000 A 
ATOM     37  C   UNL     1      -0.939  -1.801  -0.445  0.00  0.00    +0.000 A 
ATOM     38  C   UNL     1      -1.040  -1.176   0.783  0.00  0.00    +0.005 A 
ATOM     39  C   UNL     1       0.088  -0.990   1.560  0.00  0.00    -0.027 A 
ENDBRANCH  32  39
ENDBRANCH   1  32
TORSDOF 9
