REMARK  Name = ZINC24002589
REMARK  11 active torsions:
REMARK  status: ('A' for Active; 'I' for Inactive)
REMARK    1  A    between atoms: C_1  and  C_2
REMARK    2  A    between atoms: C_2  and  O_3
REMARK    3  A    between atoms: O_3  and  C_4
REMARK    4  A    between atoms: C_4  and  C_6
REMARK    5  A    between atoms: C_7  and  C_19
REMARK    6  A    between atoms: C_12  and  C_14
REMARK    7  A    between atoms: C_19  and  O_20
REMARK    8  A    between atoms: O_20  and  C_21
REMARK    9  A    between atoms: C_21  and  C_23
REMARK   10  A    between atoms: C_26  and  C_37
REMARK   11  A    between atoms: N_28  and  C_31
REMARK                            x       y       z     vdW  Elec       q    Type
REMARK                         _______ _______ _______ _____ _____    ______ ____
ROOT
ATOM      1  C   UNL     1      -2.773   8.661   1.183  0.00  0.00    +0.084 C 
ATOM      2  C   UNL     1      -2.262   8.175   0.031  0.00  0.00    +0.061 C 
ATOM      3  N   UNL     1      -3.042   8.034  -1.082  0.00  0.00    -0.269 N 
ATOM      4  C   UNL     1      -4.343   8.346  -1.121  0.00  0.00    +0.305 C 
ATOM      5  O   UNL     1      -4.957   8.181  -2.157  0.00  0.00    -0.252 OA
ATOM      6  N   UNL     1      -4.994   8.843  -0.050  0.00  0.00    -0.285 N 
ATOM      7  C   UNL     1      -4.240   9.039   1.200  0.00  0.00    +0.179 C 
ATOM      8  H   UNL     1      -2.606   7.645  -2.013  0.00  0.00    +0.156 HD
ATOM      9  H   UNL     1      -6.063   9.100  -0.094  0.00  0.00    +0.151 HD
ENDROOT
BRANCH   7  10
ATOM     10  C   UNL     1      -4.341  10.493   1.580  0.00  0.00    +0.130 A 
ATOM     11  C   UNL     1      -4.642  10.967   2.803  0.00  0.00    +0.047 A 
ATOM     12  C   UNL     1      -4.628  12.378   2.710  0.00  0.00    +0.041 A 
ATOM     13  C   UNL     1      -4.319  12.682   1.436  0.00  0.00    +0.195 A 
ATOM     14  O   UNL     1      -4.142  11.536   0.758  0.00  0.00    -0.466 OA
ENDBRANCH   7  10
BRANCH   1  15
ATOM     15  C   UNL     1      -1.965   8.813   2.334  0.00  0.00    +0.339 C 
ATOM     16  O   UNL     1      -2.022   7.990   3.229  0.00  0.00    -0.245 OA
BRANCH  15  17
ATOM     17  O   UNL     1      -1.132   9.869   2.440  0.00  0.00    -0.462 OA
BRANCH  17  19
ATOM     18  C   UNL     1       0.530  11.212   3.569  0.00  0.00    +0.048 C 
ATOM     19  C   UNL     1      -0.346   9.959   3.630  0.00  0.00    +0.229 C 
ENDBRANCH  17  19
ENDBRANCH  15  17
ENDBRANCH   1  15
BRANCH   2  20
ATOM     20  C   UNL     1      -0.807   7.788  -0.030  0.00  0.00    +0.283 C 
BRANCH  20  21
ATOM     21  O   UNL     1      -0.696   6.356  -0.244  0.00  0.00    -0.455 OA
BRANCH  21  22
ATOM     22  C   UNL     1       0.550   5.844  -0.324  0.00  0.00    +0.346 C 
ATOM     23  O   UNL     1       1.516   6.575  -0.216  0.00  0.00    -0.244 OA
BRANCH  22  24
ATOM     24  C   UNL     1       0.738   4.408  -0.538  0.00  0.00    +0.099 A 
ATOM     25  C   UNL     1       1.904   3.708  -0.645  0.00  0.00    +0.034 A 
ATOM     26  C   UNL     1       1.865   2.321  -0.853  0.00  0.00    +0.031 A 
ATOM     27  C   UNL     1       2.771   1.223  -1.018  0.00  0.00    +0.069 A 
ATOM     28  N   UNL     1       2.089   0.129  -1.180  0.00  0.00    -0.170 NA
ATOM     29  N   UNL     1       0.720   0.422  -1.134  0.00  0.00    -0.225 N 
ATOM     30  C   UNL     1       0.586   1.750  -0.936  0.00  0.00    +0.113 A 
ATOM     31  S   UNL     1      -0.500   3.136  -0.721  0.00  0.00    -0.062 S 
ATOM     32  C   UNL     1       4.274   1.321  -1.006  0.00  0.00    +0.068 C 
BRANCH  29  33
ATOM     33  C   UNL     1      -0.326  -0.501  -1.269  0.00  0.00    +0.067 A 
ATOM     34  C   UNL     1      -1.496  -0.337  -0.540  0.00  0.00    +0.028 A 
ATOM     35  C   UNL     1      -2.527  -1.246  -0.679  0.00  0.00    +0.002 A 
ATOM     36  C   UNL     1      -2.390  -2.324  -1.534  0.00  0.00    +0.000 A 
ATOM     37  C   UNL     1      -1.224  -2.492  -2.258  0.00  0.00    +0.002 A 
ATOM     38  C   UNL     1      -0.191  -1.584  -2.128  0.00  0.00    +0.028 A 
ENDBRANCH  29  33
ENDBRANCH  22  24
ENDBRANCH  21  22
ENDBRANCH  20  21
ENDBRANCH   2  20
TORSDOF 9
