REMARK  Name = ZINC15548449
REMARK  16 active torsions:
REMARK  status: ('A' for Active; 'I' for Inactive)
REMARK    1  A    between atoms: C_1  and  C_2
REMARK    2  A    between atoms: C_2  and  C_3
REMARK    3  A    between atoms: C_3  and  C_4
REMARK    4  A    between atoms: C_4  and  N_5
REMARK    5  A    between atoms: N_5  and  C_6
REMARK    6  A    between atoms: C_7  and  N_19
REMARK    7  A    between atoms: N_8  and  C_15
REMARK    8  A    between atoms: C_15  and  C_16
REMARK    9  A    between atoms: C_16  and  C_17
REMARK   10  A    between atoms: C_16  and  C_18
REMARK   11  A    between atoms: C_20  and  C_22
REMARK   12  A    between atoms: C_22  and  N_74
REMARK   13  A    between atoms: C_26  and  C_28
REMARK   14  A    between atoms: C_31  and  O_34
REMARK   15  A    between atoms: O_34  and  C_35
REMARK   16  A    between atoms: C_35  and  C_36
REMARK                            x       y       z     vdW  Elec       q    Type
REMARK                         _______ _______ _______ _____ _____    ______ ____
ROOT
ATOM      1  N   UNL     1       0.486   1.437   0.137  0.00  0.00    -0.266 N 
ATOM      2  C   UNL     1      -0.780   1.613   0.567  0.00  0.00    +0.203 C 
ATOM      3  O   UNL     1      -1.367   0.704   1.115  0.00  0.00    -0.277 OA
ENDROOT
BRANCH   1   4
ATOM      4  C   UNL     1       1.093   0.166   0.232  0.00  0.00    +0.140 A 
ATOM      5  C   UNL     1       2.143  -0.046   1.101  0.00  0.00    +0.127 A 
ATOM      6  N   UNL     1       2.711  -1.297   1.177  0.00  0.00    -0.280 N 
ATOM      7  C   UNL     1       2.254  -2.299   0.403  0.00  0.00    +0.331 A 
ATOM      8  O   UNL     1       2.773  -3.396   0.480  0.00  0.00    -0.246 OA
ATOM      9  N   UNL     1       1.236  -2.109  -0.454  0.00  0.00    -0.273 N 
ATOM     10  H   UNL     1       0.915  -2.870  -1.018  0.00  0.00    +0.173 HD
ATOM     11  C   UNL     1       0.641  -0.904  -0.562  0.00  0.00    +0.277 A 
ATOM     12  O   UNL     1      -0.281  -0.743  -1.343  0.00  0.00    -0.266 OA
BRANCH   5  13
ATOM     13  N   UNL     1       2.614   0.978   1.888  0.00  0.00    -0.343 N 
ATOM     14  H   UNL     1       2.231   1.866   1.807  0.00  0.00    +0.144 HD
ATOM     15  H   UNL     1       3.328   0.814   2.523  0.00  0.00    +0.144 HD
ENDBRANCH   5  13
BRANCH   6  16
ATOM     16  C   UNL     1       3.822  -1.539   2.099  0.00  0.00    +0.131 C 
BRANCH  16  17
ATOM     17  C   UNL     1       5.146  -1.252   1.389  0.00  0.00    +0.003 C 
ATOM     18  C   UNL     1       6.299  -1.383   2.386  0.00  0.00    +0.009 C 
ATOM     19  C   UNL     1       5.341  -2.255   0.249  0.00  0.00    +0.009 C 
ENDBRANCH  16  17
ENDBRANCH   6  16
ENDBRANCH   1   4
BRANCH   1  20
ATOM     20  C   UNL     1       1.230   2.562  -0.435  0.00  0.00    +0.114 C 
BRANCH  20  21
ATOM     21  C   UNL     1       0.896   2.691  -1.923  0.00  0.00    +0.019 C 
BRANCH  21  23
ATOM     22  C   UNL     1       1.338   3.994  -4.008  0.00  0.00    +0.004 C 
ATOM     23  C   UNL     1       1.672   3.866  -2.520  0.00  0.00    -0.002 C 
ENDBRANCH  21  23
ENDBRANCH  20  21
ENDBRANCH   1  20
BRANCH   2  24
ATOM     24  C   UNL     1      -1.466   2.940   0.367  0.00  0.00    +0.020 C 
BRANCH  24  29
ATOM     25  C   UNL     1      -3.676   1.943   0.212  0.00  0.00    -0.077 C 
ATOM     26  C   UNL     1      -5.104   2.519   0.238  0.00  0.00    -0.020 C 
ATOM     27  C   UNL     1      -4.986   3.855   1.006  0.00  0.00    -0.013 C 
ATOM     28  C   UNL     1      -3.485   4.210   0.856  0.00  0.00    -0.037 C 
ATOM     29  N   UNL     1      -2.840   2.895   0.952  0.00  0.00    +0.390 N 
ATOM     30  H   UNL     1      -2.777   2.611   1.936  0.00  0.00    -0.080 HD
BRANCH  28  31
ATOM     31  C   UNL     1      -3.038   5.116   1.975  0.00  0.00    -0.061 A 
ATOM     32  C   UNL     1      -2.868   4.607   3.249  0.00  0.00    +0.005 A 
ATOM     33  C   UNL     1      -2.453   5.434   4.274  0.00  0.00    +0.046 A 
ATOM     34  C   UNL     1      -2.219   6.779   4.028  0.00  0.00    +0.121 A 
ATOM     35  C   UNL     1      -2.396   7.288   2.750  0.00  0.00    +0.046 A 
ATOM     36  C   UNL     1      -2.806   6.456   1.726  0.00  0.00    +0.005 A 
BRANCH  34  37
ATOM     37  O   UNL     1      -1.816   7.596   5.036  0.00  0.00    -0.492 OA
BRANCH  37  38
ATOM     38  C   UNL     1      -1.653   7.003   6.326  0.00  0.00    +0.225 C 
ATOM     39  C   UNL     1      -1.199   8.069   7.324  0.00  0.00    +0.048 C 
ENDBRANCH  37  38
ENDBRANCH  34  37
ENDBRANCH  28  31
ENDBRANCH  24  29
ENDBRANCH   2  24
TORSDOF 12
