REMARK  Name = ZINC63648735
REMARK  7 active torsions:
REMARK  status: ('A' for Active; 'I' for Inactive)
REMARK    1  A    between atoms: C_1  and  C_2
REMARK    2  A    between atoms: C_2  and  C_4
REMARK    3  A    between atoms: C_2  and  N_13
REMARK    4  A    between atoms: C_14  and  C_16
REMARK    5  A    between atoms: C_16  and  S_17
REMARK    6  A    between atoms: S_17  and  C_18
REMARK    7  A    between atoms: C_21  and  C_29
REMARK                            x       y       z     vdW  Elec       q    Type
REMARK                         _______ _______ _______ _____ _____    ______ ____
ROOT
ATOM      1  C   UNL     1      -3.465  -1.164  -1.134  0.00  0.00    +0.168 C 
ENDROOT
BRANCH   1   3
ATOM      2  N   UNL     1      -1.372  -0.511   0.012  0.00  0.00    -0.308 N 
ATOM      3  C   UNL     1      -2.051  -0.643  -1.145  0.00  0.00    +0.223 C 
ATOM      4  O   UNL     1      -1.524  -0.341  -2.194  0.00  0.00    -0.275 OA
ATOM      5  H   UNL     1      -1.794  -0.752   0.852  0.00  0.00    +0.149 HD
BRANCH   2   7
ATOM      6  C   UNL     1      -0.019   1.526   0.010  0.00  0.00    +0.032 C 
ATOM      7  C   UNL     1       0.002  -0.004   0.002  0.00  0.00    +0.112 C 
BRANCH   7   8
ATOM      8  C   UNL     1       0.742  -0.511   1.242  0.00  0.00    +0.194 C 
ATOM      9  N   UNL     1       0.108   0.015   2.457  0.00  0.00    -0.362 N 
ATOM     10  C   UNL     1       0.999   0.727   3.085  0.00  0.00    +0.060 A 
ATOM     11  C   UNL     1       0.963   1.493   4.339  0.00  0.00    +0.027 A 
ATOM     12  C   UNL     1       2.067   2.148   4.750  0.00  0.00    +0.002 A 
ATOM     13  C   UNL     1       3.271   2.133   4.025  0.00  0.00    +0.002 A 
ATOM     14  C   UNL     1       3.412   1.463   2.863  0.00  0.00    +0.027 A 
ATOM     15  C   UNL     1       2.274   0.711   2.317  0.00  0.00    +0.060 A 
ATOM     16  N   UNL     1       2.122  -0.010   1.244  0.00  0.00    -0.362 N 
ATOM     17  H   UNL     1      -0.807  -0.140   2.740  0.00  0.00    +0.162 HD
ATOM     18  H   UNL     1       2.798  -0.185   0.571  0.00  0.00    +0.162 HD
ENDBRANCH   7   8
ENDBRANCH   2   7
ENDBRANCH   1   3
BRANCH   1  19
ATOM     19  S   UNL     1      -4.100  -1.225  -2.832  0.00  0.00    -0.104 S 
BRANCH  19  20
ATOM     20  C   UNL     1      -5.787  -1.865  -2.647  0.00  0.00    +0.272 C 
ATOM     21  N   UNL     1      -5.698  -3.230  -2.103  0.00  0.00    -0.230 NA
ATOM     22  C   UNL     1      -6.303  -3.489  -0.973  0.00  0.00    +0.160 C 
ATOM     23  N   UNL     1      -6.999  -2.546  -0.300  0.00  0.00    -0.215 NA
ATOM     24  C   UNL     1      -7.131  -1.318  -0.703  0.00  0.00    +0.128 C 
ATOM     25  N   UNL     1      -6.562  -0.885  -1.862  0.00  0.00    -0.203 N 
ATOM     26  N   UNL     1      -6.839   0.462  -2.085  0.00  0.00    -0.230 N 
ATOM     27  C   UNL     1      -7.594   0.988  -1.104  0.00  0.00    +0.236 C 
ATOM     28  O   UNL     1      -7.990   2.132  -1.028  0.00  0.00    -0.274 OA
ATOM     29  C   UNL     1      -7.854  -0.125  -0.114  0.00  0.00    +0.170 C 
ATOM     30  H   UNL     1      -6.525   0.961  -2.856  0.00  0.00    +0.173 HD
BRANCH  22  31
ATOM     31  C   UNL     1      -6.222  -4.860  -0.413  0.00  0.00    +0.019 A 
ATOM     32  C   UNL     1      -5.505  -5.849  -1.084  0.00  0.00    +0.011 A 
ATOM     33  C   UNL     1      -5.433  -7.123  -0.557  0.00  0.00    +0.001 A 
ATOM     34  C   UNL     1      -6.071  -7.418   0.634  0.00  0.00    +0.000 A 
ATOM     35  C   UNL     1      -6.784  -6.441   1.304  0.00  0.00    +0.001 A 
ATOM     36  C   UNL     1      -6.858  -5.162   0.790  0.00  0.00    +0.011 A 
ENDBRANCH  22  31
ENDBRANCH  19  20
ENDBRANCH   1  19
TORSDOF 6
