REMARK  Name = ZINC42815068
REMARK  8 active torsions:
REMARK  status: ('A' for Active; 'I' for Inactive)
REMARK    1  A    between atoms: C_4  and  C_7
REMARK    2  A    between atoms: C_7  and  C_9
REMARK    3  A    between atoms: C_7  and  N_23
REMARK    4  A    between atoms: C_9  and  N_10
REMARK    5  A    between atoms: N_13  and  N_14
REMARK    6  A    between atoms: N_14  and  C_15
REMARK    7  A    between atoms: C_15  and  N_17
REMARK    8  A    between atoms: N_17  and  C_18
REMARK                            x       y       z     vdW  Elec       q    Type
REMARK                         _______ _______ _______ _____ _____    ______ ____
ROOT
ATOM      1  N   UNL     1       5.320  -1.941   1.316  0.00  0.00    -0.299 N 
ATOM      2  C   UNL     1       5.837  -2.443   2.455  0.00  0.00    +0.316 C 
ATOM      3  O   UNL     1       5.352  -2.139   3.528  0.00  0.00    -0.251 OA
ATOM      4  N   UNL     1       6.891  -3.281   2.404  0.00  0.00    -0.219 N 
ATOM      5  H   UNL     1       5.707  -2.183   0.460  0.00  0.00    +0.150 HD
ATOM      6  H   UNL     1       7.263  -3.642   3.224  0.00  0.00    +0.174 HD
ENDROOT
BRANCH   4   7
ATOM      7  N   UNL     1       7.450  -3.631   1.168  0.00  0.00    -0.245 N 
ATOM      8  H   UNL     1       7.078  -3.269   0.348  0.00  0.00    +0.172 HD
BRANCH   7   9
ATOM      9  C   UNL     1       8.504  -4.469   1.118  0.00  0.00    +0.147 C 
ATOM     10  S   UNL     1       9.187  -4.896  -0.393  0.00  0.00    -0.017 S 
BRANCH   9  11
ATOM     11  N   UNL     1       9.021  -4.971   2.257  0.00  0.00    -0.323 N 
ATOM     12  H   UNL     1       8.634  -4.729   3.113  0.00  0.00    +0.148 HD
BRANCH  11  13
ATOM     13  C   UNL     1      10.167  -5.882   2.202  0.00  0.00    +0.072 C 
ATOM     14  C   UNL     1      11.483  -5.077   2.216  0.00  0.00    +0.022 C 
ATOM     15  C   UNL     1      11.906  -5.067   3.706  0.00  0.00    +0.002 C 
ATOM     16  C   UNL     1      11.514  -6.488   4.182  0.00  0.00    +0.002 C 
ATOM     17  C   UNL     1      10.187  -6.779   3.452  0.00  0.00    +0.022 C 
ENDBRANCH  11  13
ENDBRANCH   9  11
ENDBRANCH   7   9
ENDBRANCH   4   7
BRANCH   1  18
ATOM     18  C   UNL     1       4.174  -1.030   1.370  0.00  0.00    +0.095 C 
BRANCH  18  19
ATOM     19  C   UNL     1       3.870  -0.508  -0.035  0.00  0.00    -0.020 C 
BRANCH  19  23
ATOM     20  C   UNL     1       7.127   1.896  -1.399  0.00  0.00    +0.000 A 
ATOM     21  C   UNL     1       7.011   0.586  -1.822  0.00  0.00    +0.000 A 
ATOM     22  C   UNL     1       5.957  -0.193  -1.381  0.00  0.00    +0.002 A 
ATOM     23  C   UNL     1       5.019   0.340  -0.516  0.00  0.00    -0.059 A 
ATOM     24  C   UNL     1       5.136   1.651  -0.092  0.00  0.00    +0.002 A 
ATOM     25  C   UNL     1       6.189   2.429  -0.535  0.00  0.00    +0.000 A 
ENDBRANCH  19  23
BRANCH  19  26
ATOM     26  N   UNL     1       2.645   0.302  -0.003  0.00  0.00    +0.385 N 
ATOM     27  C   UNL     1       2.327   0.805  -1.363  0.00  0.00    -0.078 C 
ATOM     28  C   UNL     1       0.811   1.116  -1.282  0.00  0.00    -0.020 C 
ATOM     29  C   UNL     1       0.271  -0.028  -0.394  0.00  0.00    -0.020 C 
ATOM     30  C   UNL     1       1.492  -0.534   0.397  0.00  0.00    -0.078 C 
ATOM     31  H   UNL     1       2.754   1.073   0.638  0.00  0.00    -0.081 HD
ENDBRANCH  19  26
ENDBRANCH  18  19
ENDBRANCH   1  18
TORSDOF 8
