REMARK  Name = ZINC22520055
REMARK  8 active torsions:
REMARK  status: ('A' for Active; 'I' for Inactive)
REMARK    1  A    between atoms: C_1  and  C_2
REMARK    2  A    between atoms: C_2  and  C_3
REMARK    3  A    between atoms: C_3  and  C_4
REMARK    4  A    between atoms: C_7  and  S_10
REMARK    5  A    between atoms: S_10  and  C_11
REMARK    6  A    between atoms: C_11  and  C_12
REMARK    7  A    between atoms: C_18  and  C_23
REMARK    8  A    between atoms: C_26  and  C_28
REMARK                            x       y       z     vdW  Elec       q    Type
REMARK                         _______ _______ _______ _____ _____    ______ ____
ROOT
ATOM      1  C   UNL     1       4.699  -5.725  -1.083  0.00  0.00    +0.121 A 
ATOM      2  N   UNL     1       5.831  -5.373  -1.746  0.00  0.00    -0.310 N 
ATOM      3  H   UNL     1       6.038  -4.433  -1.866  0.00  0.00    +0.170 HD
ATOM      4  C   UNL     1       6.670  -6.302  -2.239  0.00  0.00    +0.260 A 
ATOM      5  O   UNL     1       7.682  -5.969  -2.832  0.00  0.00    -0.267 OA
ATOM      6  C   UNL     1       6.357  -7.686  -2.057  0.00  0.00    +0.080 A 
ATOM      7  C   UNL     1       7.098  -8.865  -2.492  0.00  0.00    +0.010 A 
ATOM      8  C   UNL     1       6.599 -10.092  -2.201  0.00  0.00    +0.057 A 
ATOM      9  S   UNL     1       5.094  -9.726  -1.319  0.00  0.00    -0.076 S 
ATOM     10  C   UNL     1       5.167  -7.954  -1.360  0.00  0.00    +0.116 A 
ATOM     11  N   UNL     1       4.389  -6.980  -0.897  0.00  0.00    -0.226 NA
ENDROOT
BRANCH   7  12
ATOM     12  C   UNL     1       8.367  -8.725  -3.237  0.00  0.00    +0.021 A 
ATOM     13  C   UNL     1       9.574  -9.328  -3.005  0.00  0.00    +0.016 A 
ATOM     14  C   UNL     1      10.630  -9.040  -3.843  0.00  0.00    +0.011 A 
ATOM     15  C   UNL     1      10.443  -8.171  -4.868  0.00  0.00    -0.013 A 
ATOM     16  S   UNL     1       8.723  -7.731  -4.677  0.00  0.00    -0.093 S 
ATOM     17  C   UNL     1      11.430  -7.703  -5.906  0.00  0.00    +0.051 C 
ENDBRANCH   7  12
BRANCH   1  18
ATOM     18  C   UNL     1       3.789  -4.650  -0.548  0.00  0.00    +0.151 C 
BRANCH  18  19
ATOM     19  S   UNL     1       2.374  -5.416   0.289  0.00  0.00    -0.079 S 
BRANCH  19  23
ATOM     20  C   UNL     1       0.762  -2.018   1.233  0.00  0.00    +0.152 A 
ATOM     21  N   UNL     1       1.709  -2.775   0.677  0.00  0.00    -0.206 NA
ATOM     22  H   UNL     1      -0.209  -4.921   1.814  0.00  0.00    +0.191 HD
ATOM     23  C   UNL     1       1.418  -4.047   0.851  0.00  0.00    +0.185 A 
ATOM     24  N   UNL     1       0.257  -4.116   1.537  0.00  0.00    -0.254 N 
ATOM     25  N   UNL     1      -0.141  -2.790   1.775  0.00  0.00    -0.157 NA
BRANCH  20  26
ATOM     26  C   UNL     1       0.742  -0.511   1.242  0.00  0.00    +0.078 C 
BRANCH  26  28
ATOM     27  C   UNL     1      -0.019   1.526   0.010  0.00  0.00    +0.004 C 
ATOM     28  C   UNL     1       0.002  -0.004   0.002  0.00  0.00    +0.004 C 
ENDBRANCH  26  28
ENDBRANCH  20  26
ENDBRANCH  19  23
ENDBRANCH  18  19
ENDBRANCH   1  18
TORSDOF 6
