REMARK  Name = ZINC44878027
REMARK  10 active torsions:
REMARK  status: ('A' for Active; 'I' for Inactive)
REMARK    1  A    between atoms: C_1  and  C_2
REMARK    2  A    between atoms: N_7  and  C_9
REMARK    3  A    between atoms: C_9  and  C_10
REMARK    4  A    between atoms: C_13  and  C_16
REMARK    5  A    between atoms: C_16  and  N_17
REMARK    6  A    between atoms: C_18  and  C_20
REMARK    7  A    between atoms: C_23  and  N_26
REMARK    8  A    between atoms: N_26  and  C_27
REMARK    9  A    between atoms: N_26  and  S_28
REMARK   10  A    between atoms: S_28  and  C_31
REMARK                            x       y       z     vdW  Elec       q    Type
REMARK                         _______ _______ _______ _____ _____    ______ ____
ROOT
ATOM      1  N   UNL     1       0.217  -8.762   1.605  0.00  0.00    -0.307 N 
ATOM      2  C   UNL     1       0.193 -10.081   1.325  0.00  0.00    +0.244 C 
ATOM      3  O   UNL     1       0.757 -10.869   2.059  0.00  0.00    -0.270 OA
ATOM      4  H   UNL     1      -0.233  -8.134   1.020  0.00  0.00    +0.149 HD
ENDROOT
BRANCH   2   5
ATOM      5  C   UNL     1      -0.519 -10.567   0.128  0.00  0.00    +0.037 A 
ATOM      6  C   UNL     1      -1.163  -9.662  -0.720  0.00  0.00    +0.015 A 
ATOM      7  C   UNL     1      -1.826 -10.119  -1.836  0.00  0.00    +0.025 A 
ATOM      8  C   UNL     1      -1.855 -11.481  -2.121  0.00  0.00    +0.051 A 
ATOM      9  C   UNL     1      -1.214 -12.385  -1.279  0.00  0.00    +0.025 A 
ATOM     10  C   UNL     1      -0.545 -11.934  -0.164  0.00  0.00    +0.015 A 
BRANCH   8  11
ATOM     11  N   UNL     1      -2.526 -11.940  -3.250  0.00  0.00    -0.206 N 
ATOM     12  C   UNL     1      -2.115 -11.486  -4.581  0.00  0.00    +0.157 C 
BRANCH  11  13
ATOM     13  S   UNL     1      -3.788 -12.999  -3.089  0.00  0.00    +0.074 S 
ATOM     14  O   UNL     1      -3.810 -13.787  -4.272  0.00  0.00    -0.150 OA
ATOM     15  O   UNL     1      -3.675 -13.573  -1.794  0.00  0.00    -0.150 OA
BRANCH  13  16
ATOM     16  C   UNL     1      -5.271 -12.048  -3.091  0.00  0.00    +0.109 A 
ATOM     17  C   UNL     1      -5.784 -11.566  -1.901  0.00  0.00    +0.029 A 
ATOM     18  C   UNL     1      -6.947 -10.819  -1.902  0.00  0.00    +0.002 A 
ATOM     19  C   UNL     1      -7.597 -10.553  -3.093  0.00  0.00    +0.000 A 
ATOM     20  C   UNL     1      -7.083 -11.034  -4.283  0.00  0.00    +0.002 A 
ATOM     21  C   UNL     1      -5.917 -11.777  -4.282  0.00  0.00    +0.029 A 
ENDBRANCH  13  16
ENDBRANCH  11  13
ENDBRANCH   8  11
ENDBRANCH   2   5
BRANCH   1  22
ATOM     22  C   UNL     1       0.923  -8.279   2.794  0.00  0.00    +0.139 C 
BRANCH  22  26
ATOM     23  C   UNL     1       0.574  -4.029   3.031  0.00  0.00    -0.064 A 
ATOM     24  C   UNL     1      -0.372  -4.835   3.636  0.00  0.00    +0.002 A 
ATOM     25  C   UNL     1      -0.260  -6.210   3.559  0.00  0.00    +0.005 A 
ATOM     26  C   UNL     1       0.800  -6.780   2.877  0.00  0.00    -0.030 A 
ATOM     27  C   UNL     1       1.745  -5.973   2.272  0.00  0.00    +0.005 A 
ATOM     28  C   UNL     1       1.630  -4.598   2.345  0.00  0.00    +0.002 A 
BRANCH  23  29
ATOM     29  C   UNL     1       0.450  -2.529   3.115  0.00  0.00    -0.043 C 
BRANCH  29  35
ATOM     30  C   UNL     1      -1.699   1.408   1.154  0.00  0.00    +0.005 C 
ATOM     31  C   UNL     1      -1.465  -0.096   0.995  0.00  0.00    -0.031 C 
ATOM     32  C   UNL     1      -0.777  -0.368  -0.346  0.00  0.00    -0.001 C 
ATOM     33  C   UNL     1      -0.477  -1.865  -0.460  0.00  0.00    -0.018 C 
ATOM     34  C   UNL     1       0.380  -2.300   0.730  0.00  0.00    -0.078 C 
ATOM     35  N   UNL     1      -0.343  -2.039   1.980  0.00  0.00    +0.383 N 
ATOM     36  C   UNL     1      -0.572  -0.597   2.132  0.00  0.00    -0.075 C 
ATOM     37  H   UNL     1      -1.230  -2.518   1.961  0.00  0.00    -0.081 HD
ENDBRANCH  29  35
ENDBRANCH  23  29
ENDBRANCH  22  26
ENDBRANCH   1  22
TORSDOF 8
