REMARK  Name = ZINC39302204
REMARK  9 active torsions:
REMARK  status: ('A' for Active; 'I' for Inactive)
REMARK    1  A    between atoms: C_1  and  C_2
REMARK    2  A    between atoms: C_4  and  C_17
REMARK    3  A    between atoms: C_5  and  C_16
REMARK    4  A    between atoms: N_7  and  C_8
REMARK    5  A    between atoms: C_17  and  C_18
REMARK    6  A    between atoms: C_18  and  C_19
REMARK    7  A    between atoms: N_21  and  C_22
REMARK    8  A    between atoms: C_22  and  C_23
REMARK    9  A    between atoms: C_23  and  N_24
REMARK                            x       y       z     vdW  Elec       q    Type
REMARK                         _______ _______ _______ _____ _____    ______ ____
ROOT
ATOM      1  C   UNL     1      -0.666  -1.319  -3.090  0.00  0.00    +0.100 C 
ENDROOT
BRANCH   1   2
ATOM      2  C   UNL     1      -1.045  -1.080  -4.529  0.00  0.00    +0.213 C 
ATOM      3  O   UNL     1      -0.541  -0.165  -5.144  0.00  0.00    -0.276 OA
ATOM      4  N   UNL     1      -1.944  -1.883  -5.132  0.00  0.00    -0.314 N 
ATOM      5  H   UNL     1      -2.347  -2.615  -4.639  0.00  0.00    +0.149 HD
BRANCH   4   6
ATOM      6  C   UNL     1      -2.312  -1.650  -6.530  0.00  0.00    +0.126 C 
BRANCH   6   7
ATOM      7  C   UNL     1      -3.342  -2.694  -6.967  0.00  0.00    +0.145 C 
BRANCH   7   8
ATOM      8  N   UNL     1      -3.710  -2.461  -8.366  0.00  0.00    -0.291 N 
ATOM      9  C   UNL     1      -4.746  -1.643  -8.811  0.00  0.00    +0.070 A 
ATOM     10  C   UNL     1      -5.682  -0.855  -8.160  0.00  0.00    +0.028 A 
ATOM     11  C   UNL     1      -6.608  -0.139  -8.894  0.00  0.00    +0.002 A 
ATOM     12  C   UNL     1      -6.605  -0.207 -10.277  0.00  0.00    +0.002 A 
ATOM     13  C   UNL     1      -5.676  -0.990 -10.934  0.00  0.00    +0.028 A 
ATOM     14  C   UNL     1      -4.742  -1.711 -10.206  0.00  0.00    +0.067 A 
ATOM     15  N   UNL     1      -3.705  -2.568 -10.565  0.00  0.00    -0.306 N 
ATOM     16  H   UNL     1      -3.457  -2.811 -11.471  0.00  0.00    +0.170 HD
ATOM     17  C   UNL     1      -3.101  -2.997  -9.441  0.00  0.00    +0.328 A 
ATOM     18  O   UNL     1      -2.151  -3.756  -9.402  0.00  0.00    -0.247 OA
ENDBRANCH   7   8
ENDBRANCH   6   7
ENDBRANCH   4   6
ENDBRANCH   1   2
BRANCH   1  19
ATOM     19  C   UNL     1       0.363  -0.276  -2.653  0.00  0.00    +0.043 C 
BRANCH  19  22
ATOM     20  C   UNL     1      -0.019   1.526   0.010  0.00  0.00    +0.034 C 
ATOM     21  C   UNL     1       0.002  -0.004   0.002  0.00  0.00    +0.119 C 
ATOM     22  C   UNL     1       0.742  -0.515  -1.214  0.00  0.00    -0.030 C 
ATOM     23  C   UNL     1       1.776  -1.208  -0.787  0.00  0.00    +0.020 C 
ATOM     24  N   UNL     1       1.841  -1.238   0.593  0.00  0.00    -0.268 N 
ATOM     25  N   UNL     1       0.773  -0.514   1.148  0.00  0.00    -0.245 N 
ATOM     26  C   UNL     1       2.770  -1.887  -1.693  0.00  0.00    +0.062 C 
ATOM     27  H   UNL     1       2.527  -1.694   1.106  0.00  0.00    +0.170 HD
BRANCH  25  28
ATOM     28  C   UNL     1       0.499  -0.317   2.505  0.00  0.00    +0.068 A 
ATOM     29  C   UNL     1      -0.742  -0.668   3.021  0.00  0.00    +0.026 A 
ATOM     30  C   UNL     1      -1.011  -0.473   4.362  0.00  0.00    +0.003 A 
ATOM     31  C   UNL     1      -0.047   0.072   5.191  0.00  0.00    +0.021 A 
ATOM     32  C   UNL     1       1.190   0.423   4.680  0.00  0.00    +0.061 A 
ATOM     33  C   UNL     1       1.468   0.225   3.340  0.00  0.00    +0.082 A 
ATOM     34 CL   UNL     1       3.022   0.659   2.701  0.00  0.00    -0.080 Cl
ATOM     35 CL   UNL     1       2.396   1.107   5.724  0.00  0.00    -0.082 Cl
ENDBRANCH  25  28
ENDBRANCH  19  22
ENDBRANCH   1  19
TORSDOF 7
