REMARK  Name = ZINC38837728
REMARK  9 active torsions:
REMARK  status: ('A' for Active; 'I' for Inactive)
REMARK    1  A    between atoms: C_1  and  C_2
REMARK    2  A    between atoms: N_11  and  C_12
REMARK    3  A    between atoms: C_12  and  C_13
REMARK    4  A    between atoms: C_13  and  N_14
REMARK    5  A    between atoms: N_14  and  C_15
REMARK    6  A    between atoms: N_14  and  C_16
REMARK    7  A    between atoms: C_17  and  C_19
REMARK    8  A    between atoms: C_22  and  N_28
REMARK    9  A    between atoms: C_23  and  N_25
REMARK                            x       y       z     vdW  Elec       q    Type
REMARK                         _______ _______ _______ _____ _____    ______ ____
ROOT
ATOM      1  C   UNL     1       0.729   2.350   0.483  0.00  0.00    +0.046 C 
ATOM      2  C   UNL     1       0.650   0.862   0.260  0.00  0.00    -0.023 A 
ATOM      3  C   UNL     1       0.809   0.357  -1.005  0.00  0.00    +0.025 A 
ATOM      4  C   UNL     1       0.743  -1.006  -1.254  0.00  0.00    +0.042 A 
ATOM      5  C   UNL     1       0.513  -1.877  -0.203  0.00  0.00    +0.037 A 
ATOM      6  C   UNL     1       0.353  -1.380   1.065  0.00  0.00    +0.042 A 
ATOM      7  C   UNL     1       0.419   0.002   1.357  0.00  0.00    +0.083 A 
ATOM      8  N   UNL     1       0.247   0.334   2.655  0.00  0.00    -0.224 NA
ATOM      9  C   UNL     1       0.037  -0.562   3.591  0.00  0.00    +0.168 A 
ATOM     10  S   UNL     1       0.048  -2.090   2.665  0.00  0.00    -0.052 S 
ATOM     11  N   UNL     1      -0.154  -0.371   4.949  0.00  0.00    -0.248 N 
ATOM     12  C   UNL     1      -0.138   0.875   5.463  0.00  0.00    +0.252 C 
ATOM     13  O   UNL     1      -0.027   1.835   4.726  0.00  0.00    -0.270 OA
ATOM     14 CL   UNL     1       0.948  -1.614  -2.868  0.00  0.00    -0.083 Cl
ENDROOT
BRANCH  12  15
ATOM     15  C   UNL     1      -0.253   1.073   6.920  0.00  0.00    +0.040 A 
ATOM     16  C   UNL     1       0.402   0.204   7.799  0.00  0.00    +0.015 A 
ATOM     17  C   UNL     1       0.292   0.392   9.158  0.00  0.00    +0.026 A 
ATOM     18  C   UNL     1      -0.470   1.445   9.658  0.00  0.00    +0.060 A 
ATOM     19  C   UNL     1      -1.124   2.311   8.785  0.00  0.00    +0.148 A 
ATOM     20  C   UNL     1      -1.013   2.132   7.425  0.00  0.00    +0.047 A 
BRANCH  18  21
ATOM     21  N   UNL     1      -0.579   1.631  11.031  0.00  0.00    -0.328 N 
ATOM     22  C   UNL     1      -1.654   0.979  11.792  0.00  0.00    +0.105 C 
ATOM     23  C   UNL     1      -1.031   0.196  12.952  0.00  0.00    +0.019 C 
ATOM     24  C   UNL     1      -0.152   1.134  13.783  0.00  0.00    +0.003 C 
ATOM     25  C   UNL     1       0.978   1.684  12.909  0.00  0.00    +0.019 C 
ATOM     26  C   UNL     1       0.381   2.479  11.750  0.00  0.00    +0.105 C 
ENDBRANCH  18  21
BRANCH  19  27
ATOM     27  N   UNL     1      -1.933   3.428   9.321  0.00  0.00    +0.058 N 
ATOM     28  O   UNL     1      -2.501   4.180   8.563  0.00  0.00    -0.126 OA
ATOM     29  O   UNL     1      -2.027   3.588  10.515  0.00  0.00    -0.126 OA
ENDBRANCH  19  27
ENDBRANCH  12  15
BRANCH  11  30
ATOM     30  C   UNL     1      -0.374  -1.523   5.827  0.00  0.00    +0.097 C 
BRANCH  30  31
ATOM     31  C   UNL     1       0.945  -2.271   6.028  0.00  0.00    -0.060 C 
BRANCH  31  32
ATOM     32  N   UNL     1       0.757  -3.338   7.020  0.00  0.00    +0.377 N 
ATOM     33  C   UNL     1      -0.181  -4.338   6.492  0.00  0.00    -0.097 C 
ATOM     34  C   UNL     1       2.049  -3.978   7.301  0.00  0.00    -0.097 C 
ATOM     35  H   UNL     1       0.384  -2.944   7.871  0.00  0.00    -0.083 HD
ENDBRANCH  31  32
ENDBRANCH  30  31
ENDBRANCH  11  30
TORSDOF 6
