REMARK  Name = ZINC00856173
REMARK  6 active torsions:
REMARK  status: ('A' for Active; 'I' for Inactive)
REMARK    1  A    between atoms: C_1  and  C_2
REMARK    2  A    between atoms: C_11  and  O_13
REMARK    3  A    between atoms: O_13  and  C_14
REMARK    4  A    between atoms: C_14  and  C_15
REMARK    5  A    between atoms: C_17  and  N_55
REMARK    6  A    between atoms: C_21  and  N_26
REMARK                            x       y       z     vdW  Elec       q    Type
REMARK                         _______ _______ _______ _____ _____    ______ ____
ROOT
ATOM      1  C   UNL     1       2.877   7.858  -0.044  0.00  0.00    +0.054 C 
ATOM      2  C   UNL     1       3.730   8.482   0.743  0.00  0.00    +0.096 C 
ATOM      3  C   UNL     1       3.917   9.980   0.869  0.00  0.00    +0.034 C 
ATOM      4  C   UNL     1       5.013  10.110   1.903  0.00  0.00    -0.009 A 
ATOM      5  C   UNL     1       5.645  11.197   2.465  0.00  0.00    +0.038 A 
ATOM      6  C   UNL     1       6.636  11.005   3.411  0.00  0.00    +0.127 A 
ATOM      7  C   UNL     1       6.987   9.722   3.786  0.00  0.00    +0.036 A 
ATOM      8  C   UNL     1       6.356   8.632   3.224  0.00  0.00    +0.049 A 
ATOM      9  C   UNL     1       5.356   8.816   2.271  0.00  0.00    +0.130 A 
ATOM     10  O   UNL     1       4.606   7.909   1.599  0.00  0.00    -0.462 OA
ENDROOT
BRANCH   3  16
ATOM     11  C   UNL     1       5.681  10.080  -0.788  0.00  0.00    -0.049 C 
ATOM     12  C   UNL     1       6.059  10.659  -2.154  0.00  0.00    +0.141 C 
ATOM     13  O   UNL     1       5.990  12.086  -2.097  0.00  0.00    -0.383 OA
ATOM     14  C   UNL     1       4.701  12.587  -1.734  0.00  0.00    +0.141 C 
ATOM     15  C   UNL     1       4.309  12.028  -0.364  0.00  0.00    -0.049 C 
ATOM     16  N   UNL     1       4.326  10.551  -0.432  0.00  0.00    +0.392 N 
ATOM     17  H   UNL     1       3.664  10.243  -1.155  0.00  0.00    -0.080 HD
ENDBRANCH   3  16
BRANCH   6  18
ATOM     18  N   UNL     1       7.319  12.170   4.018  0.00  0.00    +0.056 N 
ATOM     19  O   UNL     1       7.008  13.300   3.685  0.00  0.00    -0.126 OA
ATOM     20  O   UNL     1       8.191  11.999   4.850  0.00  0.00    -0.126 OA
ENDBRANCH   6  18
BRANCH   1  21
ATOM     21  C   UNL     1       2.897   6.354  -0.135  0.00  0.00    +0.260 C 
BRANCH  21  22
ATOM     22  O   UNL     1       1.559   5.855  -0.069  0.00  0.00    -0.488 OA
BRANCH  22  33
ATOM     23  C   UNL     1       2.092  -0.612  -0.495  0.00  0.00    +0.045 C 
ATOM     24  C   UNL     1       0.910   0.312  -0.356  0.00  0.00    -0.033 A 
ATOM     25  C   UNL     1      -0.355  -0.177  -0.295  0.00  0.00    +0.096 A 
ATOM     26  C   UNL     1      -1.444   0.708  -0.163  0.00  0.00    +0.337 A 
ATOM     27  O   UNL     1      -2.574   0.256  -0.110  0.00  0.00    -0.245 OA
ATOM     28  O   UNL     1      -1.269   2.037  -0.095  0.00  0.00    -0.422 OA
ATOM     29  C   UNL     1      -0.037   2.589  -0.150  0.00  0.00    +0.143 A 
ATOM     30  C   UNL     1       1.095   1.763  -0.281  0.00  0.00    +0.021 A 
ATOM     31  C   UNL     1       2.373   2.331  -0.339  0.00  0.00    +0.015 A 
ATOM     32  C   UNL     1       2.517   3.686  -0.267  0.00  0.00    +0.046 A 
ATOM     33  C   UNL     1       1.399   4.509  -0.138  0.00  0.00    +0.124 A 
ATOM     34  C   UNL     1       0.127   3.964  -0.080  0.00  0.00    +0.092 A 
ENDBRANCH  22  33
ENDBRANCH  21  22
ENDBRANCH   1  21
TORSDOF 5
