REMARK  Name = ZINC39666029
REMARK  9 active torsions:
REMARK  status: ('A' for Active; 'I' for Inactive)
REMARK    1  A    between atoms: C_1  and  C_2
REMARK    2  A    between atoms: C_5  and  O_8
REMARK    3  A    between atoms: O_8  and  C_9
REMARK    4  A    between atoms: C_9  and  C_11
REMARK    5  A    between atoms: C_9  and  C_12
REMARK    6  A    between atoms: C_12  and  N_13
REMARK    7  A    between atoms: C_14  and  C_16
REMARK    8  A    between atoms: C_27  and  C_29
REMARK    9  A    between atoms: C_31  and  C_36
REMARK                            x       y       z     vdW  Elec       q    Type
REMARK                         _______ _______ _______ _____ _____    ______ ____
ROOT
ATOM      1  C   UNL     1      -4.000  -6.702   0.527  0.00  0.00    +0.100 C 
ATOM      2  C   UNL     1      -4.653  -5.809   1.607  0.00  0.00    +0.121 C 
ATOM      3  N   UNL     1      -6.043  -6.310   1.716  0.00  0.00    -0.296 N 
ATOM      4  C   UNL     1      -5.915  -7.782   1.605  0.00  0.00    +0.115 C 
ATOM      5  C   UNL     1      -4.831  -7.996   0.529  0.00  0.00    -0.004 C 
ATOM      6  C   UNL     1      -5.478  -8.211  -0.835  0.00  0.00    -0.010 C 
ATOM      7  C   UNL     1      -6.252  -9.533  -0.825  0.00  0.00    -0.082 C 
ATOM      8  N   UNL     1      -5.335 -10.636  -0.516  0.00  0.00    +0.379 N 
ATOM      9  C   UNL     1      -4.788 -10.470   0.836  0.00  0.00    -0.082 C 
ATOM     10  C   UNL     1      -3.953  -9.188   0.896  0.00  0.00    -0.010 C 
ATOM     11  C   UNL     1      -7.170  -5.588   1.879  0.00  0.00    +0.247 C 
ATOM     12  O   UNL     1      -7.105  -4.382   2.016  0.00  0.00    -0.270 OA
ATOM     13  H   UNL     1      -5.834 -11.512  -0.570  0.00  0.00    -0.086 HD
ATOM     14  H   UNL     1      -4.580 -10.642  -1.185  0.00  0.00    -0.086 HD
ENDROOT
BRANCH  11  15
ATOM     15  C   UNL     1      -8.485  -6.265   1.892  0.00  0.00    +0.040 A 
ATOM     16  C   UNL     1      -9.606  -5.627   1.359  0.00  0.00    +0.025 A 
ATOM     17  C   UNL     1     -10.831  -6.262   1.373  0.00  0.00    +0.058 A 
ATOM     18  C   UNL     1     -10.950  -7.529   1.915  0.00  0.00    +0.050 A 
ATOM     19  C   UNL     1      -9.842  -8.169   2.447  0.00  0.00    +0.125 A 
ATOM     20  C   UNL     1      -8.609  -7.545   2.433  0.00  0.00    +0.051 A 
ATOM     21  F   UNL     1      -9.966  -9.406   2.975  0.00  0.00    -0.205 F 
BRANCH  17  22
ATOM     22  C   UNL     1     -12.041  -5.574   0.797  0.00  0.00    +0.418 C 
ATOM     23  F   UNL     1     -12.155  -5.889  -0.561  0.00  0.00    -0.166 F 
ATOM     24  F   UNL     1     -13.188  -6.003   1.474  0.00  0.00    -0.166 F 
ATOM     25  F   UNL     1     -11.904  -4.189   0.945  0.00  0.00    -0.166 F 
ENDBRANCH  17  22
ENDBRANCH  11  15
BRANCH   1  27
ATOM     26  N   UNL     1      -1.655  -7.196  -0.086  0.00  0.00    -0.312 N 
ATOM     27  C   UNL     1      -2.567  -6.998   0.887  0.00  0.00    +0.218 C 
ATOM     28  O   UNL     1      -2.234  -7.058   2.051  0.00  0.00    -0.275 OA
ATOM     29  H   UNL     1      -1.922  -7.148  -1.018  0.00  0.00    +0.149 HD
BRANCH  26  30
ATOM     30  C   UNL     1      -0.262  -7.484   0.264  0.00  0.00    +0.148 C 
BRANCH  30  31
ATOM     31  C   UNL     1       0.557  -7.665  -1.016  0.00  0.00    +0.187 C 
ATOM     32  C   UNL     1       2.013  -7.966  -0.650  0.00  0.00    +0.053 C 
BRANCH  31  33
ATOM     33  O   UNL     1       0.023  -8.752  -1.774  0.00  0.00    -0.488 OA
BRANCH  33  38
ATOM     34  C   UNL     1       1.017  -8.735  -7.318  0.00  0.00    +0.044 C 
ATOM     35  C   UNL     1       0.751  -8.740  -5.834  0.00  0.00    -0.050 A 
ATOM     36  C   UNL     1       1.157  -7.671  -5.057  0.00  0.00    +0.007 A 
ATOM     37  C   UNL     1       0.914  -7.672  -3.697  0.00  0.00    +0.046 A 
ATOM     38  C   UNL     1       0.262  -8.748  -3.111  0.00  0.00    +0.121 A 
ATOM     39  C   UNL     1      -0.145  -9.819  -3.894  0.00  0.00    +0.046 A 
ATOM     40  C   UNL     1       0.096  -9.810  -5.254  0.00  0.00    +0.007 A 
ENDBRANCH  33  38
ENDBRANCH  31  33
ENDBRANCH  30  31
ENDBRANCH  26  30
ENDBRANCH   1  27
TORSDOF 7
