REMARK  Name = ZINC02863151
REMARK  9 active torsions:
REMARK  status: ('A' for Active; 'I' for Inactive)
REMARK    1  A    between atoms: C_1  and  C_2
REMARK    2  A    between atoms: C_5  and  N_9
REMARK    3  A    between atoms: C_10  and  C_12
REMARK    4  A    between atoms: C_12  and  S_13
REMARK    5  A    between atoms: S_13  and  C_14
REMARK    6  A    between atoms: C_17  and  C_25
REMARK    7  A    between atoms: N_18  and  C_19
REMARK    8  A    between atoms: C_25  and  C_27
REMARK    9  A    between atoms: C_25  and  O_33
REMARK                            x       y       z     vdW  Elec       q    Type
REMARK                         _______ _______ _______ _____ _____    ______ ____
ROOT
ATOM      1  C   UNL     1       0.193   0.992   2.735  0.00  0.00    +0.197 A 
ATOM      2  N   UNL     1       1.265   0.261   2.534  0.00  0.00    -0.122 NA
ATOM      3  N   UNL     1       1.781  -0.080   3.660  0.00  0.00    -0.130 NA
ATOM      4  C   UNL     1       1.077   0.407   4.642  0.00  0.00    +0.172 A 
ATOM      5  N   UNL     1       0.042   1.114   4.089  0.00  0.00    -0.272 N 
ENDROOT
BRANCH   5   6
ATOM      6  C   UNL     1      -0.965   1.815   4.770  0.00  0.00    +0.050 A 
ATOM      7  C   UNL     1      -0.642   2.921   5.543  0.00  0.00    +0.026 A 
ATOM      8  C   UNL     1      -1.636   3.613   6.207  0.00  0.00    +0.002 A 
ATOM      9  C   UNL     1      -2.951   3.196   6.112  0.00  0.00    +0.000 A 
ATOM     10  C   UNL     1      -3.276   2.091   5.347  0.00  0.00    +0.002 A 
ATOM     11  C   UNL     1      -2.286   1.399   4.676  0.00  0.00    +0.026 A 
ENDBRANCH   5   6
BRANCH   1  12
ATOM     12  S   UNL     1      -0.848   1.690   1.497  0.00  0.00    -0.076 S 
BRANCH  12  13
ATOM     13  C   UNL     1      -0.004   1.101   0.008  0.00  0.00    +0.173 C 
BRANCH  13  15
ATOM     14  N   UNL     1      -0.288   1.272  -2.443  0.00  0.00    -0.284 N 
ATOM     15  C   UNL     1      -0.739   1.590  -1.213  0.00  0.00    +0.228 C 
ATOM     16  O   UNL     1      -1.735   2.270  -1.089  0.00  0.00    -0.275 OA
ATOM     17  H   UNL     1       0.544   0.784  -2.544  0.00  0.00    +0.155 HD
BRANCH  14  22
ATOM     18  C   UNL     1      -3.261   2.790  -7.032  0.00  0.00    +0.044 C 
ATOM     19  C   UNL     1      -2.471   2.387  -5.813  0.00  0.00    -0.049 A 
ATOM     20  C   UNL     1      -2.445   3.212  -4.704  0.00  0.00    +0.005 A 
ATOM     21  C   UNL     1      -1.723   2.845  -3.585  0.00  0.00    +0.024 A 
ATOM     22  C   UNL     1      -1.022   1.647  -3.575  0.00  0.00    +0.047 A 
ATOM     23  C   UNL     1      -1.045   0.822  -4.693  0.00  0.00    +0.039 A 
ATOM     24  C   UNL     1      -1.774   1.193  -5.807  0.00  0.00    +0.020 A 
ATOM     25 BR   UNL     1      -0.086  -0.808  -4.688  0.00  0.00    -0.048 Br
ENDBRANCH  14  22
ENDBRANCH  13  15
ENDBRANCH  12  13
ENDBRANCH   1  12
BRANCH   4  26
ATOM     26  C   UNL     1       1.353   0.232   6.113  0.00  0.00    +0.212 C 
BRANCH  26  27
ATOM     27  C   UNL     1       0.970  -1.164   6.533  0.00  0.00    -0.012 A 
ATOM     28  C   UNL     1       1.864  -2.205   6.370  0.00  0.00    +0.006 A 
ATOM     29  C   UNL     1       1.514  -3.484   6.760  0.00  0.00    +0.000 A 
ATOM     30  C   UNL     1       0.266  -3.724   7.303  0.00  0.00    +0.000 A 
ATOM     31  C   UNL     1      -0.630  -2.684   7.461  0.00  0.00    +0.000 A 
ATOM     32  C   UNL     1      -0.279  -1.404   7.076  0.00  0.00    +0.006 A 
ENDBRANCH  26  27
BRANCH  26  33
ATOM     33  O   UNL     1       2.745   0.439   6.364  0.00  0.00    -0.379 OA
ATOM     34  H   UNL     1       3.325  -0.171   5.890  0.00  0.00    +0.211 HD
ENDBRANCH  26  33
ENDBRANCH   4  26
TORSDOF 8
