REMARK  Name = ZINC10128693
REMARK  7 active torsions:
REMARK  status: ('A' for Active; 'I' for Inactive)
REMARK    1  A    between atoms: C_4  and  C_7
REMARK    2  A    between atoms: C_7  and  C_8
REMARK    3  A    between atoms: C_8  and  C_10
REMARK    4  A    between atoms: C_8  and  N_21
REMARK    5  A    between atoms: N_12  and  C_13
REMARK    6  A    between atoms: N_21  and  S_22
REMARK    7  A    between atoms: S_22  and  C_25
REMARK                            x       y       z     vdW  Elec       q    Type
REMARK                         _______ _______ _______ _____ _____    ______ ____
ROOT
ATOM      1  C   UNL     1       2.931  -1.234  -2.507  0.00  0.00    +0.167 C 
ENDROOT
BRANCH   1   2
ATOM      2  C   UNL     1       2.556  -1.027  -3.952  0.00  0.00    +0.236 C 
ATOM      3  O   UNL     1       2.086   0.032  -4.311  0.00  0.00    -0.274 OA
ATOM      4  N   UNL     1       2.743  -2.019  -4.846  0.00  0.00    -0.282 N 
ATOM      5  H   UNL     1       3.185  -2.838  -4.575  0.00  0.00    +0.155 HD
BRANCH   4   6
ATOM      6  C   UNL     1       2.297  -1.867  -6.164  0.00  0.00    +0.070 A 
ATOM      7  C   UNL     1       1.005  -2.243  -6.511  0.00  0.00    +0.064 A 
ATOM      8  C   UNL     1       0.568  -2.087  -7.813  0.00  0.00    +0.022 A 
ATOM      9  C   UNL     1       1.417  -1.566  -8.772  0.00  0.00    +0.003 A 
ATOM     10  C   UNL     1       2.704  -1.195  -8.431  0.00  0.00    +0.022 A 
ATOM     11  C   UNL     1       3.147  -1.344  -7.131  0.00  0.00    +0.064 A 
ATOM     12 CL   UNL     1       4.765  -0.878  -6.705  0.00  0.00    -0.082 Cl
ATOM     13 CL   UNL     1      -0.059  -2.903  -5.309  0.00  0.00    -0.082 Cl
ENDBRANCH   4   6
ENDBRANCH   1   2
BRANCH   1  14
ATOM     14  N   UNL     1       2.633  -0.018  -1.747  0.00  0.00    -0.178 NA
ATOM     15  H   UNL     1       1.860   0.521  -1.977  0.00  0.00    +0.149 HD
BRANCH  14  16
ATOM     16  S   UNL     1       3.616   0.436  -0.494  0.00  0.00    +0.059 S 
ATOM     17  O   UNL     1       3.799  -0.716   0.317  0.00  0.00    -0.153 OA
ATOM     18  O   UNL     1       3.086   1.652   0.018  0.00  0.00    -0.153 OA
BRANCH  16  19
ATOM     19  C   UNL     1       5.191   0.824  -1.181  0.00  0.00    +0.105 A 
ATOM     20  C   UNL     1       5.466   2.114  -1.595  0.00  0.00    +0.030 A 
ATOM     21  C   UNL     1       6.702   2.419  -2.133  0.00  0.00    +0.022 A 
ATOM     22  C   UNL     1       7.663   1.432  -2.260  0.00  0.00    +0.041 A 
ATOM     23  C   UNL     1       7.388   0.141  -1.845  0.00  0.00    +0.022 A 
ATOM     24  C   UNL     1       6.152  -0.162  -1.306  0.00  0.00    +0.030 A 
ATOM     25 CL   UNL     1       9.216   1.814  -2.937  0.00  0.00    -0.084 Cl
ENDBRANCH  16  19
ENDBRANCH  14  16
ENDBRANCH   1  14
BRANCH   1  26
ATOM     26  C   UNL     1       2.128  -2.403  -1.935  0.00  0.00    +0.065 C 
BRANCH  26  30
ATOM     27  C   UNL     1       3.437  -3.214   2.050  0.00  0.00    +0.000 A 
ATOM     28  C   UNL     1       2.410  -2.315   1.829  0.00  0.00    +0.000 A 
ATOM     29  C   UNL     1       1.986  -2.053   0.540  0.00  0.00    +0.004 A 
ATOM     30  C   UNL     1       2.590  -2.689  -0.529  0.00  0.00    -0.045 A 
ATOM     31  C   UNL     1       3.613  -3.592  -0.308  0.00  0.00    +0.004 A 
ATOM     32  C   UNL     1       4.040  -3.851   0.981  0.00  0.00    +0.000 A 
ENDBRANCH  26  30
ENDBRANCH   1  26
TORSDOF 7
