REMARK  Name = ZINC34792996
REMARK  7 active torsions:
REMARK  status: ('A' for Active; 'I' for Inactive)
REMARK    1  A    between atoms: C_1  and  C_2
REMARK    2  A    between atoms: C_2  and  C_4
REMARK    3  A    between atoms: C_2  and  N_11
REMARK    4  A    between atoms: N_6  and  C_7
REMARK    5  A    between atoms: C_7  and  C_8
REMARK    6  A    between atoms: C_17  and  C_24
REMARK    7  A    between atoms: N_22  and  C_23
REMARK                            x       y       z     vdW  Elec       q    Type
REMARK                         _______ _______ _______ _____ _____    ______ ____
ROOT
ATOM      1  N   UNL     1       0.542  -0.023   1.308  0.00  0.00    -0.281 N 
ATOM      2  C   UNL     1       1.714  -0.898   1.153  0.00  0.00    +0.160 C 
ATOM      3  C   UNL     1       2.089  -1.299   2.563  0.00  0.00    +0.042 C 
ATOM      4  C   UNL     1       1.201  -0.695   3.378  0.00  0.00    +0.058 C 
ATOM      5  C   UNL     1       0.285   0.069   2.626  0.00  0.00    +0.247 C 
ATOM      6  O   UNL     1      -0.623   0.723   3.106  0.00  0.00    -0.270 OA
ATOM      7  C   UNL     1       1.342  -0.926   4.869  0.00  0.00    +0.143 C 
ATOM      8  N   UNL     1       2.445  -1.798   5.306  0.00  0.00    -0.288 N 
ATOM      9  C   UNL     1       3.253  -2.332   4.368  0.00  0.00    +0.307 C 
ATOM     10  O   UNL     1       4.166  -3.054   4.720  0.00  0.00    -0.252 OA
ATOM     11  N   UNL     1       3.082  -2.093   3.062  0.00  0.00    -0.260 N 
ATOM     12  C   UNL     1       4.010  -2.718   2.116  0.00  0.00    +0.139 C 
ATOM     13  H   UNL     1       2.588  -1.984   6.248  0.00  0.00    +0.151 HD
ENDROOT
BRANCH   7  14
ATOM     14  C   UNL     1       0.052  -1.522   5.371  0.00  0.00    -0.004 A 
ATOM     15  C   UNL     1      -0.835  -2.098   4.482  0.00  0.00    +0.007 A 
ATOM     16  C   UNL     1      -2.018  -2.644   4.942  0.00  0.00    +0.000 A 
ATOM     17  C   UNL     1      -2.315  -2.616   6.292  0.00  0.00    +0.001 A 
ATOM     18  C   UNL     1      -1.428  -2.040   7.182  0.00  0.00    +0.020 A 
ATOM     19  C   UNL     1      -0.241  -1.498   6.723  0.00  0.00    +0.046 A 
ATOM     20 CL   UNL     1       0.877  -0.781   7.841  0.00  0.00    -0.083 Cl
ENDBRANCH   7  14
BRANCH   1  22
ATOM     21  C   UNL     1      -0.147   2.148   0.419  0.00  0.00    +0.038 C 
ATOM     22  C   UNL     1      -0.203   0.631   0.230  0.00  0.00    +0.159 C 
BRANCH  22  23
ATOM     23  C   UNL     1      -1.638   0.173   0.261  0.00  0.00    +0.233 C 
ATOM     24  O   UNL     1      -2.003  -0.621   1.101  0.00  0.00    -0.274 OA
ATOM     25  N   UNL     1      -2.516   0.647  -0.645  0.00  0.00    -0.314 N 
ATOM     26  H   UNL     1      -2.224   1.283  -1.317  0.00  0.00    +0.149 HD
BRANCH  25  27
ATOM     27  C   UNL     1      -3.912   0.202  -0.616  0.00  0.00    +0.107 C 
BRANCH  27  28
ATOM     28  C   UNL     1      -4.689   0.885  -1.742  0.00  0.00    +0.006 C 
ATOM     29  C   UNL     1      -5.826   1.829  -1.344  0.00  0.00    +0.005 C 
ATOM     30  C   UNL     1      -6.144   0.463  -1.954  0.00  0.00    +0.005 C 
ENDBRANCH  27  28
ENDBRANCH  25  27
ENDBRANCH  22  23
ENDBRANCH   1  22
TORSDOF 5
