REMARK  Name = ZINC22906480
REMARK  5 active torsions:
REMARK  status: ('A' for Active; 'I' for Inactive)
REMARK    1  A    between atoms: C_1  and  S_2
REMARK    2  A    between atoms: S_2  and  C_5
REMARK    3  A    between atoms: C_10  and  C_11
REMARK    4  A    between atoms: C_17  and  C_19
REMARK    5  A    between atoms: C_20  and  C_21
REMARK                            x       y       z     vdW  Elec       q    Type
REMARK                         _______ _______ _______ _____ _____    ______ ____
ROOT
ATOM      1  C   UNL     1       2.419   3.937   0.001  0.00  0.00    +0.252 A 
ATOM      2  N   UNL     1       2.540   5.243   0.001  0.00  0.00    -0.106 NA
ATOM      3  N   UNL     1       3.788   5.556  -0.004  0.00  0.00    -0.092 NA
ATOM      4  C   UNL     1       4.513   4.462  -0.017  0.00  0.00    +0.315 A 
ATOM      5  O   UNL     1       3.665   3.416  -0.014  0.00  0.00    -0.405 OA
ATOM      6  N   UNL     1       5.895   4.396  -0.029  0.00  0.00    -0.235 N 
ATOM      7  C   UNL     1       6.624   5.529  -0.031  0.00  0.00    +0.244 C 
ATOM      8  O   UNL     1       6.067   6.612  -0.021  0.00  0.00    -0.270 OA
ATOM      9  H   UNL     1       6.399   3.418  -0.038  0.00  0.00    +0.160 HD
ENDROOT
BRANCH   1  15
ATOM     10  C   UNL     1      -0.070   3.850   0.023  0.00  0.00    +0.100 A 
ATOM     11  C   UNL     1      -1.249   3.133   0.031  0.00  0.00    +0.028 A 
ATOM     12  C   UNL     1      -1.221   1.750   0.017  0.00  0.00    +0.002 A 
ATOM     13  C   UNL     1      -0.013   1.076   0.008  0.00  0.00    +0.001 A 
ATOM     14  C   UNL     1       1.173   1.780   0.000  0.00  0.00    +0.015 A 
ATOM     15  C   UNL     1       1.153   3.176   0.008  0.00  0.00    +0.063 A 
BRANCH  10  17
ATOM     16  C   UNL     1       0.639   6.085   1.617  0.00  0.00    +0.200 C 
ATOM     17  S   UNL     1      -0.107   5.611   0.033  0.00  0.00    -0.005 S 
ATOM     18  O   UNL     1       0.738   5.998  -1.042  0.00  0.00    -0.170 OA
ATOM     19  O   UNL     1      -1.489   5.944   0.023  0.00  0.00    -0.170 OA
ENDBRANCH  10  17
ENDBRANCH   1  15
BRANCH   7  20
ATOM     20  C   UNL     1       8.084   5.459  -0.045  0.00  0.00    +0.068 C 
ATOM     21  C   UNL     1       8.815   6.595  -0.046  0.00  0.00    +0.013 C 
BRANCH  21  22
ATOM     22  C   UNL     1      10.283   6.525  -0.060  0.00  0.00    -0.021 A 
ATOM     23  C   UNL     1      10.926   5.282  -0.071  0.00  0.00    +0.012 A 
ATOM     24  C   UNL     1      12.302   5.219  -0.084  0.00  0.00    +0.050 A 
ATOM     25  C   UNL     1      13.055   6.385  -0.086  0.00  0.00    +0.166 A 
ATOM     26  C   UNL     1      12.421   7.629  -0.074  0.00  0.00    +0.167 A 
ATOM     27  C   UNL     1      11.042   7.700  -0.067  0.00  0.00    +0.057 A 
ATOM     28  O   UNL     1      13.376   8.605  -0.078  0.00  0.00    -0.453 OA
ATOM     29  C   UNL     1      14.587   7.955  -0.505  0.00  0.00    +0.466 C 
ATOM     30  O   UNL     1      14.404   6.586  -0.096  0.00  0.00    -0.453 OA
ENDBRANCH  21  22
ENDBRANCH   7  20
TORSDOF 4
