REMARK  Name = ZINC08740287
REMARK  10 active torsions:
REMARK  status: ('A' for Active; 'I' for Inactive)
REMARK    1  A    between atoms: C_1  and  C_2
REMARK    2  A    between atoms: N_6  and  O_7
REMARK    3  A    between atoms: O_7  and  C_8
REMARK    4  A    between atoms: C_8  and  C_9
REMARK    5  A    between atoms: N_11  and  C_12
REMARK    6  A    between atoms: C_12  and  C_13
REMARK    7  A    between atoms: C_13  and  C_14
REMARK    8  A    between atoms: C_30  and  C_39
REMARK    9  A    between atoms: C_35  and  C_36
REMARK   10  A    between atoms: C_35  and  O_38
REMARK                            x       y       z     vdW  Elec       q    Type
REMARK                         _______ _______ _______ _____ _____    ______ ____
ROOT
ATOM      1  C   UNL     1       0.415   2.543  -0.879  0.00  0.00    +0.016 C 
ATOM      2  C   UNL     1       0.239   1.072  -0.498  0.00  0.00    -0.007 C 
ATOM      3  C   UNL     1      -1.252   0.749  -0.387  0.00  0.00    +0.017 C 
ATOM      4  C   UNL     1      -1.873   1.625   0.706  0.00  0.00    +0.059 C 
ATOM      5  C   UNL     1      -1.136   1.384   2.000  0.00  0.00    +0.080 C 
ATOM      6  N   UNL     1      -1.742   1.546   3.133  0.00  0.00    -0.089 NA
ATOM      7  C   UNL     1       0.271   0.964   1.971  0.00  0.00    +0.026 C 
ATOM      8  C   UNL     1       0.915   0.813   0.825  0.00  0.00    -0.062 C 
ATOM      9  C   UNL     1       2.356   0.364   0.807  0.00  0.00    +0.031 C 
ATOM     10  C   UNL     1       2.479  -0.945   0.040  0.00  0.00    +0.008 C 
ATOM     11  C   UNL     1       1.366  -1.131  -0.984  0.00  0.00    -0.003 C 
ATOM     12  C   UNL     1       0.883   0.193  -1.560  0.00  0.00    +0.002 C 
ATOM     13  C   UNL     1       2.074   0.895  -2.215  0.00  0.00    +0.005 C 
ATOM     14  C   UNL     1       2.522   0.049  -3.406  0.00  0.00    +0.011 C 
ATOM     15  C   UNL     1       2.948  -1.353  -2.967  0.00  0.00    +0.011 C 
ATOM     16  C   UNL     1       1.866  -2.026  -2.104  0.00  0.00    +0.002 C 
ATOM     17  C   UNL     1       0.760  -2.367  -3.119  0.00  0.00    +0.008 C 
ATOM     18  C   UNL     1       1.550  -2.846  -4.360  0.00  0.00    +0.049 C 
ATOM     19  C   UNL     1       2.957  -2.229  -4.250  0.00  0.00    +0.132 C 
ATOM     20  C   UNL     1       4.316  -1.336  -2.282  0.00  0.00    +0.015 C 
ENDROOT
BRANCH  19  21
ATOM     21  C   UNL     1       3.967  -3.293  -4.129  0.00  0.00    -0.070 C 
ATOM     22  C   UNL     1       4.773  -4.141  -4.032  0.00  0.00    +0.007 C 
ENDBRANCH  19  21
BRANCH  19  23
ATOM     23  O   UNL     1       3.230  -1.420  -5.396  0.00  0.00    -0.376 OA
ATOM     24  H   UNL     1       3.248  -1.911  -6.229  0.00  0.00    +0.211 HD
ENDBRANCH  19  23
BRANCH   6  25
ATOM     25  O   UNL     1      -1.048   1.319   4.346  0.00  0.00    -0.384 OA
BRANCH  25  26
ATOM     26  C   UNL     1      -1.839   1.536   5.517  0.00  0.00    +0.358 C 
BRANCH  26  27
ATOM     27  C   UNL     1      -1.005   1.267   6.743  0.00  0.00    +0.253 C 
ATOM     28  O   UNL     1       0.153   0.923   6.626  0.00  0.00    -0.272 OA
ATOM     29  N   UNL     1      -1.545   1.408   7.970  0.00  0.00    -0.312 N 
ATOM     30  H   UNL     1      -2.470   1.683   8.064  0.00  0.00    +0.149 HD
BRANCH  29  31
ATOM     31  C   UNL     1      -0.734   1.147   9.162  0.00  0.00    +0.110 C 
BRANCH  31  32
ATOM     32  C   UNL     1      -1.580   1.379  10.415  0.00  0.00    +0.073 C 
BRANCH  32  33
ATOM     33  C   UNL     1      -0.746   1.109  11.641  0.00  0.00    +0.035 A 
ATOM     34  C   UNL     1      -0.539  -0.094  12.209  0.00  0.00    +0.105 A 
ATOM     35  N   UNL     1       0.273   0.113  13.292  0.00  0.00    -0.352 N 
ATOM     36  H   UNL     1       0.599  -0.564  13.904  0.00  0.00    +0.166 HD
ATOM     37  C   UNL     1       0.534   1.437  13.348  0.00  0.00    +0.171 A 
ATOM     38  N   UNL     1      -0.074   2.026  12.354  0.00  0.00    -0.350 N 
ATOM     39  H   UNL     1      -0.046   2.976  12.163  0.00  0.00    +0.166 HD
ENDBRANCH  32  33
ENDBRANCH  31  32
ENDBRANCH  29  31
ENDBRANCH  26  27
ENDBRANCH  25  26
ENDBRANCH   6  25
TORSDOF 8
