REMARK  Name = ZINC12183055
REMARK  3 active torsions:
REMARK  status: ('A' for Active; 'I' for Inactive)
REMARK    1  A    between atoms: C_9  and  O_28
REMARK    2  A    between atoms: C_10  and  C_11
REMARK    3  A    between atoms: C_11  and  N_52
REMARK                            x       y       z     vdW  Elec       q    Type
REMARK                         _______ _______ _______ _____ _____    ______ ____
ROOT
ATOM      1  C   UNL     1      -1.101  -2.194  -0.411  0.00  0.00    -0.072 C 
ATOM      2  C   UNL     1      -1.312  -0.741   0.016  0.00  0.00    +0.037 C 
ATOM      3  C   UNL     1       0.002  -0.004   0.002  0.00  0.00    +0.050 A 
ATOM      4  C   UNL     1       1.191  -0.663  -0.014  0.00  0.00    +0.022 A 
ATOM      5  C   UNL     1       2.385   0.086  -0.016  0.00  0.00    +0.254 A 
ATOM      6  O   UNL     1       3.469  -0.476  -0.024  0.00  0.00    -0.268 OA
ATOM      7  N   UNL     1       2.312   1.433  -0.009  0.00  0.00    -0.295 N 
ATOM      8  H   UNL     1       3.123   1.965  -0.012  0.00  0.00    +0.172 HD
ATOM      9  C   UNL     1       1.094   2.039   0.003  0.00  0.00    +0.198 A 
ATOM     10  N   UNL     1      -0.016   1.332   0.009  0.00  0.00    -0.221 NA
ATOM     11  N   UNL     1       1.022   3.406   0.007  0.00  0.00    -0.301 N 
ATOM     12  C   UNL     1       1.512   3.969  -1.278  0.00  0.00    +0.108 C 
ATOM     13  C   UNL     1       0.886   5.386  -1.305  0.00  0.00    +0.020 C 
ATOM     14  C   UNL     1      -0.510   5.159  -0.681  0.00  0.00    +0.020 C 
ATOM     15  C   UNL     1      -0.378   3.863   0.140  0.00  0.00    +0.108 C 
ATOM     16  C   UNL     1       1.278  -2.165  -0.032  0.00  0.00    -0.035 C 
ATOM     17  N   UNL     1      -0.002  -2.749   0.403  0.00  0.00    +0.386 N 
ATOM     18  H   UNL     1      -0.161  -2.511   1.389  0.00  0.00    -0.081 HD
ENDROOT
BRANCH  17  19
ATOM     19  C   UNL     1       0.041  -4.222   0.264  0.00  0.00    -0.038 C 
BRANCH  19  29
ATOM     20  C   UNL     1       4.778  -5.187  -1.413  0.00  0.00    +0.001 A 
ATOM     21  C   UNL     1       3.610  -4.704  -1.999  0.00  0.00    +0.001 A 
ATOM     22  C   UNL     1       2.471  -4.552  -1.270  0.00  0.00    +0.009 A 
ATOM     23  C   UNL     1       2.468  -4.891   0.094  0.00  0.00    -0.013 A 
ATOM     24  C   UNL     1       3.659  -5.378   0.692  0.00  0.00    -0.017 A 
ATOM     25  C   UNL     1       4.815  -5.521  -0.094  0.00  0.00    +0.008 A 
ATOM     26  C   UNL     1       3.660  -5.713   2.057  0.00  0.00    +0.012 A 
ATOM     27  C   UNL     1       2.523  -5.562   2.789  0.00  0.00    +0.046 A 
ATOM     28  C   UNL     1       1.350  -5.079   2.203  0.00  0.00    +0.119 A 
ATOM     29  C   UNL     1       1.314  -4.743   0.880  0.00  0.00    -0.015 A 
BRANCH  28  30
ATOM     30  O   UNL     1       0.230  -4.940   2.961  0.00  0.00    -0.507 OA
ATOM     31  H   UNL     1      -0.334  -5.725   2.977  0.00  0.00    +0.292 HD
ENDBRANCH  28  30
ENDBRANCH  19  29
ENDBRANCH  17  19
TORSDOF 3
