REMARK  Name = ZINC28822491
REMARK  12 active torsions:
REMARK  status: ('A' for Active; 'I' for Inactive)
REMARK    1  A    between atoms: C_1  and  C_2
REMARK    2  A    between atoms: C_3  and  C_24
REMARK    3  A    between atoms: N_7  and  C_23
REMARK    4  A    between atoms: C_9  and  C_12
REMARK    5  A    between atoms: N_14  and  C_15
REMARK    6  A    between atoms: C_15  and  C_16
REMARK    7  A    between atoms: C_24  and  N_25
REMARK    8  A    between atoms: N_25  and  C_26
REMARK    9  A    between atoms: N_25  and  C_27
REMARK   10  A    between atoms: C_27  and  C_28
REMARK   11  A    between atoms: C_28  and  C_30
REMARK   12  A    between atoms: C_28  and  O_36
REMARK                            x       y       z     vdW  Elec       q    Type
REMARK                         _______ _______ _______ _____ _____    ______ ____
ROOT
ATOM      1  C   UNL     1       1.294  -5.055   0.600  0.00  0.00    +0.047 C 
ATOM      2  C   UNL     1       0.019  -4.252   0.582  0.00  0.00    -0.015 A 
ATOM      3  C   UNL     1      -1.175  -4.885   0.622  0.00  0.00    +0.009 A 
ATOM      4  S   UNL     1      -2.334  -3.527   0.580  0.00  0.00    -0.086 S 
ATOM      5  C   UNL     1      -1.157  -2.200   0.512  0.00  0.00    +0.084 A 
ATOM      6  C   UNL     1       0.078  -2.855   0.524  0.00  0.00    +0.063 A 
ATOM      7  N   UNL     1       1.222  -2.058   0.477  0.00  0.00    -0.348 N 
ATOM      8  C   UNL     1       1.183  -0.725   0.423  0.00  0.00    +0.102 A 
ATOM      9  C   UNL     1      -0.006  -0.027   0.408  0.00  0.00    +0.100 A 
ATOM     10  C   UNL     1      -1.259  -0.804   0.460  0.00  0.00    +0.208 A 
ATOM     11  O   UNL     1      -2.347  -0.250   0.456  0.00  0.00    -0.286 OA
ATOM     12  C   UNL     1       2.531  -2.717   0.488  0.00  0.00    +0.149 C 
ENDROOT
BRANCH   9  13
ATOM     13  C   UNL     1      -0.025   1.443   0.347  0.00  0.00    +0.249 C 
ATOM     14  O   UNL     1      -1.086   2.038   0.330  0.00  0.00    -0.270 OA
ATOM     15  N   UNL     1       1.133   2.131   0.306  0.00  0.00    -0.307 N 
ATOM     16  H   UNL     1       2.093   1.593   0.317  0.00  0.00    +0.149 HD
BRANCH  15  17
ATOM     17  C   UNL     1       1.115   3.595   0.246  0.00  0.00    +0.139 C 
BRANCH  17  18
ATOM     18  C   UNL     1       2.529   4.114   0.208  0.00  0.00    -0.030 A 
ATOM     19  C   UNL     1       3.189   4.406   1.387  0.00  0.00    +0.006 A 
ATOM     20  C   UNL     1       4.488   4.877   1.353  0.00  0.00    +0.020 A 
ATOM     21  C   UNL     1       5.124   5.066   0.139  0.00  0.00    +0.041 A 
ATOM     22  C   UNL     1       4.460   4.779  -1.040  0.00  0.00    +0.020 A 
ATOM     23  C   UNL     1       3.163   4.303  -1.005  0.00  0.00    +0.006 A 
ATOM     24 CL   UNL     1       6.753   5.664   0.096  0.00  0.00    -0.084 Cl
ENDBRANCH  17  18
ENDBRANCH  15  17
ENDBRANCH   9  13
BRANCH   3  25
ATOM     25  C   UNL     1      -1.457  -6.364   0.686  0.00  0.00    +0.127 C 
BRANCH  25  26
ATOM     26  N   UNL     1      -1.532  -6.787   2.091  0.00  0.00    -0.298 NA
ATOM     27  C   UNL     1      -0.228  -6.651   2.752  0.00  0.00    +0.105 C 
BRANCH  26  28
ATOM     28  C   UNL     1      -2.037  -8.163   2.199  0.00  0.00    +0.120 C 
BRANCH  28  29
ATOM     29  C   UNL     1      -2.338  -8.481   3.665  0.00  0.00    +0.158 C 
BRANCH  29  30
ATOM     30  C   UNL     1      -2.738  -9.929   3.793  0.00  0.00    -0.018 A 
ATOM     31  C   UNL     1      -4.028 -10.319   3.485  0.00  0.00    +0.006 A 
ATOM     32  C   UNL     1      -4.393 -11.647   3.598  0.00  0.00    +0.000 A 
ATOM     33  C   UNL     1      -3.472 -12.584   4.027  0.00  0.00    +0.000 A 
ATOM     34  C   UNL     1      -2.183 -12.193   4.340  0.00  0.00    +0.000 A 
ATOM     35  C   UNL     1      -1.816 -10.865   4.223  0.00  0.00    +0.006 A 
ENDBRANCH  29  30
BRANCH  29  36
ATOM     36  O   UNL     1      -3.405  -7.650   4.124  0.00  0.00    -0.386 OA
ATOM     37  H   UNL     1      -3.763  -7.736   5.161  0.00  0.00    +0.210 HD
ENDBRANCH  29  36
ENDBRANCH  28  29
ENDBRANCH  26  28
ENDBRANCH  25  26
ENDBRANCH   3  25
TORSDOF 9
