REMARK  Name = ZINC53362954
REMARK  6 active torsions:
REMARK  status: ('A' for Active; 'I' for Inactive)
REMARK    1  A    between atoms: C_1  and  O_2
REMARK    2  A    between atoms: O_2  and  C_3
REMARK    3  A    between atoms: C_6  and  C_9
REMARK    4  A    between atoms: C_11  and  C_24
REMARK    5  A    between atoms: C_14  and  C_17
REMARK    6  A    between atoms: C_22  and  O_23
REMARK                            x       y       z     vdW  Elec       q    Type
REMARK                         _______ _______ _______ _____ _____    ______ ____
ROOT
ATOM      1  C   UNL     1      -4.955  -2.615   0.037  0.00  0.00    +0.047 C 
ATOM      2  N   UNL     1      -6.019  -1.904   0.041  0.00  0.00    -0.264 NA
ATOM      3  C   UNL     1      -7.370  -2.452   0.040  0.00  0.00    +0.204 C 
ATOM      4  N   UNL     1      -7.358  -3.861   0.452  0.00  0.00    -0.284 NA
ATOM      5  C   UNL     1      -6.371  -4.614  -0.340  0.00  0.00    +0.095 C 
ATOM      6  C   UNL     1      -4.973  -4.119   0.035  0.00  0.00    +0.079 C 
ATOM      7  H   UNL     1      -7.170  -3.947   1.440  0.00  0.00    +0.125 HD
ENDROOT
BRANCH   3   8
ATOM      8  C   UNL     1      -8.227  -1.663   0.996  0.00  0.00    -0.009 A 
ATOM      9  C   UNL     1      -9.277  -2.278   1.651  0.00  0.00    +0.008 A 
ATOM     10  C   UNL     1     -10.063  -1.555   2.529  0.00  0.00    +0.015 A 
ATOM     11  C   UNL     1      -9.799  -0.216   2.751  0.00  0.00    +0.018 A 
ATOM     12  C   UNL     1      -8.748   0.400   2.095  0.00  0.00    +0.015 A 
ATOM     13  C   UNL     1      -7.959  -0.326   1.221  0.00  0.00    +0.008 A 
ATOM     14 BR   UNL     1     -10.874   0.774   3.950  0.00  0.00    -0.050 Br
ENDBRANCH   3   8
BRANCH   1  18
ATOM     15  C   UNL     1      -1.199  -0.637   0.010  0.00  0.00    +0.120 A 
ATOM     16  C   UNL     1      -2.373   0.106   0.020  0.00  0.00    +0.046 A 
ATOM     17  C   UNL     1      -3.594  -0.532   0.028  0.00  0.00    +0.013 A 
ATOM     18  C   UNL     1      -3.651  -1.928   0.027  0.00  0.00    -0.004 A 
ATOM     19  C   UNL     1      -2.467  -2.671   0.017  0.00  0.00    +0.013 A 
ATOM     20  C   UNL     1      -1.251  -2.025   0.003  0.00  0.00    +0.046 A 
BRANCH  15  22
ATOM     21  C   UNL     1      -0.017   1.425   0.010  0.00  0.00    +0.277 C 
ATOM     22  O   UNL     1       0.002  -0.004   0.002  0.00  0.00    -0.495 OA
ENDBRANCH  15  22
ENDBRANCH   1  18
BRANCH   5  23
ATOM     23  C   UNL     1      -6.491  -6.085  -0.036  0.00  0.00    +0.011 A 
ATOM     24  C   UNL     1      -7.109  -6.502   1.127  0.00  0.00    +0.009 A 
ATOM     25  C   UNL     1      -7.219  -7.852   1.407  0.00  0.00    +0.001 A 
ATOM     26  C   UNL     1      -6.711  -8.787   0.525  0.00  0.00    +0.004 A 
ATOM     27  C   UNL     1      -6.092  -8.375  -0.639  0.00  0.00    +0.046 A 
ATOM     28  C   UNL     1      -5.985  -7.022  -0.925  0.00  0.00    +0.122 A 
BRANCH  28  29
ATOM     29  O   UNL     1      -5.381  -6.614  -2.073  0.00  0.00    -0.506 OA
ATOM     30  H   UNL     1      -4.429  -6.473  -1.987  0.00  0.00    +0.292 HD
ENDBRANCH  28  29
ENDBRANCH   5  23
TORSDOF 5
