REMARK  Name = ZINC03251664
REMARK  6 active torsions:
REMARK  status: ('A' for Active; 'I' for Inactive)
REMARK    1  A    between atoms: C_2  and  C_3
REMARK    2  A    between atoms: C_3  and  N_4
REMARK    3  A    between atoms: C_17  and  S_18
REMARK    4  A    between atoms: S_18  and  C_19
REMARK    5  A    between atoms: C_19  and  C_20
REMARK    6  A    between atoms: C_20  and  C_22
REMARK                            x       y       z     vdW  Elec       q    Type
REMARK                         _______ _______ _______ _____ _____    ______ ____
ROOT
ATOM      1  N   UNL     1      -3.270   1.369   1.157  0.00  0.00    -0.273 N 
ATOM      2  C   UNL     1      -3.150   0.728   2.337  0.00  0.00    +0.263 A 
ATOM      3  O   UNL     1      -2.369  -0.197   2.462  0.00  0.00    -0.267 OA
ATOM      4  C   UNL     1      -3.977   1.171   3.474  0.00  0.00    +0.064 A 
ATOM      5  C   UNL     1      -3.890   0.549   4.718  0.00  0.00    +0.015 A 
ATOM      6  C   UNL     1      -4.684   0.988   5.757  0.00  0.00    +0.001 A 
ATOM      7  C   UNL     1      -5.565   2.041   5.568  0.00  0.00    +0.002 A 
ATOM      8  C   UNL     1      -5.660   2.666   4.340  0.00  0.00    +0.027 A 
ATOM      9  C   UNL     1      -4.869   2.237   3.285  0.00  0.00    +0.064 A 
ATOM     10  N   UNL     1      -4.946   2.850   2.036  0.00  0.00    -0.256 N 
ATOM     11  C   UNL     1      -4.161   2.420   1.001  0.00  0.00    +0.240 A 
ATOM     12  N   UNL     1      -4.434   3.165  -0.046  0.00  0.00    -0.109 NA
ATOM     13  N   UNL     1      -5.415   4.093   0.324  0.00  0.00    -0.120 NA
ATOM     14  C   UNL     1      -5.713   3.889   1.583  0.00  0.00    +0.198 A 
ENDROOT
BRANCH   1  15
ATOM     15  C   UNL     1      -2.451   0.944   0.019  0.00  0.00    +0.155 C 
BRANCH  15  17
ATOM     16  C   UNL     1      -0.013   1.076   0.008  0.00  0.00    +0.005 C 
ATOM     17  C   UNL     1      -1.156   1.715   0.017  0.00  0.00    -0.013 C 
ENDBRANCH  15  17
ENDBRANCH   1  15
BRANCH  14  18
ATOM     18  S   UNL     1      -6.894   4.794   2.529  0.00  0.00    -0.078 S 
BRANCH  18  19
ATOM     19  C   UNL     1      -7.550   6.015   1.358  0.00  0.00    +0.157 C 
BRANCH  19  20
ATOM     20  C   UNL     1      -8.584   6.866   2.048  0.00  0.00    +0.175 C 
ATOM     21  O   UNL     1      -8.853   6.668   3.216  0.00  0.00    -0.291 OA
BRANCH  20  22
ATOM     22  C   UNL     1      -9.244   7.897   1.334  0.00  0.00    +0.043 A 
ATOM     23  C   UNL     1      -9.047   8.248   0.016  0.00  0.00    +0.095 A 
ATOM     24  N   UNL     1      -9.859   9.274  -0.306  0.00  0.00    -0.360 N 
ATOM     25  H   UNL     1      -9.900   9.691  -1.180  0.00  0.00    +0.165 HD
ATOM     26  C   UNL     1     -10.619   9.653   0.782  0.00  0.00    +0.047 A 
ATOM     27  C   UNL     1     -10.275   8.817   1.855  0.00  0.00    +0.010 A 
ATOM     28  C   UNL     1     -10.893   8.975   3.091  0.00  0.00    +0.011 A 
ATOM     29  C   UNL     1     -11.846   9.957   3.257  0.00  0.00    +0.001 A 
ATOM     30  C   UNL     1     -12.188  10.785   2.198  0.00  0.00    +0.002 A 
ATOM     31  C   UNL     1     -11.583  10.639   0.969  0.00  0.00    +0.026 A 
ENDBRANCH  20  22
ENDBRANCH  19  20
ENDBRANCH  18  19
ENDBRANCH  14  18
TORSDOF 6
