REMARK  Name = ZINC64741644
REMARK  7 active torsions:
REMARK  status: ('A' for Active; 'I' for Inactive)
REMARK    1  A    between atoms: C_1  and  C_2
REMARK    2  A    between atoms: C_5  and  C_8
REMARK    3  A    between atoms: C_8  and  S_9
REMARK    4  A    between atoms: S_9  and  C_10
REMARK    5  A    between atoms: C_16  and  C_24
REMARK    6  A    between atoms: N_26  and  C_27
REMARK    7  A    between atoms: C_32  and  C_33
REMARK                            x       y       z     vdW  Elec       q    Type
REMARK                         _______ _______ _______ _____ _____    ______ ____
ROOT
ATOM      1  C   UNL     1       1.631  -6.614  -0.043  0.00  0.00    +0.182 C 
ATOM      2  N   UNL     1       0.408  -7.117  -0.052  0.00  0.00    -0.154 NA
ATOM      3  C   UNL     1       0.182  -8.431   0.006  0.00  0.00    +0.249 C 
ATOM      4  O   UNL     1      -0.945  -8.886  -0.029  0.00  0.00    -0.273 OA
ATOM      5  C   UNL     1       1.398  -9.327   0.119  0.00  0.00    +0.153 C 
ATOM      6  C   UNL     1       1.351 -10.345  -1.023  0.00  0.00    +0.103 C 
ATOM      7  C   UNL     1       2.478 -11.360  -0.820  0.00  0.00    +0.110 C 
ATOM      8  C   UNL     1       3.783 -10.669  -0.553  0.00  0.00    +0.219 C 
ATOM      9  O   UNL     1       4.812 -11.290  -0.715  0.00  0.00    -0.275 OA
ATOM     10  N   UNL     1       3.863  -9.392  -0.142  0.00  0.00    -0.273 N 
ATOM     11  C   UNL     1       2.743  -8.633   0.012  0.00  0.00    +0.117 C 
ATOM     12  N   UNL     1       2.760  -7.332  -0.046  0.00  0.00    -0.212 NA
ATOM     13  H   UNL     1       4.729  -9.007   0.062  0.00  0.00    +0.156 HD
ENDROOT
BRANCH   6  14
ATOM     14  C   UNL     1       1.535  -9.636  -2.340  0.00  0.00    +0.222 C 
ATOM     15  O   UNL     1       1.689  -8.433  -2.365  0.00  0.00    -0.275 OA
ATOM     16  N   UNL     1       1.528 -10.338  -3.490  0.00  0.00    -0.285 N 
ATOM     17  H   UNL     1       1.485 -11.307  -3.466  0.00  0.00    +0.155 HD
BRANCH  16  18
ATOM     18  C   UNL     1       1.583  -9.671  -4.718  0.00  0.00    +0.038 A 
ATOM     19  C   UNL     1       1.136  -8.359  -4.818  0.00  0.00    +0.023 A 
ATOM     20  C   UNL     1       1.192  -7.702  -6.031  0.00  0.00    +0.003 A 
ATOM     21  C   UNL     1       1.691  -8.348  -7.147  0.00  0.00    +0.020 A 
ATOM     22  C   UNL     1       2.136  -9.654  -7.052  0.00  0.00    +0.046 A 
ATOM     23  C   UNL     1       2.088 -10.315  -5.839  0.00  0.00    -0.011 A 
ATOM     24  C   UNL     1       2.579 -11.736  -5.734  0.00  0.00    +0.047 C 
ATOM     25 CL   UNL     1       2.761 -10.462  -8.456  0.00  0.00    -0.083 Cl
ENDBRANCH  16  18
ENDBRANCH   6  14
BRANCH   1  26
ATOM     26  S   UNL     1       1.785  -4.859  -0.034  0.00  0.00    -0.084 S 
BRANCH  26  27
ATOM     27  C   UNL     1       0.070  -4.267  -0.031  0.00  0.00    +0.112 C 
BRANCH  27  32
ATOM     28  C   UNL     1       0.023   1.511  -0.001  0.00  0.00    +0.044 C 
ATOM     29  C   UNL     1       0.035   0.004  -0.009  0.00  0.00    -0.050 A 
ATOM     30  C   UNL     1       0.043  -0.680  -1.210  0.00  0.00    +0.003 A 
ATOM     31  C   UNL     1       0.054  -2.063  -1.217  0.00  0.00    +0.005 A 
ATOM     32  C   UNL     1       0.059  -2.760  -0.023  0.00  0.00    -0.037 A 
ATOM     33  C   UNL     1       0.052  -2.075   1.177  0.00  0.00    +0.005 A 
ATOM     34  C   UNL     1       0.045  -0.693   1.185  0.00  0.00    +0.003 A 
ENDBRANCH  27  32
ENDBRANCH  26  27
ENDBRANCH   1  26
TORSDOF 5
