REMARK  Name = ZINC22821361
REMARK  11 active torsions:
REMARK  status: ('A' for Active; 'I' for Inactive)
REMARK    1  A    between atoms: C_1  and  C_2
REMARK    2  A    between atoms: C_2  and  C_3
REMARK    3  A    between atoms: C_6  and  N_9
REMARK    4  A    between atoms: C_10  and  C_36
REMARK    5  A    between atoms: N_19  and  C_24
REMARK    6  A    between atoms: N_22  and  C_23
REMARK    7  A    between atoms: C_24  and  C_25
REMARK    8  A    between atoms: C_25  and  C_27
REMARK    9  A    between atoms: C_25  and  C_28
REMARK   10  A    between atoms: C_28  and  N_29
REMARK   11  A    between atoms: N_32  and  C_35
REMARK                            x       y       z     vdW  Elec       q    Type
REMARK                         _______ _______ _______ _____ _____    ______ ____
ROOT
ATOM      1  N   UNL     1      -4.657   1.238  -5.401  0.00  0.00    -0.283 N 
ATOM      2  C   UNL     1      -5.049   0.014  -4.888  0.00  0.00    +0.040 A 
ATOM      3  C   UNL     1      -4.297  -0.250  -3.824  0.00  0.00    +0.116 A 
ATOM      4  N   UNL     1      -3.414   0.800  -3.642  0.00  0.00    -0.277 N 
ATOM      5  C   UNL     1      -3.638   1.714  -4.614  0.00  0.00    +0.223 A 
ATOM      6  N   UNL     1      -2.803   2.731  -4.459  0.00  0.00    -0.193 NA
ATOM      7  C   UNL     1      -2.022   2.519  -3.404  0.00  0.00    +0.170 A 
ATOM      8  C   UNL     1      -2.384   1.291  -2.853  0.00  0.00    +0.157 A 
ATOM      9  C   UNL     1      -1.703   0.820  -1.718  0.00  0.00    +0.283 A 
ATOM     10  O   UNL     1      -2.000  -0.254  -1.224  0.00  0.00    -0.265 OA
ATOM     11  N   UNL     1      -0.721   1.571  -1.179  0.00  0.00    -0.259 N 
ATOM     12  C   UNL     1      -0.379   2.755  -1.716  0.00  0.00    +0.333 A 
ATOM     13  O   UNL     1       0.515   3.401  -1.204  0.00  0.00    -0.246 OA
ATOM     14  N   UNL     1      -1.000   3.242  -2.806  0.00  0.00    -0.279 N 
ATOM     15  C   UNL     1      -0.597   4.537  -3.361  0.00  0.00    +0.155 C 
ATOM     16  C   UNL     1      -6.140  -0.866  -5.441  0.00  0.00    +0.065 C 
ENDROOT
BRANCH   1  20
ATOM     17  C   UNL     1      -6.276   3.138  -8.737  0.00  0.00    -0.047 A 
ATOM     18  C   UNL     1      -7.055   2.935  -7.613  0.00  0.00    +0.005 A 
ATOM     19  C   UNL     1      -6.521   2.306  -6.505  0.00  0.00    +0.026 A 
ATOM     20  C   UNL     1      -5.201   1.876  -6.522  0.00  0.00    +0.050 A 
ATOM     21  C   UNL     1      -4.420   2.086  -7.651  0.00  0.00    +0.026 A 
ATOM     22  C   UNL     1      -4.961   2.711  -8.757  0.00  0.00    +0.005 A 
BRANCH  17  24
ATOM     23  C   UNL     1      -6.638   5.334  -9.830  0.00  0.00    +0.009 C 
ATOM     24  C   UNL     1      -6.862   3.825  -9.944  0.00  0.00    +0.032 C 
ENDBRANCH  17  24
ENDBRANCH   1  20
BRANCH  11  25
ATOM     25  C   UNL     1      -0.013   1.086   0.008  0.00  0.00    +0.131 C 
BRANCH  25  26
ATOM     26  C   UNL     1      -0.729   1.579   1.267  0.00  0.00    -0.011 C 
ATOM     27  C   UNL     1      -2.121   0.950   1.341  0.00  0.00    +0.007 C 
BRANCH  26  28
ATOM     28  C   UNL     1       0.079   1.179   2.503  0.00  0.00    -0.074 C 
BRANCH  28  29
ATOM     29  N   UNL     1      -0.544   1.754   3.703  0.00  0.00    +0.382 N 
ATOM     30  C   UNL     1      -0.455   3.221   3.691  0.00  0.00    -0.063 C 
ATOM     31  C   UNL     1      -1.183   3.784   4.913  0.00  0.00    +0.065 C 
ATOM     32  N   UNL     1      -0.581   3.232   6.135  0.00  0.00    -0.309 NA
ATOM     33  C   UNL     1      -0.671   1.766   6.147  0.00  0.00    +0.065 C 
ATOM     34  C   UNL     1       0.057   1.202   4.925  0.00  0.00    -0.063 C 
ATOM     35  C   UNL     1      -1.204   3.808   7.335  0.00  0.00    +0.104 C 
ATOM     36  H   UNL     1      -1.609   1.479   3.694  0.00  0.00    -0.082 HD
ENDBRANCH  28  29
ENDBRANCH  26  28
ENDBRANCH  25  26
ENDBRANCH  11  25
TORSDOF 6
