REMARK  Name = ZINC67480836
REMARK  7 active torsions:
REMARK  status: ('A' for Active; 'I' for Inactive)
REMARK    1  A    between atoms: C_4  and  C_7
REMARK    2  A    between atoms: C_7  and  C_9
REMARK    3  A    between atoms: C_7  and  N_12
REMARK    4  A    between atoms: N_15  and  C_16
REMARK    5  A    between atoms: C_16  and  C_17
REMARK    6  A    between atoms: N_22  and  C_23
REMARK    7  A    between atoms: C_23  and  C_24
REMARK                            x       y       z     vdW  Elec       q    Type
REMARK                         _______ _______ _______ _____ _____    ______ ____
ROOT
ATOM      1  N   UNL     1       8.086  -3.983  -0.181  0.00  0.00    -0.284 N 
ATOM      2  C   UNL     1       7.193  -3.595   0.750  0.00  0.00    +0.300 C 
ATOM      3  O   UNL     1       6.779  -2.451   0.756  0.00  0.00    -0.253 OA
ATOM      4  N   UNL     1       6.759  -4.473   1.675  0.00  0.00    -0.301 N 
ATOM      5  H   UNL     1       8.416  -4.895  -0.186  0.00  0.00    +0.151 HD
ATOM      6  H   UNL     1       7.089  -5.385   1.670  0.00  0.00    +0.150 HD
ENDROOT
BRANCH   1   7
ATOM      7  C   UNL     1       8.559  -3.028  -1.187  0.00  0.00    +0.190 C 
BRANCH   7  11
ATOM      8  C   UNL     1       9.859  -5.144  -4.662  0.00  0.00    +0.000 A 
ATOM      9  C   UNL     1       9.152  -3.963  -4.796  0.00  0.00    +0.000 A 
ATOM     10  C   UNL     1       8.732  -3.279  -3.671  0.00  0.00    +0.006 A 
ATOM     11  C   UNL     1       9.017  -3.775  -2.413  0.00  0.00    -0.018 A 
ATOM     12  C   UNL     1       9.723  -4.956  -2.279  0.00  0.00    +0.006 A 
ATOM     13  C   UNL     1      10.145  -5.640  -3.404  0.00  0.00    +0.000 A 
ENDBRANCH   7  11
BRANCH   7  14
ATOM     14  C   UNL     1       9.709  -2.234  -0.624  0.00  0.00    +0.235 C 
ATOM     15  O   UNL     1      10.096  -2.444   0.506  0.00  0.00    -0.274 OA
ATOM     16  N   UNL     1      10.307  -1.289  -1.376  0.00  0.00    -0.328 N 
ATOM     17  H   UNL     1       9.998  -1.120  -2.279  0.00  0.00    +0.145 HD
ATOM     18  H   UNL     1      11.048  -0.777  -1.013  0.00  0.00    +0.145 HD
ENDBRANCH   7  14
ENDBRANCH   1   7
BRANCH   4  19
ATOM     19  C   UNL     1       5.788  -4.051   2.688  0.00  0.00    +0.090 C 
BRANCH  19  20
ATOM     20  C   UNL     1       5.372  -5.258   3.530  0.00  0.00    -0.051 C 
ATOM     21  C   UNL     1       6.586  -5.789   4.322  0.00  0.00    -0.016 C 
ATOM     22  C   UNL     1       5.966  -6.186   5.688  0.00  0.00    -0.020 C 
ATOM     23  C   UNL     1       4.888  -5.090   5.873  0.00  0.00    -0.078 C 
ATOM     24  N   UNL     1       4.348  -4.856   4.513  0.00  0.00    +0.383 N 
ATOM     25  H   UNL     1       3.513  -5.405   4.377  0.00  0.00    -0.081 HD
BRANCH  24  26
ATOM     26  C   UNL     1       4.034  -3.431   4.343  0.00  0.00    -0.075 C 
BRANCH  26  27
ATOM     27  C   UNL     1       2.904  -3.041   5.298  0.00  0.00    -0.028 C 
ATOM     28  C   UNL     1       1.626  -3.787   4.910  0.00  0.00    +0.002 C 
ATOM     29  C   UNL     1       0.497  -3.396   5.866  0.00  0.00    +0.000 C 
ATOM     30  C   UNL     1       0.254  -1.888   5.779  0.00  0.00    +0.000 C 
ATOM     31  C   UNL     1       1.532  -1.142   6.167  0.00  0.00    +0.000 C 
ATOM     32  C   UNL     1       2.661  -1.532   5.212  0.00  0.00    +0.002 C 
ENDBRANCH  26  27
ENDBRANCH  24  26
ENDBRANCH  19  20
ENDBRANCH   4  19
TORSDOF 7
