REMARK  Name = ZINC20228860
REMARK  7 active torsions:
REMARK  status: ('A' for Active; 'I' for Inactive)
REMARK    1  A    between atoms: C_1  and  O_2
REMARK    2  A    between atoms: O_2  and  C_3
REMARK    3  A    between atoms: C_6  and  O_33
REMARK    4  A    between atoms: C_7  and  C_9
REMARK    5  A    between atoms: C_14  and  C_20
REMARK    6  A    between atoms: C_22  and  N_27
REMARK    7  A    between atoms: O_33  and  C_34
REMARK                            x       y       z     vdW  Elec       q    Type
REMARK                         _______ _______ _______ _____ _____    ______ ____
ROOT
ATOM      1  C   UNL     1      -3.413   6.530   3.303  0.00  0.00    +0.036 C 
ATOM      2  C   UNL     1      -2.144   6.844   2.506  0.00  0.00    +0.060 C 
ATOM      3  C   UNL     1      -2.087   5.969   1.279  0.00  0.00    +0.018 C 
ATOM      4  C   UNL     1      -2.632   4.734   1.284  0.00  0.00    +0.020 C 
ATOM      5  C   UNL     1      -2.553   3.871   0.046  0.00  0.00    +0.064 C 
ATOM      6  C   UNL     1      -2.657   4.756  -1.197  0.00  0.00    +0.109 C 
ATOM      7  C   UNL     1      -1.709   5.919  -1.056  0.00  0.00    +0.218 C 
ATOM      8  O   UNL     1      -1.164   6.377  -2.038  0.00  0.00    -0.275 OA
ATOM      9  N   UNL     1      -1.466   6.450   0.154  0.00  0.00    -0.289 N 
ATOM     10  C   UNL     1      -3.280   4.224   2.422  0.00  0.00    +0.162 C 
ATOM     11  O   UNL     1      -3.750   3.104   2.391  0.00  0.00    -0.292 OA
ATOM     12  C   UNL     1      -3.401   5.044   3.678  0.00  0.00    +0.088 C 
ATOM     13  H   UNL     1      -0.755   7.286   0.234  0.00  0.00    +0.155 HD
ENDROOT
BRANCH   5  14
ATOM     14  C   UNL     1      -1.238   3.135   0.030  0.00  0.00    -0.019 A 
ATOM     15  C   UNL     1      -0.050   3.841   0.022  0.00  0.00    +0.038 A 
ATOM     16  C   UNL     1       1.156   3.166   0.007  0.00  0.00    +0.127 A 
ATOM     17  C   UNL     1       1.175   1.783   0.000  0.00  0.00    +0.034 A 
ATOM     18  C   UNL     1      -0.013   1.076   0.008  0.00  0.00    +0.022 A 
ATOM     19  C   UNL     1      -1.220   1.752   0.017  0.00  0.00    +0.045 A 
ATOM     20 CL   UNL     1      -2.712   0.864   0.019  0.00  0.00    -0.083 Cl
BRANCH  16  21
ATOM     21  N   UNL     1       2.428   3.923  -0.001  0.00  0.00    +0.056 N 
ATOM     22  O   UNL     1       3.490   3.328  -0.014  0.00  0.00    -0.126 OA
ATOM     23  O   UNL     1       2.412   5.140   0.005  0.00  0.00    -0.126 OA
ENDBRANCH  16  21
ENDBRANCH   5  14
BRANCH   1  28
ATOM     24  C   UNL     1      -2.461   8.038   6.635  0.00  0.00    +0.121 A 
ATOM     25  C   UNL     1      -3.517   8.910   6.857  0.00  0.00    +0.049 A 
ATOM     26  C   UNL     1      -4.536   9.010   5.930  0.00  0.00    +0.049 A 
ATOM     27  C   UNL     1      -4.501   8.242   4.775  0.00  0.00    +0.124 A 
ATOM     28  C   UNL     1      -3.448   7.367   4.556  0.00  0.00    +0.002 A 
ATOM     29  C   UNL     1      -2.428   7.267   5.483  0.00  0.00    +0.053 A 
BRANCH  24  31
ATOM     30  C   UNL     1      -1.555   8.763   8.711  0.00  0.00    +0.277 C 
ATOM     31  O   UNL     1      -1.457   7.940   7.547  0.00  0.00    -0.495 OA
ENDBRANCH  24  31
BRANCH  27  32
ATOM     32  O   UNL     1      -5.502   8.345   3.860  0.00  0.00    -0.495 OA
ATOM     33  C   UNL     1      -6.554   9.266   4.151  0.00  0.00    +0.277 C 
ENDBRANCH  27  32
ENDBRANCH   1  28
TORSDOF 5
