REMARK  Name = ZINC20272841
REMARK  4 active torsions:
REMARK  status: ('A' for Active; 'I' for Inactive)
REMARK    1  A    between atoms: C_9  and  N_12
REMARK    2  A    between atoms: N_15  and  C_18
REMARK    3  A    between atoms: C_18  and  C_19
REMARK    4  A    between atoms: C_21  and  C_24
REMARK                            x       y       z     vdW  Elec       q    Type
REMARK                         _______ _______ _______ _____ _____    ______ ____
ROOT
ATOM      1  N   UNL     1       0.746  -0.488   1.173  0.00  0.00    +0.383 N 
ATOM      2  C   UNL     1       0.002  -0.004   0.002  0.00  0.00    -0.063 C 
ATOM      3  C   UNL     1      -0.019   1.526   0.010  0.00  0.00    +0.066 C 
ATOM      4  N   UNL     1       1.361   2.032   0.000  0.00  0.00    -0.297 NA
ATOM      5  C   UNL     1       2.105   1.549   1.171  0.00  0.00    +0.066 C 
ATOM      6  C   UNL     1       2.126   0.018   1.163  0.00  0.00    -0.063 C 
ATOM      7  H   UNL     1       0.249  -0.101   2.075  0.00  0.00    -0.081 HD
ENDROOT
BRANCH   1  16
ATOM      8  C   UNL     1       1.947  -6.767   0.276  0.00  0.00    +0.000 A 
ATOM      9  C   UNL     1       1.983  -6.130  -0.950  0.00  0.00    +0.000 A 
ATOM     10  C   UNL     1       1.795  -4.765  -1.018  0.00  0.00    +0.004 A 
ATOM     11  C   UNL     1       1.568  -4.025   0.136  0.00  0.00    -0.046 A 
ATOM     12  C   UNL     1       1.529  -4.661   1.356  0.00  0.00    -0.044 A 
ATOM     13  C   UNL     1       1.721  -6.035   1.423  0.00  0.00    +0.004 A 
ATOM     14  C   UNL     1       1.279  -3.924   2.647  0.00  0.00    +0.034 C 
ATOM     15  C   UNL     1       1.519  -2.427   2.465  0.00  0.00    -0.010 C 
ATOM     16  C   UNL     1       0.724  -1.955   1.242  0.00  0.00    -0.064 C 
ATOM     17  C   UNL     1       1.375  -2.538  -0.011  0.00  0.00    +0.020 C 
ENDBRANCH   1  16
BRANCH   4  18
ATOM     18  C   UNL     1       1.383   3.500  -0.069  0.00  0.00    +0.183 C 
BRANCH  18  19
ATOM     19  C   UNL     1       2.787   3.993   0.169  0.00  0.00    +0.242 A 
ATOM     20  N   UNL     1       3.706   4.191  -0.743  0.00  0.00    -0.190 NA
ATOM     21  C   UNL     1       4.795   4.632  -0.071  0.00  0.00    +0.202 A 
ATOM     22  N   UNL     1       4.477   4.668   1.197  0.00  0.00    -0.056 NA
ATOM     23  O   UNL     1       3.330   4.304   1.350  0.00  0.00    -0.336 OA
BRANCH  21  24
ATOM     24  C   UNL     1       6.104   5.001  -0.662  0.00  0.00    +0.026 A 
ATOM     25  C   UNL     1       6.298   4.912  -2.040  0.00  0.00    +0.015 A 
ATOM     26  C   UNL     1       7.516   5.257  -2.589  0.00  0.00    +0.050 A 
ATOM     27  C   UNL     1       8.551   5.691  -1.773  0.00  0.00    +0.166 A 
ATOM     28  C   UNL     1       8.362   5.781  -0.395  0.00  0.00    +0.167 A 
ATOM     29  C   UNL     1       7.141   5.443   0.158  0.00  0.00    +0.061 A 
ATOM     30  O   UNL     1       9.519   6.229   0.175  0.00  0.00    -0.453 OA
ATOM     31  C   UNL     1      10.283   6.800  -0.903  0.00  0.00    +0.466 C 
ATOM     32  O   UNL     1       9.826   6.082  -2.064  0.00  0.00    -0.453 OA
ENDBRANCH  21  24
ENDBRANCH  18  19
ENDBRANCH   4  18
TORSDOF 4
