REMARK  Name = ZINC46810113
REMARK  4 active torsions:
REMARK  status: ('A' for Active; 'I' for Inactive)
REMARK    1  A    between atoms: C_2  and  C_9
REMARK    2  A    between atoms: N_11  and  N_12
REMARK    3  A    between atoms: C_13  and  C_15
REMARK    4  A    between atoms: C_15  and  C_16
REMARK                            x       y       z     vdW  Elec       q    Type
REMARK                         _______ _______ _______ _____ _____    ______ ____
ROOT
ATOM      1  N   UNL     1       2.321   5.652   0.009  0.00  0.00    -0.234 N 
ATOM      2  C   UNL     1       3.482   6.336   0.002  0.00  0.00    +0.230 C 
ATOM      3  O   UNL     1       4.537   5.739  -0.011  0.00  0.00    -0.274 OA
ATOM      4  H   UNL     1       1.476   6.130   0.020  0.00  0.00    +0.173 HD
ENDROOT
BRANCH   1   7
ATOM      5  C   UNL     1       1.172   3.567   0.009  0.00  0.00    +0.260 C 
ATOM      6  O   UNL     1       0.114   4.166   0.022  0.00  0.00    -0.269 OA
ATOM      7  N   UNL     1       2.333   4.251   0.002  0.00  0.00    -0.230 N 
ATOM      8  H   UNL     1       3.177   3.773  -0.008  0.00  0.00    +0.173 HD
BRANCH   5  10
ATOM      9  C   UNL     1      -0.017   1.378   0.010  0.00  0.00    +0.051 A 
ATOM     10  C   UNL     1       1.184   2.089   0.002  0.00  0.00    +0.042 A 
ATOM     11  C   UNL     1       2.397   1.399  -0.013  0.00  0.00    +0.028 A 
ATOM     12  C   UNL     1       2.404   0.018  -0.021  0.00  0.00    +0.021 A 
ATOM     13  C   UNL     1       1.210  -0.683  -0.014  0.00  0.00    +0.053 A 
ATOM     14  C   UNL     1       0.002  -0.004   0.002  0.00  0.00    +0.125 A 
ATOM     15  F   UNL     1      -1.159  -0.694   0.010  0.00  0.00    -0.205 F 
ATOM     16 BR   UNL     1       4.047  -0.918  -0.042  0.00  0.00    -0.050 Br
ENDBRANCH   5  10
ENDBRANCH   1   7
BRANCH   2  17
ATOM     17  C   UNL     1       3.469   7.843   0.010  0.00  0.00    +0.104 C 
BRANCH  17  18
ATOM     18  C   UNL     1       4.907   8.365  -0.001  0.00  0.00    -0.020 C 
ATOM     19  C   UNL     1       5.644   7.855   1.239  0.00  0.00    +0.011 C 
ATOM     20  C   UNL     1       7.082   8.378   1.228  0.00  0.00    -0.010 C 
ATOM     21  C   UNL     1       7.069   9.908   1.236  0.00  0.00    +0.007 C 
ATOM     22  C   UNL     1       6.332  10.418  -0.004  0.00  0.00    -0.010 C 
ATOM     23  C   UNL     1       4.894   9.895   0.007  0.00  0.00    +0.011 C 
ATOM     24  C   UNL     1       7.046   9.920  -1.263  0.00  0.00    +0.007 C 
ATOM     25  C   UNL     1       7.059   8.390  -1.270  0.00  0.00    -0.010 C 
ATOM     26  C   UNL     1       7.796   7.880  -0.031  0.00  0.00    +0.007 C 
ATOM     27  C   UNL     1       5.621   7.868  -1.260  0.00  0.00    +0.011 C 
ENDBRANCH  17  18
ENDBRANCH   2  17
TORSDOF 4
