REMARK  Name = ZINC05020891
REMARK  8 active torsions:
REMARK  status: ('A' for Active; 'I' for Inactive)
REMARK    1  A    between atoms: C_1  and  C_2
REMARK    2  A    between atoms: C_2  and  O_3
REMARK    3  A    between atoms: O_3  and  C_4
REMARK    4  A    between atoms: C_9  and  N_10
REMARK    5  A    between atoms: C_11  and  S_15
REMARK    6  A    between atoms: S_15  and  C_16
REMARK    7  A    between atoms: C_16  and  C_17
REMARK    8  A    between atoms: C_23  and  C_28
REMARK                            x       y       z     vdW  Elec       q    Type
REMARK                         _______ _______ _______ _____ _____    ______ ____
ROOT
ATOM      1  N   UNL     1       2.052   0.694  -0.014  0.00  0.00    -0.184 N 
ATOM      2  C   UNL     1       1.210   1.757  -0.048  0.00  0.00    +0.214 A 
ATOM      3  N   UNL     1      -0.016   1.280  -0.018  0.00  0.00    -0.101 NA
ATOM      4  N   UNL     1       0.002  -0.004   0.032  0.00  0.00    -0.022 NA
ATOM      5  N   UNL     1       1.216  -0.436   0.038  0.00  0.00    -0.038 NA
ENDROOT
BRANCH   1  11
ATOM      6  C   UNL     1       4.174  -0.047   0.890  0.00  0.00    +0.146 A 
ATOM      7  C   UNL     1       5.560  -0.025   0.868  0.00  0.00    +0.048 A 
ATOM      8  C   UNL     1       6.224   0.762  -0.053  0.00  0.00    +0.004 A 
ATOM      9  C   UNL     1       5.511   1.524  -0.959  0.00  0.00    +0.002 A 
ATOM     10  C   UNL     1       4.129   1.504  -0.948  0.00  0.00    +0.031 A 
ATOM     11  C   UNL     1       3.455   0.716  -0.027  0.00  0.00    +0.111 A 
BRANCH   6  12
ATOM     12  O   UNL     1       3.519  -0.816   1.799  0.00  0.00    -0.490 OA
BRANCH  12  14
ATOM     13  C   UNL     1       3.414  -2.369   3.648  0.00  0.00    +0.048 C 
ATOM     14  C   UNL     1       4.321  -1.573   2.708  0.00  0.00    +0.226 C 
ENDBRANCH  12  14
ENDBRANCH   6  12
ENDBRANCH   1  11
BRANCH   2  15
ATOM     15  S   UNL     1       1.671   3.456  -0.118  0.00  0.00    -0.078 S 
BRANCH  15  16
ATOM     16  C   UNL     1       0.033   4.226  -0.133  0.00  0.00    +0.133 C 
BRANCH  16  17
ATOM     17  C   UNL     1       0.183   5.724  -0.193  0.00  0.00    +0.059 A 
ATOM     18  C   UNL     1      -0.062   6.396  -1.375  0.00  0.00    +0.094 A 
ATOM     19  C   UNL     1       0.079   7.788  -1.404  0.00  0.00    +0.259 A 
ATOM     20  O   UNL     1      -0.135   8.411  -2.432  0.00  0.00    -0.267 OA
ATOM     21  N   UNL     1       0.459   8.430  -0.280  0.00  0.00    -0.268 N 
ATOM     22  C   UNL     1       0.605   9.784  -0.293  0.00  0.00    +0.099 A 
ATOM     23  C   UNL     1       0.985  10.450   0.821  0.00  0.00    -0.034 A 
ATOM     24  C   UNL     1       1.234   9.749   2.009  0.00  0.00    +0.008 A 
ATOM     25  C   UNL     1       1.091   8.394   2.033  0.00  0.00    +0.047 A 
ATOM     26  C   UNL     1       0.695   7.719   0.864  0.00  0.00    +0.141 A 
ATOM     27  N   UNL     1       0.554   6.395   0.886  0.00  0.00    -0.233 NA
ATOM     28  C   UNL     1       1.140  11.948   0.785  0.00  0.00    +0.045 C 
ENDBRANCH  16  17
ENDBRANCH  15  16
ENDBRANCH   2  15
TORSDOF 6
