REMARK  Name = ZINC16292761
REMARK  11 active torsions:
REMARK  status: ('A' for Active; 'I' for Inactive)
REMARK    1  A    between atoms: C_1  and  C_2
REMARK    2  A    between atoms: C_5  and  N_8
REMARK    3  A    between atoms: C_11  and  C_16
REMARK    4  A    between atoms: C_13  and  C_15
REMARK    5  A    between atoms: C_16  and  C_17
REMARK    6  A    between atoms: C_16  and  C_27
REMARK    7  A    between atoms: C_19  and  N_24
REMARK    8  A    between atoms: C_22  and  O_23
REMARK    9  A    between atoms: C_29  and  C_41
REMARK   10  A    between atoms: N_31  and  C_34
REMARK   11  A    between atoms: C_37  and  C_40
REMARK                            x       y       z     vdW  Elec       q    Type
REMARK                         _______ _______ _______ _____ _____    ______ ____
ROOT
ATOM      1  C   UNL     1       1.447  -7.208   1.100  0.00  0.00    +0.058 C 
ENDROOT
BRANCH   1   5
ATOM      2  N   UNL     1       0.117  -4.235   0.257  0.00  0.00    -0.160 N 
ATOM      3  C   UNL     1       0.181  -5.059   1.324  0.00  0.00    +0.249 C 
ATOM      4  O   UNL     1       0.241  -4.747   2.495  0.00  0.00    -0.273 OA
ATOM      5  C   UNL     1       0.163  -6.459   0.741  0.00  0.00    +0.131 C 
ATOM      6  C   UNL     1       0.081  -6.220  -0.752  0.00  0.00    +0.047 C 
ATOM      7  N   UNL     1       0.053  -4.957  -0.930  0.00  0.00    -0.181 NA
ATOM      8  C   UNL     1       0.033  -7.276  -1.826  0.00  0.00    +0.063 C 
BRANCH   2  13
ATOM      9  C   UNL     1       0.081   1.430   0.575  0.00  0.00    +0.044 C 
ATOM     10  C   UNL     1       0.090  -0.075   0.490  0.00  0.00    -0.050 A 
ATOM     11  C   UNL     1       0.025  -0.697  -0.743  0.00  0.00    +0.005 A 
ATOM     12  C   UNL     1       0.033  -2.076  -0.824  0.00  0.00    +0.026 A 
ATOM     13  C   UNL     1       0.108  -2.837   0.336  0.00  0.00    +0.060 A 
ATOM     14  C   UNL     1       0.174  -2.209   1.573  0.00  0.00    +0.026 A 
ATOM     15  C   UNL     1       0.171  -0.830   1.646  0.00  0.00    +0.005 A 
ENDBRANCH   2  13
ENDBRANCH   1   5
BRANCH   1  16
ATOM     16  C   UNL     1       1.327  -8.668   0.657  0.00  0.00    +0.131 C 
ATOM     17  C   UNL     1       2.425  -9.506   1.276  0.00  0.00    +0.047 C 
ATOM     18  N   UNL     1       1.861 -10.390   2.003  0.00  0.00    -0.181 NA
ATOM     19  N   UNL     1       0.472 -10.302   1.992  0.00  0.00    -0.160 N 
ATOM     20  C   UNL     1       0.053  -9.287   1.200  0.00  0.00    +0.249 C 
ATOM     21  O   UNL     1      -1.089  -8.946   0.975  0.00  0.00    -0.273 OA
ATOM     22  C   UNL     1       3.908  -9.329   1.072  0.00  0.00    +0.063 C 
BRANCH  19  23
ATOM     23  C   UNL     1      -0.381 -11.153   2.704  0.00  0.00    +0.060 A 
ATOM     24  C   UNL     1      -1.757 -10.987   2.622  0.00  0.00    +0.026 A 
ATOM     25  C   UNL     1      -2.596 -11.829   3.326  0.00  0.00    +0.005 A 
ATOM     26  C   UNL     1      -2.066 -12.836   4.112  0.00  0.00    -0.050 A 
ATOM     27  C   UNL     1      -0.696 -13.003   4.197  0.00  0.00    +0.005 A 
ATOM     28  C   UNL     1       0.148 -12.169   3.490  0.00  0.00    +0.026 A 
ATOM     29  C   UNL     1      -2.984 -13.752   4.880  0.00  0.00    +0.044 C 
ENDBRANCH  19  23
ENDBRANCH   1  16
BRANCH   1  30
ATOM     30  C   UNL     1       1.662  -7.152   2.591  0.00  0.00    +0.001 A 
ATOM     31  C   UNL     1       0.719  -7.688   3.446  0.00  0.00    +0.040 A 
ATOM     32  C   UNL     1       0.915  -7.637   4.813  0.00  0.00    +0.127 A 
ATOM     33  C   UNL     1       2.056  -7.050   5.329  0.00  0.00    +0.036 A 
ATOM     34  C   UNL     1       3.002  -6.512   4.478  0.00  0.00    +0.048 A 
ATOM     35  C   UNL     1       2.810  -6.567   3.105  0.00  0.00    +0.120 A 
BRANCH  32  36
ATOM     36  N   UNL     1      -0.098  -8.212   5.727  0.00  0.00    +0.056 N 
ATOM     37  O   UNL     1      -1.095  -8.726   5.277  0.00  0.00    -0.126 OA
ATOM     38  O   UNL     1       0.073  -8.168   6.923  0.00  0.00    -0.126 OA
ENDBRANCH  32  36
BRANCH  35  39
ATOM     39  O   UNL     1       3.742  -6.044   2.266  0.00  0.00    -0.506 OA
ATOM     40  H   UNL     1       3.600  -5.111   2.053  0.00  0.00    +0.292 HD
ENDBRANCH  35  39
ENDBRANCH   1  30
TORSDOF 7
