REMARK  Name = ZINC36214882
REMARK  13 active torsions:
REMARK  status: ('A' for Active; 'I' for Inactive)
REMARK    1  A    between atoms: C_1  and  C_2
REMARK    2  A    between atoms: C_5  and  S_8
REMARK    3  A    between atoms: S_8  and  N_11
REMARK    4  A    between atoms: C_14  and  C_17
REMARK    5  A    between atoms: C_17  and  C_19
REMARK    6  A    between atoms: C_17  and  N_28
REMARK    7  A    between atoms: N_21  and  C_22
REMARK    8  A    between atoms: C_22  and  C_24
REMARK    9  A    between atoms: C_22  and  C_25
REMARK   10  A    between atoms: C_25  and  C_26
REMARK   11  A    between atoms: C_25  and  C_27
REMARK   12  A    between atoms: C_29  and  C_31
REMARK   13  A    between atoms: C_36  and  C_37
REMARK                            x       y       z     vdW  Elec       q    Type
REMARK                         _______ _______ _______ _____ _____    ______ ____
ROOT
ATOM      1  C   UNL     1       3.695  -8.082  -0.583  0.00  0.00    +0.162 C 
ENDROOT
BRANCH   1   5
ATOM      2  N   UNL     1       3.030  -4.472  -2.736  0.00  0.00    -0.177 NA
ATOM      3  C   UNL     1       3.984  -4.385  -1.621  0.00  0.00    +0.110 C 
ATOM      4  C   UNL     1       4.451  -5.799  -1.261  0.00  0.00    +0.023 C 
ATOM      5  C   UNL     1       3.231  -6.678  -0.977  0.00  0.00    +0.021 C 
ATOM      6  C   UNL     1       2.358  -6.763  -2.232  0.00  0.00    +0.023 C 
ATOM      7  C   UNL     1       1.865  -5.356  -2.601  0.00  0.00    +0.110 C 
BRANCH   2   8
ATOM      8  S   UNL     1       3.262  -3.585  -4.115  0.00  0.00    +0.061 S 
ATOM      9  O   UNL     1       2.562  -4.258  -5.153  0.00  0.00    -0.153 OA
ATOM     10  O   UNL     1       4.653  -3.307  -4.190  0.00  0.00    -0.153 OA
BRANCH   8  15
ATOM     11  C   UNL     1       0.484   1.712  -3.320  0.00  0.00    +0.044 C 
ATOM     12  C   UNL     1       1.178   0.389  -3.519  0.00  0.00    -0.050 A 
ATOM     13  C   UNL     1       2.501   0.239  -3.146  0.00  0.00    +0.005 A 
ATOM     14  C   UNL     1       3.137  -0.974  -3.328  0.00  0.00    +0.029 A 
ATOM     15  C   UNL     1       2.450  -2.038  -3.882  0.00  0.00    +0.105 A 
ATOM     16  C   UNL     1       1.127  -1.889  -4.254  0.00  0.00    +0.029 A 
ATOM     17  C   UNL     1       0.490  -0.676  -4.068  0.00  0.00    +0.005 A 
ENDBRANCH   8  15
ENDBRANCH   2   8
ENDBRANCH   1   5
BRANCH   1  18
ATOM     18  C   UNL     1       4.490  -8.008   0.695  0.00  0.00    +0.234 C 
ATOM     19  O   UNL     1       5.702  -8.018   0.657  0.00  0.00    -0.274 OA
ATOM     20  N   UNL     1       3.853  -7.931   1.881  0.00  0.00    -0.311 N 
ATOM     21  H   UNL     1       2.886  -7.997   1.917  0.00  0.00    +0.149 HD
BRANCH  20  22
ATOM     22  C   UNL     1       4.622  -7.747   3.114  0.00  0.00    +0.072 C 
ATOM     23  C   UNL     1       5.100  -9.108   3.625  0.00  0.00    +0.028 C 
BRANCH  22  24
ATOM     24  C   UNL     1       3.738  -7.087   4.173  0.00  0.00    +0.003 C 
ATOM     25  C   UNL     1       4.541  -6.896   5.462  0.00  0.00    +0.009 C 
ATOM     26  C   UNL     1       3.260  -5.726   3.663  0.00  0.00    +0.009 C 
ENDBRANCH  22  24
ENDBRANCH  20  22
ENDBRANCH   1  18
BRANCH   1  27
ATOM     27  N   UNL     1       4.534  -8.636  -1.649  0.00  0.00    -0.300 N 
ATOM     28  C   UNL     1       4.646  -9.971  -1.793  0.00  0.00    +0.245 C 
ATOM     29  O   UNL     1       4.050 -10.716  -1.038  0.00  0.00    -0.270 OA
ATOM     30  H   UNL     1       5.009  -8.042  -2.250  0.00  0.00    +0.150 HD
BRANCH  28  31
ATOM     31  C   UNL     1       5.492 -10.530  -2.868  0.00  0.00    +0.040 A 
ATOM     32  C   UNL     1       6.068  -9.685  -3.818  0.00  0.00    +0.013 A 
ATOM     33  C   UNL     1       6.857 -10.213  -4.819  0.00  0.00    +0.001 A 
ATOM     34  C   UNL     1       7.079 -11.578  -4.882  0.00  0.00    +0.000 A 
ATOM     35  C   UNL     1       6.512 -12.421  -3.943  0.00  0.00    +0.004 A 
ATOM     36  C   UNL     1       5.725 -11.905  -2.934  0.00  0.00    -0.038 A 
ATOM     37  C   UNL     1       5.113 -12.824  -1.908  0.00  0.00    +0.044 C 
ENDBRANCH  28  31
ENDBRANCH   1  27
TORSDOF 8
