REMARK  Name = ZINC38651493
REMARK  10 active torsions:
REMARK  status: ('A' for Active; 'I' for Inactive)
REMARK    1  A    between atoms: C_1  and  O_2
REMARK    2  A    between atoms: O_2  and  C_3
REMARK    3  A    between atoms: C_6  and  O_9
REMARK    4  A    between atoms: O_9  and  C_10
REMARK    5  A    between atoms: C_10  and  C_11
REMARK    6  A    between atoms: C_11  and  O_13
REMARK    7  A    between atoms: O_13  and  C_14
REMARK    8  A    between atoms: C_21  and  N_34
REMARK    9  A    between atoms: C_22  and  C_32
REMARK   10  A    between atoms: C_23  and  C_25
REMARK                            x       y       z     vdW  Elec       q    Type
REMARK                         _______ _______ _______ _____ _____    ______ ____
ROOT
ATOM      1  C   UNL     1       3.892  -6.158  -6.863  0.00  0.00    +0.135 A 
ATOM      2  C   UNL     1       4.457  -5.287  -7.783  0.00  0.00    +0.047 A 
ATOM      3  C   UNL     1       5.064  -5.784  -8.920  0.00  0.00    +0.012 A 
ATOM      4  C   UNL     1       5.112  -7.148  -9.146  0.00  0.00    +0.008 A 
ATOM      5  C   UNL     1       4.548  -8.022  -8.230  0.00  0.00    +0.138 A 
ATOM      6  C   UNL     1       3.943  -7.525  -7.083  0.00  0.00    +0.093 A 
ATOM      7  O   UNL     1       4.585  -9.362  -8.434  0.00  0.00    -0.441 OA
ATOM      8  C   UNL     1       4.808  -9.846  -9.667  0.00  0.00    +0.199 C 
ATOM      9  C   UNL     1       5.371  -9.094 -10.642  0.00  0.00    +0.098 C 
ATOM     10  C   UNL     1       5.778  -7.669 -10.392  0.00  0.00    +0.098 C 
ENDROOT
BRANCH  10  11
ATOM     11  C   UNL     1       7.274  -7.600 -10.223  0.00  0.00    -0.034 A 
ATOM     12  C   UNL     1       7.888  -8.300  -9.201  0.00  0.00    +0.004 A 
ATOM     13  C   UNL     1       9.260  -8.237  -9.046  0.00  0.00    +0.001 A 
ATOM     14  C   UNL     1      10.019  -7.474  -9.913  0.00  0.00    +0.015 A 
ATOM     15  C   UNL     1       9.406  -6.774 -10.936  0.00  0.00    +0.018 A 
ATOM     16  C   UNL     1       8.033  -6.841 -11.094  0.00  0.00    +0.020 A 
ATOM     17 BR   UNL     1      10.444  -5.729 -12.122  0.00  0.00    -0.050 Br
ENDBRANCH  10  11
BRANCH   8  18
ATOM     18  N   UNL     1       4.455 -11.143  -9.947  0.00  0.00    -0.328 N 
ATOM     19  H   UNL     1       4.050 -11.695  -9.260  0.00  0.00    +0.145 HD
ATOM     20  H   UNL     1       4.609 -11.507 -10.833  0.00  0.00    +0.145 HD
ENDBRANCH   8  18
BRANCH   9  21
ATOM     21  C   UNL     1       5.583  -9.667 -11.937  0.00  0.00    +0.101 C 
ATOM     22  N   UNL     1       5.751 -10.121 -12.964  0.00  0.00    -0.191 NA
ENDBRANCH   9  21
BRANCH   1  23
ATOM     23  O   UNL     1       3.294  -5.671  -5.743  0.00  0.00    -0.423 OA
BRANCH  23  24
ATOM     24  C   UNL     1       2.066  -5.142  -5.864  0.00  0.00    +0.350 C 
ATOM     25  O   UNL     1       1.562  -5.028  -6.957  0.00  0.00    -0.247 OA
BRANCH  24  26
ATOM     26  C   UNL     1       1.315  -4.691  -4.638  0.00  0.00    +0.349 C 
BRANCH  26  27
ATOM     27  O   UNL     1       0.043  -4.168  -5.023  0.00  0.00    -0.481 OA
BRANCH  27  31
ATOM     28  C   UNL     1      -2.411  -2.792  -2.002  0.00  0.00    +0.120 A 
ATOM     29  C   UNL     1      -2.836  -2.734  -3.321  0.00  0.00    +0.049 A 
ATOM     30  C   UNL     1      -2.015  -3.194  -4.332  0.00  0.00    +0.049 A 
ATOM     31  C   UNL     1      -0.765  -3.714  -4.028  0.00  0.00    +0.122 A 
ATOM     32  C   UNL     1      -0.341  -3.772  -2.709  0.00  0.00    +0.049 A 
ATOM     33  C   UNL     1      -1.160  -3.308  -1.698  0.00  0.00    +0.049 A 
BRANCH  28  35
ATOM     34  C   UNL     1      -4.495  -1.821  -1.392  0.00  0.00    +0.277 C 
ATOM     35  O   UNL     1      -3.220  -2.339  -1.007  0.00  0.00    -0.495 OA
ENDBRANCH  28  35
ENDBRANCH  27  31
ENDBRANCH  26  27
ENDBRANCH  24  26
ENDBRANCH  23  24
ENDBRANCH   1  23
TORSDOF 9
