REMARK  Name = ZINC45820084
REMARK  9 active torsions:
REMARK  status: ('A' for Active; 'I' for Inactive)
REMARK    1  A    between atoms: C_1  and  C_2
REMARK    2  A    between atoms: C_5  and  C_8
REMARK    3  A    between atoms: N_14  and  C_15
REMARK    4  A    between atoms: C_15  and  C_16
REMARK    5  A    between atoms: C_16  and  C_17
REMARK    6  A    between atoms: N_19  and  C_20
REMARK    7  A    between atoms: C_20  and  C_21
REMARK    8  A    between atoms: C_21  and  C_23
REMARK    9  A    between atoms: C_21  and  N_28
REMARK                            x       y       z     vdW  Elec       q    Type
REMARK                         _______ _______ _______ _____ _____    ______ ____
ROOT
ATOM      1  C   UNL     1      -1.129  -4.453   4.563  0.00  0.00    +0.215 C 
ATOM      2  O   UNL     1      -0.033  -4.025   4.858  0.00  0.00    -0.276 OA
ATOM      3  N   UNL     1      -2.186  -4.206   5.363  0.00  0.00    -0.316 N 
ATOM      4  H   UNL     1      -3.062  -4.549   5.127  0.00  0.00    +0.149 HD
ENDROOT
BRANCH   1   5
ATOM      5  C   UNL     1      -1.309  -5.260   3.303  0.00  0.00    +0.117 C 
BRANCH   5   6
ATOM      6  C   UNL     1       0.036  -5.391   2.585  0.00  0.00    +0.135 C 
BRANCH   6  13
ATOM      7  C   UNL     1      -0.428  -5.424   0.094  0.00  0.00    +0.163 A 
ATOM      8  N   UNL     1      -0.537  -6.332  -0.835  0.00  0.00    -0.153 NA
ATOM      9  N   UNL     1      -0.346  -7.587  -0.240  0.00  0.00    -0.254 N 
ATOM     10  H   UNL     1      -0.371  -8.445  -0.692  0.00  0.00    +0.191 HD
ATOM     11  C   UNL     1      -0.121  -7.383   1.074  0.00  0.00    +0.176 A 
ATOM     12  S   UNL     1       0.172  -8.594   2.248  0.00  0.00    -0.011 S 
ATOM     13  N   UNL     1      -0.163  -6.054   1.294  0.00  0.00    -0.303 N 
BRANCH   7  18
ATOM     14  C   UNL     1      -0.942   0.256  -0.680  0.00  0.00    +0.044 C 
ATOM     15  C   UNL     1      -0.807  -1.231  -0.478  0.00  0.00    -0.050 A 
ATOM     16  C   UNL     1      -0.598  -2.059  -1.567  0.00  0.00    +0.004 A 
ATOM     17  C   UNL     1      -0.474  -3.421  -1.387  0.00  0.00    +0.012 A 
ATOM     18  C   UNL     1      -0.560  -3.964  -0.105  0.00  0.00    +0.019 A 
ATOM     19  C   UNL     1      -0.771  -3.124   0.989  0.00  0.00    +0.012 A 
ATOM     20  C   UNL     1      -0.887  -1.763   0.797  0.00  0.00    +0.004 A 
ENDBRANCH   7  18
ENDBRANCH   6  13
ENDBRANCH   5   6
ENDBRANCH   1   5
BRANCH   3  21
ATOM     21  C   UNL     1      -2.010  -3.422   6.587  0.00  0.00    +0.096 C 
BRANCH  21  22
ATOM     22  C   UNL     1      -3.374  -3.180   7.237  0.00  0.00    +0.016 C 
BRANCH  22  23
ATOM     23  N   UNL     1      -4.258  -2.499   6.282  0.00  0.00    +0.387 N 
ATOM     24  C   UNL     1      -3.656  -1.219   5.888  0.00  0.00    -0.078 C 
ATOM     25  C   UNL     1      -4.534  -0.543   4.832  0.00  0.00    -0.019 C 
ATOM     26  C   UNL     1      -5.927  -0.295   5.417  0.00  0.00    -0.004 C 
ATOM     27  C   UNL     1      -6.515  -1.626   5.893  0.00  0.00    -0.019 C 
ATOM     28  C   UNL     1      -5.564  -2.263   6.909  0.00  0.00    -0.078 C 
ATOM     29  H   UNL     1      -4.379  -3.078   5.465  0.00  0.00    -0.081 HD
ENDBRANCH  22  23
BRANCH  22  30
ATOM     30  C   UNL     1      -3.984  -4.501   7.632  0.00  0.00    +0.093 A 
ATOM     31  C   UNL     1      -3.987  -5.027   8.870  0.00  0.00    +0.043 A 
ATOM     32  C   UNL     1      -4.660  -6.268   8.786  0.00  0.00    +0.041 A 
ATOM     33  C   UNL     1      -5.028  -6.425   7.501  0.00  0.00    +0.195 A 
ATOM     34  O   UNL     1      -4.621  -5.349   6.808  0.00  0.00    -0.469 OA
ENDBRANCH  22  30
ENDBRANCH  21  22
ENDBRANCH   3  21
TORSDOF 8
