REMARK  Name = ZINC20990046
REMARK  5 active torsions:
REMARK  status: ('A' for Active; 'I' for Inactive)
REMARK    1  A    between atoms: C_1  and  C_2
REMARK    2  A    between atoms: C_7  and  S_8
REMARK    3  A    between atoms: S_8  and  N_11
REMARK    4  A    between atoms: C_30  and  C_32
REMARK    5  A    between atoms: C_30  and  C_33
REMARK                            x       y       z     vdW  Elec       q    Type
REMARK                         _______ _______ _______ _____ _____    ______ ____
ROOT
ATOM      1  C   UNL     1       3.554   7.271  -1.495  0.00  0.00    +0.046 C 
ATOM      2  C   UNL     1       3.080   7.517  -2.904  0.00  0.00    -0.023 A 
ATOM      3  C   UNL     1       3.764   6.964  -3.964  0.00  0.00    +0.016 A 
ATOM      4  C   UNL     1       3.326   7.192  -5.266  0.00  0.00    +0.011 A 
ATOM      5  C   UNL     1       2.187   7.985  -5.494  0.00  0.00    +0.049 A 
ATOM      6  C   UNL     1       1.508   8.530  -4.410  0.00  0.00    +0.055 A 
ATOM      7  C   UNL     1       1.957   8.300  -3.128  0.00  0.00    +0.110 A 
ATOM      8  N   UNL     1       1.980   8.046  -6.860  0.00  0.00    -0.357 N 
ATOM      9  H   UNL     1       1.131   8.619  -7.263  0.00  0.00    +0.166 HD
ATOM     10  C   UNL     1       2.916   7.345  -7.513  0.00  0.00    +0.028 A 
ATOM     11  C   UNL     1       3.787   6.779  -6.593  0.00  0.00    +0.046 A 
ATOM     12  C   UNL     1       4.885   5.971  -6.978  0.00  0.00    +0.166 C 
ATOM     13  O   UNL     1       5.652   5.519  -6.152  0.00  0.00    -0.292 OA
ATOM     14  C   UNL     1       5.067   5.692  -8.454  0.00  0.00    +0.086 C 
ATOM     15  C   UNL     1       4.573   6.882  -9.276  0.00  0.00    -0.023 C 
ATOM     16  C   UNL     1       3.088   7.147  -9.001  0.00  0.00    +0.060 C 
ATOM     17  C   UNL     1       5.385   8.125  -8.904  0.00  0.00    +0.011 C 
ATOM     18  C   UNL     1       4.764   6.582 -10.764  0.00  0.00    +0.011 C 
ENDROOT
BRANCH   7  19
ATOM     19  S   UNL     1       1.093   8.999  -1.761  0.00  0.00    +0.061 S 
ATOM     20  O   UNL     1       0.015   9.749  -2.303  0.00  0.00    -0.153 OA
ATOM     21  O   UNL     1       2.075   9.580  -0.914  0.00  0.00    -0.153 OA
BRANCH  19  22
ATOM     22  N   UNL     1       0.419   7.746  -0.914  0.00  0.00    -0.174 NA
ATOM     23  C   UNL     1       1.092   7.186   0.268  0.00  0.00    +0.128 C 
ATOM     24  C   UNL     1       1.179   5.665   0.103  0.00  0.00    +0.123 C 
ATOM     25  N   UNL     1      -0.163   5.127  -0.161  0.00  0.00    -0.314 N 
ATOM     26  C   UNL     1      -0.704   5.644  -1.425  0.00  0.00    +0.123 C 
ATOM     27  C   UNL     1      -0.868   7.164  -1.323  0.00  0.00    +0.128 C 
ATOM     28  C   UNL     1      -0.152   3.737  -0.155  0.00  0.00    +0.099 A 
ATOM     29  C   UNL     1      -1.333   3.038  -0.387  0.00  0.00    +0.042 A 
ATOM     30  C   UNL     1      -1.307   1.655  -0.383  0.00  0.00    +0.005 A 
ATOM     31  C   UNL     1      -0.099   1.015  -0.136  0.00  0.00    +0.018 A 
ATOM     32  C   UNL     1       1.034   1.772   0.086  0.00  0.00    +0.084 A 
ATOM     33  N   UNL     1       0.981   3.090   0.071  0.00  0.00    -0.350 N 
ATOM     34  H   UNL     1       1.908   3.653   0.253  0.00  0.00    +0.166 HD
ENDBRANCH  19  22
ENDBRANCH   7  19
TORSDOF 2
