REMARK  Name = ZINC20081024
REMARK  6 active torsions:
REMARK  status: ('A' for Active; 'I' for Inactive)
REMARK    1  A    between atoms: C_4  and  C_7
REMARK    2  A    between atoms: C_7  and  N_8
REMARK    3  A    between atoms: C_9  and  C_13
REMARK    4  A    between atoms: C_13  and  C_15
REMARK    5  A    between atoms: C_13  and  N_30
REMARK    6  A    between atoms: N_33  and  C_36
REMARK                            x       y       z     vdW  Elec       q    Type
REMARK                         _______ _______ _______ _____ _____    ______ ____
ROOT
ATOM      1  C   UNL     1       1.665   6.426  -1.703  0.00  0.00    +0.162 C 
ENDROOT
BRANCH   1   2
ATOM      2  C   UNL     1       2.537   7.627  -1.441  0.00  0.00    +0.042 A 
ATOM      3  C   UNL     1       2.625   8.138  -0.186  0.00  0.00    +0.021 A 
ATOM      4  C   UNL     1       3.484   9.300   0.036  0.00  0.00    +0.003 A 
ATOM      5  C   UNL     1       3.618   9.865   1.311  0.00  0.00    +0.059 A 
ATOM      6  C   UNL     1       4.428  10.964   1.489  0.00  0.00    +0.167 A 
ATOM      7  C   UNL     1       5.117  11.517   0.402  0.00  0.00    +0.168 A 
ATOM      8  C   UNL     1       4.991  10.964  -0.860  0.00  0.00    +0.075 A 
ATOM      9  C   UNL     1       4.178   9.855  -1.056  0.00  0.00    +0.053 A 
ATOM     10  N   UNL     1       4.041   9.291  -2.308  0.00  0.00    -0.322 N 
ATOM     11  H   UNL     1       4.581   9.718  -3.166  0.00  0.00    +0.169 HD
ATOM     12  C   UNL     1       3.254   8.218  -2.501  0.00  0.00    +0.254 A 
ATOM     13  O   UNL     1       3.157   7.746  -3.620  0.00  0.00    -0.268 OA
ATOM     14  O   UNL     1       5.840  12.585   0.846  0.00  0.00    -0.453 OA
ATOM     15  C   UNL     1       5.270  12.934   2.121  0.00  0.00    +0.466 C 
ATOM     16  O   UNL     1       4.725  11.693   2.606  0.00  0.00    -0.453 OA
ENDBRANCH   1   2
BRANCH   1  17
ATOM     17  N   UNL     1       0.705   6.741  -2.768  0.00  0.00    -0.286 NA
ATOM     18  C   UNL     1      -0.092   7.927  -2.425  0.00  0.00    +0.104 C 
ATOM     19  C   UNL     1      -1.022   8.269  -3.591  0.00  0.00    +0.120 C 
ATOM     20  N   UNL     1      -1.891   7.118  -3.874  0.00  0.00    -0.327 N 
ATOM     21  C   UNL     1      -1.095   5.932  -4.218  0.00  0.00    +0.120 C 
ATOM     22  C   UNL     1      -0.164   5.590  -3.051  0.00  0.00    +0.104 C 
BRANCH  20  23
ATOM     23  C   UNL     1      -2.805   7.418  -4.887  0.00  0.00    +0.030 A 
ATOM     24  C   UNL     1      -2.860   6.631  -6.031  0.00  0.00    +0.023 A 
ATOM     25  C   UNL     1      -3.768   6.927  -7.028  0.00  0.00    +0.002 A 
ATOM     26  C   UNL     1      -4.614   8.013  -6.895  0.00  0.00    +0.000 A 
ATOM     27  C   UNL     1      -4.558   8.802  -5.761  0.00  0.00    +0.002 A 
ATOM     28  C   UNL     1      -3.657   8.508  -4.757  0.00  0.00    +0.023 A 
ENDBRANCH  20  23
ENDBRANCH   1  17
BRANCH   1  30
ATOM     29  N   UNL     1       2.858   4.194  -1.384  0.00  0.00    -0.223 N 
ATOM     30  C   UNL     1       2.525   5.264  -2.130  0.00  0.00    +0.173 A 
ATOM     31  N   UNL     1       3.095   5.100  -3.299  0.00  0.00    -0.111 NA
ATOM     32  N   UNL     1       3.742   3.986  -3.273  0.00  0.00    -0.023 NA
ATOM     33  N   UNL     1       3.606   3.439  -2.116  0.00  0.00    -0.044 NA
BRANCH  29  34
ATOM     34  C   UNL     1       2.451   3.937  -0.001  0.00  0.00    +0.182 C 
BRANCH  34  38
ATOM     35  C   UNL     1      -1.219   1.751   0.017  0.00  0.00    +0.000 A 
ATOM     36  C   UNL     1      -0.013   1.076   0.008  0.00  0.00    +0.000 A 
ATOM     37  C   UNL     1       1.175   1.783   0.000  0.00  0.00    +0.005 A 
ATOM     38  C   UNL     1       1.156   3.165   0.008  0.00  0.00    -0.026 A 
ATOM     39  C   UNL     1      -0.050   3.840   0.023  0.00  0.00    +0.005 A 
ATOM     40  C   UNL     1      -1.238   3.133   0.030  0.00  0.00    +0.000 A 
ENDBRANCH  34  38
ENDBRANCH  29  34
ENDBRANCH   1  30
TORSDOF 6
