REMARK  Name = ZINC20086073
REMARK  7 active torsions:
REMARK  status: ('A' for Active; 'I' for Inactive)
REMARK    1  A    between atoms: C_1  and  N_2
REMARK    2  A    between atoms: C_13  and  C_21
REMARK    3  A    between atoms: C_15  and  C_19
REMARK    4  A    between atoms: C_16  and  N_18
REMARK    5  A    between atoms: C_25  and  O_27
REMARK    6  A    between atoms: O_27  and  C_28
REMARK    7  A    between atoms: C_28  and  C_29
REMARK                            x       y       z     vdW  Elec       q    Type
REMARK                         _______ _______ _______ _____ _____    ______ ____
ROOT
ATOM      1  C   UNL     1       4.683   9.943  -5.182  0.00  0.00    +0.152 C 
ATOM      2  N   UNL     1       3.415  10.636  -4.942  0.00  0.00    -0.311 N 
ATOM      3  C   UNL     1       3.391  12.015  -4.907  0.00  0.00    +0.055 A 
ATOM      4  C   UNL     1       4.553  12.757  -5.095  0.00  0.00    +0.026 A 
ATOM      5  C   UNL     1       4.498  14.133  -5.056  0.00  0.00    +0.002 A 
ATOM      6  C   UNL     1       3.296  14.788  -4.831  0.00  0.00    +0.001 A 
ATOM      7  C   UNL     1       2.143  14.079  -4.644  0.00  0.00    +0.013 A 
ATOM      8  C   UNL     1       2.175  12.682  -4.679  0.00  0.00    +0.041 A 
ATOM      9  C   UNL     1       0.955  11.887  -4.480  0.00  0.00    +0.148 A 
ATOM     10  C   UNL     1       1.049  10.529  -4.525  0.00  0.00    +0.072 A 
ATOM     11  C   UNL     1       2.294   9.918  -4.759  0.00  0.00    +0.259 A 
ATOM     12  O   UNL     1       2.359   8.701  -4.797  0.00  0.00    -0.267 OA
ATOM     13  C   UNL     1      -0.172   9.670  -4.326  0.00  0.00    +0.103 C 
ATOM     14  C   UNL     1      -1.417  10.494  -4.500  0.00  0.00    +0.098 C 
ATOM     15  C   UNL     1      -1.376  11.844  -4.459  0.00  0.00    +0.199 C 
ATOM     16  O   UNL     1      -0.222  12.505  -4.260  0.00  0.00    -0.440 OA
ENDROOT
BRANCH  13  17
ATOM     17  C   UNL     1      -0.150   9.086  -2.937  0.00  0.00    -0.031 A 
ATOM     18  C   UNL     1      -0.151   9.922  -1.836  0.00  0.00    +0.005 A 
ATOM     19  C   UNL     1      -0.131   9.389  -0.560  0.00  0.00    +0.004 A 
ATOM     20  C   UNL     1      -0.111   8.018  -0.383  0.00  0.00    +0.045 A 
ATOM     21  C   UNL     1      -0.110   7.178  -1.487  0.00  0.00    +0.121 A 
ATOM     22  C   UNL     1      -0.124   7.715  -2.766  0.00  0.00    +0.050 A 
BRANCH  21  23
ATOM     23  O   UNL     1      -0.090   5.830  -1.315  0.00  0.00    -0.487 OA
BRANCH  23  24
ATOM     24  C   UNL     1      -0.070   5.347   0.030  0.00  0.00    +0.264 C 
BRANCH  24  25
ATOM     25  C   UNL     1      -0.050   3.840   0.022  0.00  0.00    -0.010 A 
ATOM     26  C   UNL     1       1.156   3.165   0.008  0.00  0.00    +0.007 A 
ATOM     27  C   UNL     1       1.175   1.783   0.000  0.00  0.00    +0.000 A 
ATOM     28  C   UNL     1      -0.013   1.076   0.008  0.00  0.00    +0.000 A 
ATOM     29  C   UNL     1      -1.219   1.751   0.017  0.00  0.00    +0.000 A 
ATOM     30  C   UNL     1      -1.238   3.133   0.030  0.00  0.00    +0.007 A 
ENDBRANCH  24  25
ENDBRANCH  23  24
ENDBRANCH  21  23
ENDBRANCH  13  17
BRANCH  15  31
ATOM     31  N   UNL     1      -2.537  12.557  -4.623  0.00  0.00    -0.328 N 
ATOM     32  H   UNL     1      -2.517  13.657  -4.592  0.00  0.00    +0.145 HD
ATOM     33  H   UNL     1      -3.489  12.029  -4.786  0.00  0.00    +0.145 HD
ENDBRANCH  15  31
BRANCH  14  34
ATOM     34  C   UNL     1      -2.672   9.838  -4.715  0.00  0.00    +0.101 C 
ATOM     35  N   UNL     1      -3.667   9.318  -4.885  0.00  0.00    -0.191 NA
ENDBRANCH  14  34
TORSDOF 6
