REMARK  Name = ZINC20607631
REMARK  6 active torsions:
REMARK  status: ('A' for Active; 'I' for Inactive)
REMARK    1  A    between atoms: C_1  and  C_2
REMARK    2  A    between atoms: C_2  and  N_3
REMARK    3  A    between atoms: C_10  and  C_19
REMARK    4  A    between atoms: C_12  and  C_16
REMARK    5  A    between atoms: N_22  and  C_25
REMARK    6  A    between atoms: C_23  and  C_24
REMARK                            x       y       z     vdW  Elec       q    Type
REMARK                         _______ _______ _______ _____ _____    ______ ____
ROOT
ATOM      1  N   UNL     1      -1.921   6.936   0.059  0.00  0.00    -0.324 N 
ATOM      2  C   UNL     1      -1.547   5.610   0.048  0.00  0.00    +0.159 A 
ATOM      3  N   UNL     1      -0.333   5.101   0.033  0.00  0.00    -0.224 NA
ATOM      4  C   UNL     1      -0.108   3.785   0.023  0.00  0.00    +0.101 A 
ATOM      5  C   UNL     1       1.156   3.040   0.007  0.00  0.00    +0.065 A 
ATOM      6  C   UNL     1       1.203   1.664  -0.001  0.00  0.00    +0.068 A 
ATOM      7  C   UNL     1       2.546   1.064  -0.016  0.00  0.00    +0.040 A 
ATOM      8  C   UNL     1       2.879  -0.323  -0.026  0.00  0.00    -0.001 A 
ATOM      9  C   UNL     1       4.219  -0.686  -0.041  0.00  0.00    +0.038 A 
ATOM     10  C   UNL     1       5.203   0.285  -0.045  0.00  0.00    +0.108 A 
ATOM     11  N   UNL     1       4.883   1.566  -0.035  0.00  0.00    -0.239 NA
ATOM     12  C   UNL     1       3.628   1.963  -0.021  0.00  0.00    +0.112 A 
ATOM     13  S   UNL     1       2.851   3.561  -0.006  0.00  0.00    -0.065 S 
ATOM     14  N   UNL     1      -0.011   0.966   0.007  0.00  0.00    -0.320 N 
ATOM     15  H   UNL     1      -0.013  -0.134   0.006  0.00  0.00    +0.169 HD
ATOM     16  C   UNL     1      -1.193   1.603   0.017  0.00  0.00    +0.265 A 
ATOM     17  O   UNL     1      -2.223   0.948   0.018  0.00  0.00    -0.267 OA
ATOM     18  C   UNL     1      -1.270   2.985   0.030  0.00  0.00    +0.106 A 
ATOM     19  S   UNL     1      -2.562   4.200   0.050  0.00  0.00    -0.047 S 
ATOM     20  H   UNL     1      -1.154   7.724   0.056  0.00  0.00    +0.148 HD
ENDROOT
BRANCH   8  21
ATOM     21  C   UNL     1       1.816  -1.355  -0.021  0.00  0.00    +0.023 A 
ATOM     22  C   UNL     1       1.566  -2.290   1.004  0.00  0.00    +0.143 A 
ATOM     23  N   UNL     1       0.549  -3.025   0.643  0.00  0.00    -0.179 NA
ATOM     24  N   UNL     1       0.117  -2.601  -0.620  0.00  0.00    -0.271 N 
ATOM     25  C   UNL     1       0.902  -1.579  -1.012  0.00  0.00    +0.044 A 
ATOM     26  C   UNL     1       0.793  -0.821  -2.310  0.00  0.00    +0.066 C 
ATOM     27  C   UNL     1      -0.996  -3.171  -1.383  0.00  0.00    +0.172 C 
ENDBRANCH   8  21
BRANCH  10  28
ATOM     28  C   UNL     1       6.654  -0.121  -0.060  0.00  0.00    +0.390 C 
ATOM     29  F   UNL     1       6.935  -0.888   1.076  0.00  0.00    -0.202 F 
ATOM     30  F   UNL     1       6.915  -0.876  -1.208  0.00  0.00    -0.202 F 
ENDBRANCH  10  28
BRANCH   1  32
ATOM     31  C   UNL     1      -3.480   8.821   0.085  0.00  0.00    +0.024 C 
ATOM     32  C   UNL     1      -3.341   7.297   0.074  0.00  0.00    +0.100 C 
ENDBRANCH   1  32
TORSDOF 3
