REMARK  Name = ZINC64491440
REMARK  6 active torsions:
REMARK  status: ('A' for Active; 'I' for Inactive)
REMARK    1  A    between atoms: C_1  and  N_2
REMARK    2  A    between atoms: C_10  and  N_14
REMARK    3  A    between atoms: C_17  and  C_20
REMARK    4  A    between atoms: N_22  and  C_23
REMARK    5  A    between atoms: C_23  and  C_24
REMARK    6  A    between atoms: C_24  and  C_25
REMARK                            x       y       z     vdW  Elec       q    Type
REMARK                         _______ _______ _______ _____ _____    ______ ____
ROOT
ATOM      1  N   UNL     1       1.303  -2.609   1.435  0.00  0.00    +0.398 N 
ATOM      2  C   UNL     1       0.071  -2.226   2.134  0.00  0.00    -0.075 C 
ATOM      3  C   UNL     1       0.173  -2.620   3.609  0.00  0.00    -0.006 C 
ATOM      4  C   UNL     1       0.372  -4.134   3.715  0.00  0.00    +0.071 C 
ATOM      5  C   UNL     1       1.619  -4.532   2.920  0.00  0.00    -0.006 C 
ATOM      6  C   UNL     1       1.463  -4.068   1.470  0.00  0.00    -0.075 C 
ATOM      7  H   UNL     1       2.093  -2.174   1.887  0.00  0.00    -0.078 HD
ENDROOT
BRANCH   1  17
ATOM      8  C   UNL     1      -0.018   1.461   0.010  0.00  0.00    +0.138 C 
ATOM      9  N   UNL     1       0.002  -0.004   0.002  0.00  0.00    -0.273 N 
ATOM     10  C   UNL     1      -1.205  -0.713   0.004  0.00  0.00    +0.057 A 
ATOM     11  C   UNL     1      -2.399  -0.079   0.306  0.00  0.00    +0.025 A 
ATOM     12  C   UNL     1      -3.581  -0.796   0.297  0.00  0.00    +0.002 A 
ATOM     13  C   UNL     1      -3.579  -2.144  -0.011  0.00  0.00    +0.002 A 
ATOM     14  C   UNL     1      -2.390  -2.787  -0.311  0.00  0.00    +0.025 A 
ATOM     15  C   UNL     1      -1.204  -2.075  -0.302  0.00  0.00    +0.048 A 
ATOM     16  N   UNL     1       0.017  -2.700  -0.591  0.00  0.00    -0.348 N 
ATOM     17  C   UNL     1       1.232  -2.160   0.038  0.00  0.00    +0.105 C 
ATOM     18  C   UNL     1       1.181  -0.654  -0.013  0.00  0.00    +0.223 C 
ATOM     19  O   UNL     1       2.214  -0.021  -0.063  0.00  0.00    -0.275 OA
ATOM     20  H   UNL     1       0.059  -3.464  -1.187  0.00  0.00    +0.145 HD
ENDBRANCH   1  17
BRANCH   4  21
ATOM     21  C   UNL     1       0.552  -4.519   5.161  0.00  0.00    +0.216 C 
ATOM     22  O   UNL     1       0.524  -3.667   6.023  0.00  0.00    -0.276 OA
ATOM     23  N   UNL     1       0.744  -5.811   5.495  0.00  0.00    -0.315 N 
ATOM     24  H   UNL     1       0.766  -6.492   4.806  0.00  0.00    +0.149 HD
BRANCH  23  25
ATOM     25  C   UNL     1       0.919  -6.184   6.901  0.00  0.00    +0.108 C 
BRANCH  25  26
ATOM     26  C   UNL     1       1.117  -7.698   7.005  0.00  0.00    +0.052 C 
BRANCH  26  27
ATOM     27  C   UNL     1       1.297  -8.083   8.451  0.00  0.00    -0.040 C 
ATOM     28  C   UNL     1       0.341  -8.519   9.302  0.00  0.00    +0.000 A 
ATOM     29  C   UNL     1      -1.099  -8.755   9.142  0.00  0.00    +0.030 A 
ATOM     30  C   UNL     1      -1.812  -9.203  10.201  0.00  0.00    +0.042 A 
ATOM     31  C   UNL     1      -1.211  -9.446  11.445  0.00  0.00    +0.022 A 
ATOM     32  C   UNL     1       0.105  -9.252  11.668  0.00  0.00    +0.027 A 
ATOM     33  C   UNL     1       0.951  -8.783  10.624  0.00  0.00    +0.043 A 
ATOM     34  N   UNL     1       2.235  -8.521  10.593  0.00  0.00    -0.380 N 
ATOM     35  C   UNL     1       2.586  -8.066   9.243  0.00  0.00    +0.144 C 
ATOM     36 CL   UNL     1      -3.515  -9.484  10.015  0.00  0.00    -0.084 Cl
ATOM     37  H   UNL     1       2.850  -8.615  11.336  0.00  0.00    +0.160 HD
ENDBRANCH  26  27
ENDBRANCH  25  26
ENDBRANCH  23  25
ENDBRANCH   4  21
TORSDOF 5
