REMARK  Name = ZINC22473300
REMARK  11 active torsions:
REMARK  status: ('A' for Active; 'I' for Inactive)
REMARK    1  A    between atoms: C_4  and  C_7
REMARK    2  A    between atoms: C_7  and  N_8
REMARK    3  A    between atoms: N_8  and  C_9
REMARK    4  A    between atoms: C_9  and  C_10
REMARK    5  A    between atoms: C_10  and  C_11
REMARK    6  A    between atoms: C_11  and  N_12
REMARK    7  A    between atoms: C_15  and  O_16
REMARK    8  A    between atoms: C_24  and  C_26
REMARK    9  A    between atoms: C_30  and  O_32
REMARK   10  A    between atoms: O_32  and  C_33
REMARK   11  A    between atoms: C_33  and  C_34
REMARK                            x       y       z     vdW  Elec       q    Type
REMARK                         _______ _______ _______ _____ _____    ______ ____
ROOT
ATOM      1  N   UNL     1      -2.588  -0.548   0.076  0.00  0.00    -0.293 N 
ATOM      2  C   UNL     1      -2.768   0.713   0.514  0.00  0.00    +0.247 C 
ATOM      3  O   UNL     1      -1.810   1.447   0.664  0.00  0.00    -0.270 OA
ENDROOT
BRANCH   2   4
ATOM      4  C   UNL     1      -4.129   1.205   0.814  0.00  0.00    +0.040 A 
ATOM      5  C   UNL     1      -5.229   0.684   0.129  0.00  0.00    +0.013 A 
ATOM      6  C   UNL     1      -6.499   1.141   0.415  0.00  0.00    +0.004 A 
ATOM      7  C   UNL     1      -6.686   2.119   1.375  0.00  0.00    +0.046 A 
ATOM      8  C   UNL     1      -5.599   2.647   2.057  0.00  0.00    +0.122 A 
ATOM      9  C   UNL     1      -4.320   2.195   1.778  0.00  0.00    +0.058 A 
BRANCH   8  10
ATOM     10  O   UNL     1      -5.789   3.608   2.999  0.00  0.00    -0.487 OA
BRANCH  10  11
ATOM     11  C   UNL     1      -7.135   4.027   3.236  0.00  0.00    +0.264 C 
BRANCH  11  12
ATOM     12  C   UNL     1      -7.150   5.089   4.305  0.00  0.00    -0.010 A 
ATOM     13  C   UNL     1      -7.278   4.731   5.634  0.00  0.00    +0.007 A 
ATOM     14  C   UNL     1      -7.286   5.705   6.614  0.00  0.00    +0.000 A 
ATOM     15  C   UNL     1      -7.177   7.038   6.265  0.00  0.00    +0.000 A 
ATOM     16  C   UNL     1      -7.055   7.397   4.936  0.00  0.00    +0.000 A 
ATOM     17  C   UNL     1      -7.041   6.422   3.955  0.00  0.00    +0.007 A 
ENDBRANCH  11  12
ENDBRANCH  10  11
ENDBRANCH   8  10
ENDBRANCH   2   4
BRANCH   1  18
ATOM     18  C   UNL     1      -1.233  -1.081  -0.088  0.00  0.00    +0.143 C 
BRANCH  18  22
ATOM     19  C   UNL     1       0.177  -2.564   3.662  0.00  0.00    +0.000 A 
ATOM     20  C   UNL     1      -0.589  -3.372   2.843  0.00  0.00    +0.000 A 
ATOM     21  C   UNL     1      -1.046  -2.892   1.629  0.00  0.00    +0.005 A 
ATOM     22  C   UNL     1      -0.736  -1.604   1.235  0.00  0.00    -0.030 A 
ATOM     23  C   UNL     1       0.035  -0.798   2.051  0.00  0.00    +0.005 A 
ATOM     24  C   UNL     1       0.487  -1.276   3.267  0.00  0.00    +0.000 A 
ENDBRANCH  18  22
ENDBRANCH   1  18
BRANCH   1  25
ATOM     25  C   UNL     1      -3.748  -1.387  -0.238  0.00  0.00    +0.110 C 
BRANCH  25  26
ATOM     26  C   UNL     1      -4.003  -1.361  -1.746  0.00  0.00    +0.040 C 
BRANCH  26  27
ATOM     27  C   UNL     1      -5.215  -2.236  -2.073  0.00  0.00    +0.114 C 
BRANCH  27  28
ATOM     28  N   UNL     1      -5.460  -2.211  -3.517  0.00  0.00    -0.384 N 
ATOM     29  C   UNL     1      -6.506  -2.931  -4.051  0.00  0.00    +0.053 A 
ATOM     30  C   UNL     1      -7.331  -3.678  -3.250  0.00  0.00    +0.113 A 
ATOM     31  C   UNL     1      -8.386  -4.399  -3.822  0.00  0.00    +0.286 A 
ATOM     32  O   UNL     1      -8.621  -4.385  -5.144  0.00  0.00    -0.425 OA
ATOM     33  C   UNL     1      -7.851  -3.672  -5.995  0.00  0.00    +0.141 A 
ATOM     34  C   UNL     1      -6.776  -2.917  -5.498  0.00  0.00    +0.041 A 
ATOM     35  C   UNL     1      -5.981  -2.174  -6.372  0.00  0.00    +0.013 A 
ATOM     36  C   UNL     1      -6.262  -2.182  -7.721  0.00  0.00    +0.001 A 
ATOM     37  C   UNL     1      -7.327  -2.923  -8.210  0.00  0.00    +0.004 A 
ATOM     38  C   UNL     1      -8.113  -3.672  -7.358  0.00  0.00    +0.047 A 
ATOM     39  H   UNL     1      -4.808  -1.618  -4.175  0.00  0.00    +0.160 HD
BRANCH  31  40
ATOM     40  O   UNL     1      -9.112  -5.060  -3.099  0.00  0.00    -0.480 OA
ATOM     41  H   UNL     1      -9.946  -5.632  -3.532  0.00  0.00    +0.295 HD
ENDBRANCH  31  40
ENDBRANCH  27  28
ENDBRANCH  26  27
ENDBRANCH  25  26
ENDBRANCH   1  25
TORSDOF 11
