REMARK  Name = ZINC20559666
REMARK  6 active torsions:
REMARK  status: ('A' for Active; 'I' for Inactive)
REMARK    1  A    between atoms: C_1  and  C_2
REMARK    2  A    between atoms: C_5  and  N_12
REMARK    3  A    between atoms: C_8  and  C_10
REMARK    4  A    between atoms: C_8  and  C_11
REMARK    5  A    between atoms: N_12  and  C_13
REMARK    6  A    between atoms: C_16  and  N_19
REMARK                            x       y       z     vdW  Elec       q    Type
REMARK                         _______ _______ _______ _____ _____    ______ ____
ROOT
ATOM      1  N   UNL     1       3.604  -0.620   0.302  0.00  0.00    -0.341 N 
ATOM      2  H   UNL     1       3.250  -1.089   1.232  0.00  0.00    +0.146 HD
ENDROOT
BRANCH   1   6
ATOM      3  C   UNL     1       5.903  -0.580   3.933  0.00  0.00    +0.007 C 
ATOM      4  C   UNL     1       5.480  -0.882   2.494  0.00  0.00    -0.012 C 
ATOM      5  C   UNL     1       5.286   0.432   1.733  0.00  0.00    +0.025 C 
ATOM      6  C   UNL     1       4.863   0.130   0.294  0.00  0.00    +0.071 C 
ATOM      7  C   UNL     1       5.948  -0.702  -0.393  0.00  0.00    +0.028 C 
ATOM      8  C   UNL     1       6.142  -2.015   0.368  0.00  0.00    -0.033 C 
ATOM      9  C   UNL     1       6.565  -1.714   1.807  0.00  0.00    +0.009 C 
ATOM     10  C   UNL     1       7.227  -2.847  -0.319  0.00  0.00    +0.011 C 
ATOM     11  C   UNL     1       4.827  -2.798   0.376  0.00  0.00    +0.011 C 
ENDBRANCH   1   6
BRANCH   1  12
ATOM     12  C   UNL     1       2.854  -0.739  -0.871  0.00  0.00    +0.027 A 
ATOM     13  C   UNL     1       1.661  -1.450  -0.864  0.00  0.00    +0.025 A 
ATOM     14  C   UNL     1       0.920  -1.566  -2.022  0.00  0.00    +0.030 A 
ATOM     15  C   UNL     1       1.367  -0.973  -3.195  0.00  0.00    +0.069 A 
ATOM     16  C   UNL     1       2.560  -0.262  -3.203  0.00  0.00    +0.030 A 
ATOM     17  C   UNL     1       3.301  -0.145  -2.045  0.00  0.00    +0.025 A 
BRANCH  15  18
ATOM     18  N   UNL     1       0.617  -1.097  -4.375  0.00  0.00    -0.200 N 
ATOM     19  C   UNL     1       0.906  -0.581  -5.588  0.00  0.00    +0.250 A 
ATOM     20  N   UNL     1      -0.054  -0.938  -6.401  0.00  0.00    -0.116 NA
ATOM     21  N   UNL     1      -0.935  -1.638  -5.781  0.00  0.00    -0.023 NA
ATOM     22  N   UNL     1      -0.601  -1.780  -4.544  0.00  0.00    -0.039 NA
ENDBRANCH  15  18
ENDBRANCH   1  12
TORSDOF 3
