REMARK  Name = ZINC17222684
REMARK  5 active torsions:
REMARK  status: ('A' for Active; 'I' for Inactive)
REMARK    1  A    between atoms: C_1  and  C_2
REMARK    2  A    between atoms: C_2  and  N_4
REMARK    3  A    between atoms: N_6  and  C_34
REMARK    4  A    between atoms: C_8  and  C_9
REMARK    5  A    between atoms: N_20  and  C_21
REMARK                            x       y       z     vdW  Elec       q    Type
REMARK                         _______ _______ _______ _____ _____    ______ ____
ROOT
ATOM      1  N   UNL     1       1.174   1.502  -0.658  0.00  0.00    -0.151 NA
ATOM      2  C   UNL     1       2.147   1.121   0.159  0.00  0.00    +0.192 C 
ATOM      3  N   UNL     1       2.246  -0.107   0.726  0.00  0.00    -0.273 N 
ATOM      4  C   UNL     1       3.402  -0.122   1.516  0.00  0.00    +0.100 C 
ATOM      5  C   UNL     1       3.876  -1.158   2.255  0.00  0.00    +0.036 C 
ATOM      6  C   UNL     1       3.993   1.216   1.385  0.00  0.00    +0.271 C 
ATOM      7  O   UNL     1       5.010   1.617   1.919  0.00  0.00    -0.268 OA
ATOM      8  N   UNL     1       3.191   1.913   0.556  0.00  0.00    -0.215 N 
ATOM      9  C   UNL     1       1.313  -1.222   0.543  0.00  0.00    +0.138 C 
ENDROOT
BRANCH   8  10
ATOM     10  C   UNL     1       3.389   3.210   0.172  0.00  0.00    +0.105 C 
ATOM     11  C   UNL     1       4.667   3.675  -0.053  0.00  0.00    +0.121 C 
ATOM     12  C   UNL     1       5.867   2.792  -0.081  0.00  0.00    +0.205 C 
ATOM     13  O   UNL     1       5.818   1.624  -0.420  0.00  0.00    -0.286 OA
ATOM     14  C   UNL     1       7.128   3.454   0.337  0.00  0.00    +0.065 A 
ATOM     15  C   UNL     1       8.283   2.696   0.529  0.00  0.00    +0.015 A 
ATOM     16  C   UNL     1       9.454   3.318   0.906  0.00  0.00    +0.001 A 
ATOM     17  C   UNL     1       9.481   4.691   1.094  0.00  0.00    +0.004 A 
ATOM     18  C   UNL     1       8.344   5.448   0.911  0.00  0.00    +0.047 A 
ATOM     19  C   UNL     1       7.149   4.840   0.535  0.00  0.00    +0.143 A 
ATOM     20  O   UNL     1       6.045   5.609   0.383  0.00  0.00    -0.422 OA
ATOM     21  C   UNL     1       4.986   5.106  -0.298  0.00  0.00    +0.349 C 
ATOM     22  O   UNL     1       4.330   5.787  -1.064  0.00  0.00    -0.244 OA
ENDBRANCH   8  10
BRANCH   5  23
ATOM     23  C   UNL     1       3.330  -2.507   2.063  0.00  0.00    -0.019 A 
ATOM     24  C   UNL     1       3.134  -3.008   0.770  0.00  0.00    +0.012 A 
ATOM     25  C   UNL     1       2.622  -4.274   0.594  0.00  0.00    +0.050 A 
ATOM     26  C   UNL     1       2.297  -5.058   1.694  0.00  0.00    +0.166 A 
ATOM     27  C   UNL     1       2.489  -4.565   2.986  0.00  0.00    +0.167 A 
ATOM     28  C   UNL     1       3.007  -3.299   3.172  0.00  0.00    +0.057 A 
ATOM     29  O   UNL     1       2.096  -5.520   3.879  0.00  0.00    -0.453 OA
ATOM     30  C   UNL     1       1.282  -6.438   3.126  0.00  0.00    +0.466 C 
ATOM     31  O   UNL     1       1.786  -6.319   1.782  0.00  0.00    -0.453 OA
ENDBRANCH   5  23
BRANCH   1  33
ATOM     32  C   UNL     1      -1.154   0.743  -0.893  0.00  0.00    +0.111 C 
ATOM     33  C   UNL     1       0.325   0.601  -1.148  0.00  0.00    +0.236 C 
ATOM     34  O   UNL     1       0.741  -0.333  -1.805  0.00  0.00    -0.274 OA
ENDBRANCH   1  33
TORSDOF 3
