REMARK  Name = ZINC09046543
REMARK  7 active torsions:
REMARK  status: ('A' for Active; 'I' for Inactive)
REMARK    1  A    between atoms: C_10  and  C_11
REMARK    2  A    between atoms: C_12  and  C_13
REMARK    3  A    between atoms: C_12  and  N_23
REMARK    4  A    between atoms: N_15  and  C_16
REMARK    5  A    between atoms: C_16  and  C_17
REMARK    6  A    between atoms: C_17  and  N_59
REMARK    7  A    between atoms: C_24  and  C_26
REMARK                            x       y       z     vdW  Elec       q    Type
REMARK                         _______ _______ _______ _____ _____    ______ ____
ROOT
ATOM      1  C   UNL     1      -1.190   6.040   0.033  0.00  0.00    +0.037 C 
ATOM      2  C   UNL     1      -1.336   7.376   0.214  0.00  0.00    +0.097 C 
ENDROOT
BRANCH   1  12
ATOM      3  C   UNL     1       1.284   2.208  -2.372  0.00  0.00    +0.001 A 
ATOM      4  C   UNL     1       0.013   2.765  -2.494  0.00  0.00    +0.001 A 
ATOM      5  C   UNL     1      -0.378   3.799  -1.695  0.00  0.00    +0.009 A 
ATOM      6  C   UNL     1       0.513   4.316  -0.748  0.00  0.00    -0.011 A 
ATOM      7  C   UNL     1       1.808   3.755  -0.625  0.00  0.00    -0.017 A 
ATOM      8  C   UNL     1       2.175   2.686  -1.460  0.00  0.00    +0.008 A 
ATOM      9  C   UNL     1       2.699   4.277   0.328  0.00  0.00    +0.008 A 
ATOM     10  C   UNL     1       2.330   5.313   1.131  0.00  0.00    +0.001 A 
ATOM     11  C   UNL     1       1.074   5.894   1.047  0.00  0.00    +0.008 A 
ATOM     12  C   UNL     1       0.140   5.428   0.126  0.00  0.00    -0.015 A 
ENDBRANCH   1  12
BRANCH   2  13
ATOM     13  C   UNL     1      -0.151   8.228   0.380  0.00  0.00    +0.258 C 
ATOM     14  O   UNL     1       0.125   8.679   1.476  0.00  0.00    -0.269 OA
ATOM     15  N   UNL     1       0.630   8.511  -0.681  0.00  0.00    -0.312 N 
ATOM     16  H   UNL     1       0.374   8.207  -1.566  0.00  0.00    +0.149 HD
BRANCH  15  17
ATOM     17  C   UNL     1       1.865   9.277  -0.498  0.00  0.00    +0.086 C 
BRANCH  17  18
ATOM     18  C   UNL     1       2.496   9.561  -1.863  0.00  0.00    -0.060 C 
BRANCH  18  24
ATOM     19  C   UNL     1       3.610  11.570  -1.094  0.00  0.00    -0.050 C 
ATOM     20  C   UNL     1       4.982  12.207  -0.860  0.00  0.00    +0.141 C 
ATOM     21  O   UNL     1       5.701  12.245  -2.095  0.00  0.00    -0.383 OA
ATOM     22  C   UNL     1       5.895  10.958  -2.689  0.00  0.00    +0.141 C 
ATOM     23  C   UNL     1       4.532  10.309  -2.942  0.00  0.00    -0.050 C 
ATOM     24  N   UNL     1       3.805  10.217  -1.658  0.00  0.00    +0.384 N 
ATOM     25  H   UNL     1       4.359   9.658  -0.999  0.00  0.00    -0.082 HD
ENDBRANCH  18  24
ENDBRANCH  17  18
ENDBRANCH  15  17
ENDBRANCH   2  13
BRANCH   2  26
ATOM     26  N   UNL     1      -2.614   7.941   0.243  0.00  0.00    -0.277 N 
ATOM     27  C   UNL     1      -2.756   9.280   0.308  0.00  0.00    +0.249 C 
ATOM     28  O   UNL     1      -1.777   9.999   0.260  0.00  0.00    -0.270 OA
ATOM     29  H   UNL     1      -3.397   7.371   0.217  0.00  0.00    +0.155 HD
BRANCH  27  30
ATOM     30  C   UNL     1      -4.103   9.874   0.436  0.00  0.00    +0.051 A 
ATOM     31  C   UNL     1      -5.231   9.052   0.484  0.00  0.00    +0.014 A 
ATOM     32  C   UNL     1      -6.484   9.612   0.609  0.00  0.00    +0.001 A 
ATOM     33  C   UNL     1      -6.628  10.987   0.675  0.00  0.00    +0.001 A 
ATOM     34  C   UNL     1      -5.517  11.809   0.622  0.00  0.00    +0.016 A 
ATOM     35  C   UNL     1      -4.255  11.261   0.503  0.00  0.00    +0.030 A 
ATOM     36 BR   UNL     1      -2.736  12.386   0.430  0.00  0.00    -0.050 Br
ENDBRANCH  27  30
ENDBRANCH   2  26
TORSDOF 7
