REMARK  Name = ZINC36544742
REMARK  15 active torsions:
REMARK  status: ('A' for Active; 'I' for Inactive)
REMARK    1  A    between atoms: C_1  and  C_2
REMARK    2  A    between atoms: C_2  and  C_3
REMARK    3  A    between atoms: C_2  and  C_4
REMARK    4  A    between atoms: C_2  and  C_5
REMARK    5  A    between atoms: C_5  and  C_6
REMARK    6  A    between atoms: C_6  and  C_7
REMARK    7  A    between atoms: C_6  and  C_8
REMARK    8  A    between atoms: C_6  and  N_9
REMARK    9  A    between atoms: C_10  and  C_12
REMARK   10  A    between atoms: C_12  and  C_14
REMARK   11  A    between atoms: C_12  and  N_21
REMARK   12  A    between atoms: C_17  and  O_20
REMARK   13  A    between atoms: N_21  and  C_22
REMARK   14  A    between atoms: C_29  and  C_31
REMARK   15  A    between atoms: C_32  and  C_33
REMARK                            x       y       z     vdW  Elec       q    Type
REMARK                         _______ _______ _______ _____ _____    ______ ____
ROOT
ATOM      1  C   UNL     1       5.365  -0.486  -4.254  0.00  0.00    +0.198 C 
ENDROOT
BRANCH   1   2
ATOM      2  C   UNL     1       4.750   0.270  -5.403  0.00  0.00    -0.018 A 
ATOM      3  C   UNL     1       4.230   1.535  -5.198  0.00  0.00    +0.009 A 
ATOM      4  C   UNL     1       3.665   2.230  -6.250  0.00  0.00    +0.046 A 
ATOM      5  C   UNL     1       3.619   1.658  -7.513  0.00  0.00    +0.117 A 
ATOM      6  C   UNL     1       4.141   0.389  -7.716  0.00  0.00    +0.046 A 
ATOM      7  C   UNL     1       4.710  -0.300  -6.662  0.00  0.00    +0.009 A 
BRANCH   5   8
ATOM      8  O   UNL     1       3.064   2.340  -8.549  0.00  0.00    -0.507 OA
ATOM      9  H   UNL     1       3.690   2.891  -9.038  0.00  0.00    +0.292 HD
ENDBRANCH   5   8
ENDBRANCH   1   2
BRANCH   1  11
ATOM     10  N   UNL     1       3.298  -0.455  -2.896  0.00  0.00    -0.308 N 
ATOM     11  C   UNL     1       4.613  -0.172  -2.986  0.00  0.00    +0.239 C 
ATOM     12  O   UNL     1       5.191   0.334  -2.048  0.00  0.00    -0.273 OA
ATOM     13  H   UNL     1       2.836  -0.860  -3.646  0.00  0.00    +0.149 HD
BRANCH  10  14
ATOM     14  C   UNL     1       2.567  -0.150  -1.663  0.00  0.00    +0.030 C 
ATOM     15  C   UNL     1       2.772   1.322  -1.299  0.00  0.00    +0.031 C 
ATOM     16  C   UNL     1       3.090  -1.034  -0.528  0.00  0.00    +0.031 C 
BRANCH  14  17
ATOM     17  C   UNL     1       1.076  -0.421  -1.875  0.00  0.00    +0.031 C 
BRANCH  17  19
ATOM     18  C   UNL     1       1.020  -0.856  -4.334  0.00  0.00    +0.010 C 
ATOM     19  C   UNL     1       0.644   0.137  -3.232  0.00  0.00    -0.036 C 
ATOM     20  C   UNL     1       1.351   1.470  -3.485  0.00  0.00    +0.010 C 
ATOM     21  C   UNL     1      -0.870   0.354  -3.236  0.00  0.00    +0.010 C 
ENDBRANCH  17  19
ENDBRANCH  14  17
ENDBRANCH  10  14
ENDBRANCH   1  11
BRANCH   1  22
ATOM     22  N   UNL     1       6.766  -0.087  -4.102  0.00  0.00    -0.243 N 
ATOM     23  C   UNL     1       7.073   1.179  -3.758  0.00  0.00    +0.297 C 
ATOM     24  O   UNL     1       6.186   1.992  -3.574  0.00  0.00    -0.260 OA
BRANCH  22  25
ATOM     25  C   UNL     1       7.786  -1.021  -4.313  0.00  0.00    +0.057 A 
ATOM     26  C   UNL     1       8.403  -1.109  -5.554  0.00  0.00    +0.025 A 
ATOM     27  C   UNL     1       9.410  -2.032  -5.760  0.00  0.00    +0.002 A 
ATOM     28  C   UNL     1       9.804  -2.869  -4.731  0.00  0.00    +0.002 A 
ATOM     29  C   UNL     1       9.191  -2.785  -3.495  0.00  0.00    +0.022 A 
ATOM     30  C   UNL     1       8.187  -1.860  -3.280  0.00  0.00    +0.062 A 
ATOM     31 CL   UNL     1       7.424  -1.750  -1.725  0.00  0.00    -0.082 Cl
ENDBRANCH  22  25
BRANCH  23  32
ATOM     32  C   UNL     1       8.443   1.569  -3.609  0.00  0.00    -0.002 C 
ATOM     33  C   UNL     1       9.566   1.889  -3.487  0.00  0.00    -0.057 C 
BRANCH  33  34
ATOM     34  C   UNL     1      10.936   2.278  -3.338  0.00  0.00    +0.025 A 
ATOM     35  C   UNL     1      11.958   1.349  -3.554  0.00  0.00    +0.017 A 
ATOM     36  C   UNL     1      13.275   1.732  -3.409  0.00  0.00    +0.001 A 
ATOM     37  C   UNL     1      13.586   3.032  -3.051  0.00  0.00    +0.000 A 
ATOM     38  C   UNL     1      12.579   3.957  -2.835  0.00  0.00    +0.001 A 
ATOM     39  C   UNL     1      11.258   3.591  -2.982  0.00  0.00    +0.017 A 
ENDBRANCH  33  34
ENDBRANCH  23  32
ENDBRANCH   1  22
TORSDOF 10
