REMARK  Name = ZINC21885713
REMARK  9 active torsions:
REMARK  status: ('A' for Active; 'I' for Inactive)
REMARK    1  A    between atoms: C_1  and  C_2
REMARK    2  A    between atoms: C_2  and  C_3
REMARK    3  A    between atoms: N_9  and  C_10
REMARK    4  A    between atoms: C_10  and  C_11
REMARK    5  A    between atoms: C_11  and  C_12
REMARK    6  A    between atoms: C_12  and  N_13
REMARK    7  A    between atoms: C_14  and  C_16
REMARK    8  A    between atoms: C_20  and  N_23
REMARK    9  A    between atoms: C_21  and  C_22
REMARK                            x       y       z     vdW  Elec       q    Type
REMARK                         _______ _______ _______ _____ _____    ______ ____
ROOT
ATOM      1  N   UNL     1       1.747   2.764   4.105  0.00  0.00    -0.311 N 
ATOM      2  C   UNL     1       1.099   2.894   2.930  0.00  0.00    +0.244 C 
ATOM      3  O   UNL     1       1.631   2.529   1.900  0.00  0.00    -0.270 OA
ATOM      4  H   UNL     1       1.266   3.094   5.038  0.00  0.00    +0.149 HD
ENDROOT
BRANCH   2   5
ATOM      5  C   UNL     1      -0.258   3.480   2.895  0.00  0.00    +0.042 A 
ATOM      6  C   UNL     1      -0.920   3.786   4.086  0.00  0.00    +0.013 A 
ATOM      7  C   UNL     1      -2.187   4.332   4.050  0.00  0.00    +0.003 A 
ATOM      8  C   UNL     1      -2.804   4.578   2.837  0.00  0.00    +0.028 A 
ATOM      9  C   UNL     1      -2.151   4.283   1.647  0.00  0.00    +0.073 A 
ATOM     10  C   UNL     1      -0.881   3.728   1.673  0.00  0.00    -0.013 A 
ATOM     11  C   UNL     1      -0.173   3.401   0.383  0.00  0.00    +0.047 C 
BRANCH   9  12
ATOM     12  N   UNL     1      -2.779   4.540   0.421  0.00  0.00    -0.194 N 
ATOM     13  C   UNL     1      -3.952   5.232   0.228  0.00  0.00    +0.184 A 
ATOM     14  C   UNL     1      -4.176   5.232  -1.161  0.00  0.00    +0.132 A 
ATOM     15  C   UNL     1      -5.315   5.878  -1.661  0.00  0.00    +0.035 A 
ATOM     16  C   UNL     1      -6.159   6.488  -0.771  0.00  0.00    +0.022 A 
ATOM     17  C   UNL     1      -5.872   6.453   0.585  0.00  0.00    +0.113 A 
ATOM     18  N   UNL     1      -4.799   5.844   1.043  0.00  0.00    -0.234 NA
ATOM     19  N   UNL     1      -3.163   4.550  -1.742  0.00  0.00    -0.127 NA
ATOM     20  N   UNL     1      -2.337   4.136  -0.847  0.00  0.00    -0.058 NA
ENDBRANCH   9  12
ENDBRANCH   2   5
BRANCH   1  21
ATOM     21  C   UNL     1       3.091   2.183   4.141  0.00  0.00    +0.102 C 
BRANCH  21  22
ATOM     22  C   UNL     1       3.595   2.151   5.585  0.00  0.00    +0.000 C 
BRANCH  22  23
ATOM     23  C   UNL     1       5.000   1.545   5.621  0.00  0.00    -0.077 C 
BRANCH  23  29
ATOM     24  C   UNL     1       6.802   0.873   7.091  0.00  0.00    -0.069 C 
ATOM     25  C   UNL     1       7.338   0.988   8.520  0.00  0.00    -0.015 C 
ATOM     26  C   UNL     1       6.359   0.310   9.483  0.00  0.00    -0.003 C 
ATOM     27  C   UNL     1       4.981   0.963   9.342  0.00  0.00    -0.019 C 
ATOM     28  C   UNL     1       4.514   0.849   7.889  0.00  0.00    -0.078 C 
ATOM     29  N   UNL     1       5.483   1.513   7.008  0.00  0.00    +0.382 N 
ATOM     30  H   UNL     1       5.593   2.552   7.353  0.00  0.00    -0.081 HD
BRANCH  24  32
ATOM     31  C   UNL     1       9.100   0.814   6.111  0.00  0.00    +0.002 C 
ATOM     32  C   UNL     1       7.767   1.567   6.128  0.00  0.00    -0.019 C 
ENDBRANCH  24  32
ENDBRANCH  23  29
ENDBRANCH  22  23
ENDBRANCH  21  22
ENDBRANCH   1  21
TORSDOF 7
