REMARK  Name = ZINC09128540
REMARK  5 active torsions:
REMARK  status: ('A' for Active; 'I' for Inactive)
REMARK    1  A    between atoms: C_11  and  C_13
REMARK    2  A    between atoms: C_13  and  O_14
REMARK    3  A    between atoms: O_14  and  C_15
REMARK    4  A    between atoms: C_15  and  C_17
REMARK    5  A    between atoms: C_20  and  N_23
REMARK                            x       y       z     vdW  Elec       q    Type
REMARK                         _______ _______ _______ _____ _____    ______ ____
ROOT
ATOM      1  C   UNL     1      -2.473  -5.898  -0.054  0.00  0.00    +0.059 A 
ATOM      2  C   UNL     1      -3.193  -4.700  -0.066  0.00  0.00    +0.017 A 
ATOM      3  C   UNL     1      -2.523  -3.497  -0.062  0.00  0.00    +0.025 A 
ATOM      4  C   UNL     1      -1.132  -3.473  -0.045  0.00  0.00    +0.045 A 
ATOM      5  C   UNL     1      -0.413  -4.664  -0.039  0.00  0.00    +0.025 A 
ATOM      6  C   UNL     1      -1.076  -5.871  -0.037  0.00  0.00    +0.017 A 
ENDROOT
BRANCH   4   7
ATOM      7  N   UNL     1      -0.456  -2.251  -0.041  0.00  0.00    -0.202 N 
ATOM      8  C   UNL     1      -1.059  -1.048  -0.053  0.00  0.00    +0.258 C 
ATOM      9  O   UNL     1      -2.258  -0.856  -0.067  0.00  0.00    -0.269 OA
ATOM     10  C   UNL     1      -0.017   0.000  -0.044  0.00  0.00    +0.050 A 
ATOM     11  C   UNL     1      -0.038   1.386  -0.049  0.00  0.00    +0.014 A 
ATOM     12  C   UNL     1       1.155   2.091  -0.037  0.00  0.00    +0.001 A 
ATOM     13  C   UNL     1       2.365   1.422  -0.021  0.00  0.00    +0.001 A 
ATOM     14  C   UNL     1       2.401   0.037  -0.015  0.00  0.00    +0.014 A 
ATOM     15  C   UNL     1       1.217  -0.682  -0.027  0.00  0.00    +0.050 A 
ATOM     16  C   UNL     1       0.882  -2.122  -0.026  0.00  0.00    +0.258 C 
ATOM     17  O   UNL     1       1.683  -3.035  -0.013  0.00  0.00    -0.269 OA
ENDBRANCH   4   7
BRANCH   1  18
ATOM     18  C   UNL     1      -3.187  -7.189  -0.059  0.00  0.00    +0.340 C 
ATOM     19  O   UNL     1      -4.402  -7.212  -0.074  0.00  0.00    -0.245 OA
BRANCH  18  20
ATOM     20  O   UNL     1      -2.492  -8.343  -0.047  0.00  0.00    -0.452 OA
BRANCH  20  21
ATOM     21  C   UNL     1      -3.260  -9.575  -0.052  0.00  0.00    +0.328 C 
BRANCH  21  32
ATOM     22  C   UNL     1      -0.199 -15.242   0.326  0.00  0.00    +0.000 A 
ATOM     23  C   UNL     1       0.273 -13.998  -0.048  0.00  0.00    +0.002 A 
ATOM     24  C   UNL     1      -0.596 -12.929  -0.136  0.00  0.00    +0.024 A 
ATOM     25  C   UNL     1      -1.945 -13.104   0.147  0.00  0.00    +0.040 A 
ATOM     26  C   UNL     1      -2.418 -14.352   0.525  0.00  0.00    -0.026 A 
ATOM     27  C   UNL     1      -1.539 -15.419   0.612  0.00  0.00    +0.005 A 
ATOM     28  C   UNL     1      -3.873 -14.580   0.840  0.00  0.00    +0.038 C 
ATOM     29  C   UNL     1      -4.560 -13.258   1.184  0.00  0.00    +0.024 C 
ATOM     30  C   UNL     1      -4.261 -12.241   0.075  0.00  0.00    +0.114 C 
ATOM     31  N   UNL     1      -2.810 -12.005   0.061  0.00  0.00    -0.268 N 
ATOM     32  C   UNL     1      -2.321 -10.754  -0.037  0.00  0.00    +0.258 C 
ATOM     33  O   UNL     1      -1.123 -10.575  -0.114  0.00  0.00    -0.272 OA
ENDBRANCH  21  32
ENDBRANCH  20  21
ENDBRANCH  18  20
ENDBRANCH   1  18
TORSDOF 5
