REMARK  Name = ZINC20294482
REMARK  9 active torsions:
REMARK  status: ('A' for Active; 'I' for Inactive)
REMARK    1  A    between atoms: C_1  and  C_2
REMARK    2  A    between atoms: C_2  and  N_3
REMARK    3  A    between atoms: C_4  and  C_21
REMARK    4  A    between atoms: C_7  and  S_8
REMARK    5  A    between atoms: S_8  and  C_9
REMARK    6  A    between atoms: C_9  and  C_10
REMARK    7  A    between atoms: N_12  and  C_13
REMARK    8  A    between atoms: C_27  and  C_29
REMARK    9  A    between atoms: C_32  and  C_35
REMARK                            x       y       z     vdW  Elec       q    Type
REMARK                         _______ _______ _______ _____ _____    ______ ____
ROOT
ATOM      1  N   UNL     1      -5.609   5.888  -1.496  0.00  0.00    -0.305 N 
ATOM      2  C   UNL     1      -5.064   4.638  -1.393  0.00  0.00    +0.155 A 
ATOM      3  N   UNL     1      -4.650   4.297  -2.581  0.00  0.00    -0.132 NA
ATOM      4  N   UNL     1      -4.903   5.234  -3.423  0.00  0.00    -0.122 NA
ATOM      5  C   UNL     1      -5.488   6.238  -2.810  0.00  0.00    +0.192 A 
ENDROOT
BRANCH   2   6
ATOM      6  C   UNL     1      -4.955   3.812  -0.138  0.00  0.00    +0.144 C 
ATOM      7  C   UNL     1      -5.968   2.648  -0.187  0.00  0.00    +0.032 C 
ATOM      8  C   UNL     1      -5.179   1.474   0.452  0.00  0.00    +0.021 C 
ATOM      9  C   UNL     1      -3.742   1.750  -0.064  0.00  0.00    +0.109 C 
ATOM     10  N   UNL     1      -3.613   3.219  -0.044  0.00  0.00    -0.287 N 
ATOM     11  C   UNL     1      -2.456   3.904   0.040  0.00  0.00    +0.247 C 
ATOM     12  O   UNL     1      -2.473   5.115   0.149  0.00  0.00    -0.270 OA
BRANCH  11  13
ATOM     13  C   UNL     1      -1.165   3.184   0.001  0.00  0.00    +0.037 A 
ATOM     14  C   UNL     1      -1.130   1.827  -0.323  0.00  0.00    +0.013 A 
ATOM     15  C   UNL     1       0.077   1.159  -0.353  0.00  0.00    +0.004 A 
ATOM     16  C   UNL     1       1.252   1.834  -0.073  0.00  0.00    -0.050 A 
ATOM     17  C   UNL     1       1.224   3.181   0.243  0.00  0.00    +0.004 A 
ATOM     18  C   UNL     1       0.024   3.859   0.281  0.00  0.00    +0.013 A 
ATOM     19  C   UNL     1       2.567   1.100  -0.114  0.00  0.00    +0.044 C 
ENDBRANCH  11  13
ENDBRANCH   2   6
BRANCH   1  21
ATOM     20  C   UNL     1      -5.115   7.550   0.230  0.00  0.00    +0.027 C 
ATOM     21  C   UNL     1      -6.199   6.687  -0.419  0.00  0.00    +0.122 C 
ENDBRANCH   1  21
BRANCH   5  22
ATOM     22  S   UNL     1      -6.017   7.749  -3.546  0.00  0.00    -0.077 S 
BRANCH  22  23
ATOM     23  C   UNL     1      -5.520   7.455  -5.261  0.00  0.00    +0.173 C 
BRANCH  23  24
ATOM     24  C   UNL     1      -5.884   8.651  -6.102  0.00  0.00    +0.228 C 
ATOM     25  O   UNL     1      -6.427   9.608  -5.591  0.00  0.00    -0.275 OA
ATOM     26  N   UNL     1      -5.607   8.658  -7.421  0.00  0.00    -0.284 N 
ATOM     27  H   UNL     1      -5.198   7.757  -7.901  0.00  0.00    +0.155 HD
BRANCH  26  28
ATOM     28  C   UNL     1      -5.840   9.811  -8.179  0.00  0.00    +0.053 A 
ATOM     29  C   UNL     1      -5.857  11.056  -7.565  0.00  0.00    +0.044 A 
ATOM     30  C   UNL     1      -6.088  12.193  -8.317  0.00  0.00    +0.043 A 
ATOM     31  C   UNL     1      -6.301  12.091  -9.681  0.00  0.00    +0.021 A 
ATOM     32  C   UNL     1      -6.284  10.852 -10.295  0.00  0.00    +0.023 A 
ATOM     33  C   UNL     1      -6.049   9.712  -9.550  0.00  0.00    +0.062 A 
ATOM     34 CL   UNL     1      -6.021   8.159 -10.323  0.00  0.00    -0.082 Cl
ATOM     35 CL   UNL     1      -6.109  13.750  -7.550  0.00  0.00    -0.083 Cl
ENDBRANCH  26  28
ENDBRANCH  23  24
ENDBRANCH  22  23
ENDBRANCH   5  22
TORSDOF 7
