REMARK  Name = ZINC33729879
REMARK  2 active torsions:
REMARK  status: ('A' for Active; 'I' for Inactive)
REMARK    1  A    between atoms: C_3  and  N_10
REMARK    2  A    between atoms: C_5  and  N_7
REMARK                            x       y       z     vdW  Elec       q    Type
REMARK                         _______ _______ _______ _____ _____    ______ ____
ROOT
ATOM      1  N   UNL     1       3.586   2.125  -0.021  0.00  0.00    -0.210 N 
ATOM      2  C   UNL     1       4.782   1.530   0.057  0.00  0.00    +0.232 C 
ATOM      3  O   UNL     1       4.965   0.335   0.143  0.00  0.00    -0.274 OA
ATOM      4  C   UNL     1       5.869   2.580   0.020  0.00  0.00    +0.107 C 
ATOM      5  C   UNL     1       6.581   2.628   1.384  0.00  0.00    +0.071 C 
ATOM      6  C   UNL     1       8.038   2.163   1.216  0.00  0.00    +0.021 C 
ATOM      7  C   UNL     1       8.850   3.441   0.930  0.00  0.00    +0.017 C 
ATOM      8  C   UNL     1       7.813   4.583   0.920  0.00  0.00    +0.086 C 
ATOM      9  N   UNL     1       6.652   4.079   1.737  0.00  0.00    -0.281 NA
ATOM     10  C   UNL     1       5.383   4.639   1.241  0.00  0.00    +0.138 C 
ATOM     11  C   UNL     1       5.077   3.912  -0.090  0.00  0.00    +0.123 C 
ATOM     12  C   UNL     1       3.635   3.459  -0.113  0.00  0.00    +0.233 C 
ATOM     13  O   UNL     1       2.672   4.191  -0.199  0.00  0.00    -0.274 OA
ATOM     14  C   UNL     1       4.275   4.459   2.241  0.00  0.00    +0.005 A 
ATOM     15  C   UNL     1       3.707   3.354   2.835  0.00  0.00    +0.023 A 
ATOM     16  C   UNL     1       2.674   3.511   3.743  0.00  0.00    +0.018 A 
ATOM     17  C   UNL     1       2.215   4.780   4.050  0.00  0.00    +0.017 A 
ATOM     18  C   UNL     1       2.782   5.889   3.457  0.00  0.00    +0.025 A 
ATOM     19  C   UNL     1       3.822   5.739   2.542  0.00  0.00    +0.039 A 
ATOM     20  N   UNL     1       4.548   6.691   1.822  0.00  0.00    -0.283 N 
ATOM     21  C   UNL     1       5.484   6.126   1.034  0.00  0.00    +0.243 C 
ATOM     22  O   UNL     1       6.257   6.705   0.301  0.00  0.00    -0.273 OA
ATOM     23 BR   UNL     1       1.892   1.996   4.561  0.00  0.00    -0.050 Br
ATOM     24  H   UNL     1       4.396   7.647   1.881  0.00  0.00    +0.155 HD
ENDROOT
BRANCH   1  27
ATOM     25  C   UNL     1       0.804   0.010   1.129  0.00  0.00    +0.004 A 
ATOM     26  C   UNL     1       1.992   0.714   1.124  0.00  0.00    +0.024 A 
ATOM     27  C   UNL     1       2.381   1.409  -0.013  0.00  0.00    +0.046 A 
ATOM     28  C   UNL     1       1.573   1.394  -1.142  0.00  0.00    +0.056 A 
ATOM     29  C   UNL     1       0.386   0.688  -1.131  0.00  0.00    +0.128 A 
ATOM     30  C   UNL     1       0.002  -0.003   0.003  0.00  0.00    +0.033 A 
BRANCH  29  31
ATOM     31  N   UNL     1      -0.476   0.672  -2.334  0.00  0.00    +0.056 N 
ATOM     32  O   UNL     1      -0.141   1.277  -3.326  0.00  0.00    -0.126 OA
ATOM     33  O   UNL     1      -1.515   0.054  -2.325  0.00  0.00    -0.126 OA
ENDBRANCH  29  31
ENDBRANCH   1  27
TORSDOF 2
