REMARK  Name = ZINC14479334
REMARK  10 active torsions:
REMARK  status: ('A' for Active; 'I' for Inactive)
REMARK    1  A    between atoms: C_1  and  C_2
REMARK    2  A    between atoms: C_5  and  N_9
REMARK    3  A    between atoms: C_6  and  C_8
REMARK    4  A    between atoms: N_9  and  S_10
REMARK    5  A    between atoms: S_10  and  C_13
REMARK    6  A    between atoms: C_26  and  C_29
REMARK    7  A    between atoms: C_32  and  O_37
REMARK    8  A    between atoms: C_33  and  O_35
REMARK    9  A    between atoms: O_35  and  C_36
REMARK   10  A    between atoms: O_37  and  C_38
REMARK                            x       y       z     vdW  Elec       q    Type
REMARK                         _______ _______ _______ _____ _____    ______ ____
ROOT
ATOM      1  C   UNL     1      -2.925   3.126  -2.203  0.00  0.00    +0.109 A 
ATOM      2  C   UNL     1      -3.381   1.907  -2.672  0.00  0.00    +0.030 A 
ATOM      3  C   UNL     1      -3.329   1.633  -4.024  0.00  0.00    +0.025 A 
ATOM      4  C   UNL     1      -2.821   2.578  -4.907  0.00  0.00    +0.031 A 
ATOM      5  C   UNL     1      -2.361   3.800  -4.440  0.00  0.00    -0.018 A 
ATOM      6  C   UNL     1      -2.424   4.066  -3.079  0.00  0.00    +0.034 A 
ATOM      7  C   UNL     1      -1.803   4.846  -5.352  0.00  0.00    +0.049 C 
ATOM      8  C   UNL     1      -2.782   5.978  -5.558  0.00  0.00    -0.023 C 
ATOM      9  C   UNL     1      -2.708   6.423  -6.789  0.00  0.00    -0.030 C 
ATOM     10  C   UNL     1      -1.663   5.651  -7.571  0.00  0.00    +0.033 C 
ATOM     11  C   UNL     1      -1.527   4.320  -6.774  0.00  0.00    +0.029 C 
ATOM     12  C   UNL     1      -2.658   3.386  -7.213  0.00  0.00    +0.105 C 
ATOM     13  N   UNL     1      -2.779   2.287  -6.274  0.00  0.00    -0.336 N 
ATOM     14  H   UNL     1      -2.823   1.371  -6.589  0.00  0.00    +0.147 HD
ENDROOT
BRANCH  12  15
ATOM     15  C   UNL     1      -3.961   4.144  -7.230  0.00  0.00    -0.023 A 
ATOM     16  C   UNL     1      -4.737   4.207  -6.088  0.00  0.00    +0.009 A 
ATOM     17  C   UNL     1      -5.930   4.906  -6.097  0.00  0.00    +0.050 A 
ATOM     18  C   UNL     1      -6.355   5.536  -7.255  0.00  0.00    +0.162 A 
ATOM     19  C   UNL     1      -5.576   5.468  -8.406  0.00  0.00    +0.162 A 
ATOM     20  C   UNL     1      -4.379   4.770  -8.389  0.00  0.00    +0.055 A 
BRANCH  19  21
ATOM     21  O   UNL     1      -5.989   6.085  -9.546  0.00  0.00    -0.491 OA
ATOM     22  C   UNL     1      -5.139   5.973 -10.689  0.00  0.00    +0.277 C 
ENDBRANCH  19  21
BRANCH  18  23
ATOM     23  O   UNL     1      -7.531   6.220  -7.267  0.00  0.00    -0.491 OA
ATOM     24  C   UNL     1      -8.277   6.247  -6.049  0.00  0.00    +0.277 C 
ENDBRANCH  18  23
ENDBRANCH  12  15
BRANCH   1  25
ATOM     25  S   UNL     1      -2.990   3.481  -0.478  0.00  0.00    +0.072 S 
ATOM     26  O   UNL     1      -4.010   2.655   0.068  0.00  0.00    -0.150 OA
ATOM     27  O   UNL     1      -3.009   4.897  -0.356  0.00  0.00    -0.150 OA
BRANCH  25  28
ATOM     28  N   UNL     1      -1.561   2.968   0.182  0.00  0.00    -0.216 N 
ATOM     29  H   UNL     1      -1.563   2.293   0.879  0.00  0.00    +0.174 HD
BRANCH  28  34
ATOM     30  C   UNL     1       3.344   5.154  -1.640  0.00  0.00    +0.044 C 
ATOM     31  C   UNL     1       2.041   4.574  -1.153  0.00  0.00    -0.050 A 
ATOM     32  C   UNL     1       0.916   5.375  -1.074  0.00  0.00    +0.005 A 
ATOM     33  C   UNL     1      -0.279   4.846  -0.628  0.00  0.00    +0.025 A 
ATOM     34  C   UNL     1      -0.352   3.507  -0.264  0.00  0.00    +0.051 A 
ATOM     35  C   UNL     1       0.781   2.708  -0.339  0.00  0.00    -0.028 A 
ATOM     36  C   UNL     1       1.973   3.243  -0.786  0.00  0.00    +0.008 A 
ATOM     37  C   UNL     1       0.708   1.256   0.059  0.00  0.00    +0.046 C 
ENDBRANCH  28  34
ENDBRANCH  25  28
ENDBRANCH   1  25
TORSDOF 6
