REMARK  Name = ZINC39167743
REMARK  5 active torsions:
REMARK  status: ('A' for Active; 'I' for Inactive)
REMARK    1  A    between atoms: C_7  and  C_10
REMARK    2  A    between atoms: N_11  and  N_12
REMARK    3  A    between atoms: C_13  and  C_15
REMARK    4  A    between atoms: N_19  and  C_21
REMARK    5  A    between atoms: C_21  and  C_22
REMARK                            x       y       z     vdW  Elec       q    Type
REMARK                         _______ _______ _______ _____ _____    ______ ____
ROOT
ATOM      1  N   UNL     1       0.255  -5.437  -0.030  0.00  0.00    -0.205 N 
ATOM      2  C   UNL     1       0.733  -6.697  -0.041  0.00  0.00    +0.255 C 
ATOM      3  O   UNL     1       1.930  -6.892  -0.054  0.00  0.00    -0.272 OA
ATOM      4  H   UNL     1      -0.702  -5.281  -0.020  0.00  0.00    +0.177 HD
ENDROOT
BRANCH   2   5
ATOM      5  C   UNL     1      -0.220  -7.864  -0.038  0.00  0.00    +0.184 C 
ATOM      6  C   UNL     1      -1.038  -7.877   1.236  0.00  0.00    +0.019 C 
ATOM      7  C   UNL     1      -0.760  -9.007   1.855  0.00  0.00    +0.086 C 
ATOM      8  N   UNL     1       0.152  -9.766   1.150  0.00  0.00    -0.269 N 
ATOM      9  N   UNL     1       0.524  -9.139  -0.009  0.00  0.00    -0.225 NA
ATOM     10  H   UNL     1       1.520  -8.977  -0.029  0.00  0.00    +0.146 HD
BRANCH   8  11
ATOM     11  C   UNL     1       0.656 -11.071   1.584  0.00  0.00    +0.158 C 
BRANCH  11  12
ATOM     12  C   UNL     1       1.820 -10.873   2.522  0.00  0.00    -0.029 A 
ATOM     13  C   UNL     1       3.106 -10.796   2.020  0.00  0.00    +0.006 A 
ATOM     14  C   UNL     1       4.173 -10.614   2.880  0.00  0.00    +0.015 A 
ATOM     15  C   UNL     1       3.954 -10.510   4.242  0.00  0.00    +0.018 A 
ATOM     16  C   UNL     1       2.667 -10.588   4.743  0.00  0.00    +0.015 A 
ATOM     17  C   UNL     1       1.600 -10.764   3.882  0.00  0.00    +0.006 A 
ATOM     18 BR   UNL     1       5.413 -10.262   5.418  0.00  0.00    -0.050 Br
ENDBRANCH  11  12
ENDBRANCH   8  11
ENDBRANCH   2   5
BRANCH   1  20
ATOM     19  C   UNL     1       0.677  -3.128  -0.022  0.00  0.00    +0.136 C 
ATOM     20  N   UNL     1       1.141  -4.352  -0.033  0.00  0.00    -0.188 NA
BRANCH  19  27
ATOM     21  C   UNL     1      -0.016   1.353   0.009  0.00  0.00    +0.001 A 
ATOM     22  C   UNL     1       1.164   2.102   0.002  0.00  0.00    +0.002 A 
ATOM     23  C   UNL     1       2.384   1.514  -0.013  0.00  0.00    +0.026 A 
ATOM     24  C   UNL     1       2.485   0.097  -0.022  0.00  0.00    +0.043 A 
ATOM     25  N   UNL     1       3.531  -0.702  -0.037  0.00  0.00    -0.380 N 
ATOM     26  C   UNL     1       3.076  -2.096  -0.040  0.00  0.00    +0.150 C 
ATOM     27  C   UNL     1       1.565  -2.042  -0.024  0.00  0.00    +0.000 C 
ATOM     28  C   UNL     1       1.238  -0.688  -0.013  0.00  0.00    +0.004 A 
ATOM     29  C   UNL     1       0.002  -0.004   0.002  0.00  0.00    +0.010 A 
ATOM     30  H   UNL     1       4.458  -0.414  -0.045  0.00  0.00    +0.160 HD
ENDBRANCH  19  27
ENDBRANCH   1  20
TORSDOF 5
