REMARK  Name = ZINC59461677
REMARK  7 active torsions:
REMARK  status: ('A' for Active; 'I' for Inactive)
REMARK    1  A    between atoms: C_4  and  N_7
REMARK    2  A    between atoms: N_11  and  N_12
REMARK    3  A    between atoms: N_12  and  C_13
REMARK    4  A    between atoms: C_16  and  S_23
REMARK    5  A    between atoms: S_23  and  N_26
REMARK    6  A    between atoms: C_27  and  C_29
REMARK    7  A    between atoms: C_32  and  N_35
REMARK                            x       y       z     vdW  Elec       q    Type
REMARK                         _______ _______ _______ _____ _____    ______ ____
ROOT
ATOM      1  N   UNL     1       3.622  -0.651  -0.037  0.00  0.00    -0.155 N 
ATOM      2  C   UNL     1       3.756  -1.992  -0.050  0.00  0.00    +0.292 C 
ATOM      3  O   UNL     1       2.858  -2.817  -0.052  0.00  0.00    -0.266 OA
ATOM      4  C   UNL     1       5.203  -2.260  -0.064  0.00  0.00    +0.173 C 
ATOM      5  N   UNL     1       5.803  -3.435  -0.080  0.00  0.00    -0.175 NA
ATOM      6  C   UNL     1       5.836  -0.925  -0.056  0.00  0.00    +0.122 C 
ATOM      7  N   UNL     1       4.875  -0.039  -0.046  0.00  0.00    -0.170 NA
ENDROOT
BRANCH   1  11
ATOM      8  C   UNL     1      -0.017   1.379   0.010  0.00  0.00    +0.000 A 
ATOM      9  C   UNL     1       1.170   2.089   0.002  0.00  0.00    +0.002 A 
ATOM     10  C   UNL     1       2.377   1.420  -0.013  0.00  0.00    +0.025 A 
ATOM     11  C   UNL     1       2.400   0.031  -0.021  0.00  0.00    +0.060 A 
ATOM     12  C   UNL     1       1.206  -0.680  -0.013  0.00  0.00    +0.025 A 
ATOM     13  C   UNL     1       0.002  -0.004   0.002  0.00  0.00    +0.002 A 
ENDBRANCH   1  11
BRANCH   6  14
ATOM     14  C   UNL     1       7.290  -0.643  -0.064  0.00  0.00    +0.004 A 
ATOM     15  C   UNL     1       8.207  -1.693  -0.087  0.00  0.00    +0.012 A 
ATOM     16  C   UNL     1       9.560  -1.424  -0.095  0.00  0.00    +0.033 A 
ATOM     17  C   UNL     1      10.008  -0.115  -0.081  0.00  0.00    +0.126 A 
ATOM     18  C   UNL     1       9.103   0.931  -0.058  0.00  0.00    +0.033 A 
ATOM     19  C   UNL     1       7.747   0.675  -0.055  0.00  0.00    +0.012 A 
BRANCH  17  20
ATOM     20  N   UNL     1      11.461   0.166  -0.089  0.00  0.00    +0.056 N 
ATOM     21  O   UNL     1      12.254  -0.746  -0.108  0.00  0.00    -0.126 OA
ATOM     22  O   UNL     1      11.855   1.309  -0.076  0.00  0.00    -0.126 OA
ENDBRANCH  17  20
ENDBRANCH   6  14
BRANCH   5  23
ATOM     23  N   UNL     1       5.102  -4.518  -0.085  0.00  0.00    -0.236 N 
ATOM     24  H   UNL     1       4.133  -4.468  -0.077  0.00  0.00    +0.174 HD
BRANCH  23  25
ATOM     25  C   UNL     1       5.734  -5.756  -0.102  0.00  0.00    +0.056 A 
ATOM     26  C   UNL     1       7.112  -5.835  -0.108  0.00  0.00    +0.027 A 
ATOM     27  C   UNL     1       7.754  -7.068  -0.126  0.00  0.00    +0.031 A 
ATOM     28  C   UNL     1       7.045  -8.231  -0.138  0.00  0.00    +0.113 A 
ATOM     29  C   UNL     1       5.640  -8.196  -0.132  0.00  0.00    +0.010 A 
ATOM     30  C   UNL     1       4.973  -6.946  -0.108  0.00  0.00    +0.007 A 
ATOM     31  C   UNL     1       3.571  -6.913  -0.097  0.00  0.00    +0.010 A 
ATOM     32  C   UNL     1       2.868  -8.080  -0.103  0.00  0.00    +0.001 A 
ATOM     33  C   UNL     1       3.523  -9.310  -0.120  0.00  0.00    +0.001 A 
ATOM     34  C   UNL     1       4.882  -9.380  -0.144  0.00  0.00    +0.010 A 
BRANCH  28  35
ATOM     35  S   UNL     1       7.887  -9.778  -0.161  0.00  0.00    +0.057 S 
ATOM     36  O   UNL     1       7.291 -10.550  -1.194  0.00  0.00    -0.153 OA
ATOM     37  O   UNL     1       9.277  -9.483  -0.136  0.00  0.00    -0.153 OA
BRANCH  35  38
ATOM     38  N   UNL     1       7.540 -10.546   1.265  0.00  0.00    -0.203 NA
ATOM     39  H   UNL     1       7.515 -11.515   1.300  0.00  0.00    +0.144 HD
ATOM     40  H   UNL     1       7.363 -10.027   2.064  0.00  0.00    +0.144 HD
ENDBRANCH  35  38
ENDBRANCH  28  35
ENDBRANCH  23  25
ENDBRANCH   5  23
TORSDOF 7
