REMARK  Name = ZINC13571522
REMARK  8 active torsions:
REMARK  status: ('A' for Active; 'I' for Inactive)
REMARK    1  A    between atoms: C_1  and  C_2
REMARK    2  A    between atoms: C_2  and  C_3
REMARK    3  A    between atoms: C_3  and  C_4
REMARK    4  A    between atoms: C_4  and  C_5
REMARK    5  A    between atoms: C_8  and  C_11
REMARK    6  A    between atoms: N_13  and  C_14
REMARK    7  A    between atoms: C_14  and  C_16
REMARK    8  A    between atoms: C_14  and  C_17
REMARK                            x       y       z     vdW  Elec       q    Type
REMARK                         _______ _______ _______ _____ _____    ______ ____
ROOT
ATOM      1  C   UNL     1       6.687  -5.261  -6.673  0.00  0.00    +0.236 C 
ATOM      2  O   UNL     1       7.034  -5.110  -5.521  0.00  0.00    -0.274 OA
ATOM      3  N   UNL     1       7.407  -6.048  -7.497  0.00  0.00    -0.300 N 
ATOM      4  C   UNL     1       7.067  -6.151  -8.922  0.00  0.00    +0.110 C 
ATOM      5  C   UNL     1       8.316  -5.835  -9.751  0.00  0.00    +0.047 C 
ATOM      6  C   UNL     1       9.462  -6.745  -9.309  0.00  0.00    +0.064 C 
ATOM      7  C   UNL     1       9.782  -6.497  -7.834  0.00  0.00    +0.047 C 
ATOM      8  C   UNL     1       8.552  -6.816  -6.987  0.00  0.00    +0.110 C 
ATOM      9  C   UNL     1      10.684  -6.465 -10.146  0.00  0.00    +0.057 A 
ATOM     10  C   UNL     1      11.465  -7.440 -10.666  0.00  0.00    +0.039 A 
ATOM     11  N   UNL     1      12.461  -6.829 -11.358  0.00  0.00    -0.349 N 
ATOM     12  H   UNL     1      13.178  -7.265 -11.845  0.00  0.00    +0.166 HD
ATOM     13  C   UNL     1      12.263  -5.494 -11.241  0.00  0.00    +0.171 A 
ATOM     14  N   UNL     1      11.195  -5.290 -10.513  0.00  0.00    -0.348 N 
ATOM     15  C   UNL     1      11.206  -8.910 -10.462  0.00  0.00    +0.070 C 
ATOM     16  C   UNL     1      10.217  -9.057  -9.296  0.00  0.00    +0.088 C 
ATOM     17  N   UNL     1       9.077  -8.152  -9.500  0.00  0.00    -0.305 NA
ATOM     18  H   UNL     1       8.306  -8.401  -8.899  0.00  0.00    +0.123 HD
ATOM     19  H   UNL     1      10.834  -4.421 -10.277  0.00  0.00    +0.166 HD
ENDROOT
BRANCH   1  20
ATOM     20  C   UNL     1       5.450  -4.569  -7.184  0.00  0.00    +0.156 C 
ATOM     21  C   UNL     1       5.839  -3.236  -7.825  0.00  0.00    +0.038 C 
BRANCH  20  24
ATOM     22  C   UNL     1       3.209  -4.199  -6.302  0.00  0.00    +0.245 C 
ATOM     23  O   UNL     1       2.780  -4.286  -7.436  0.00  0.00    -0.270 OA
ATOM     24  N   UNL     1       4.530  -4.326  -6.070  0.00  0.00    -0.300 N 
ATOM     25  H   UNL     1       4.873  -4.256  -5.165  0.00  0.00    +0.150 HD
BRANCH  22  29
ATOM     26  C   UNL     1       0.544  -3.494  -3.070  0.00  0.00    -0.047 A 
ATOM     27  C   UNL     1       0.052  -3.592  -4.359  0.00  0.00    +0.004 A 
ATOM     28  C   UNL     1       0.912  -3.821  -5.413  0.00  0.00    +0.013 A 
ATOM     29  C   UNL     1       2.281  -3.953  -5.177  0.00  0.00    +0.037 A 
ATOM     30  C   UNL     1       2.771  -3.853  -3.874  0.00  0.00    +0.013 A 
ATOM     31  C   UNL     1       1.901  -3.618  -2.829  0.00  0.00    +0.004 A 
BRANCH  26  32
ATOM     32  C   UNL     1      -0.401  -3.244  -1.923  0.00  0.00    +0.035 C 
BRANCH  32  33
ATOM     33  C   UNL     1      -0.560  -1.737  -1.712  0.00  0.00    +0.004 C 
BRANCH  33  35
ATOM     34  C   UNL     1      -1.678   0.024  -0.337  0.00  0.00    +0.004 C 
ATOM     35  C   UNL     1      -1.520  -1.483  -0.548  0.00  0.00    -0.003 C 
ENDBRANCH  33  35
ENDBRANCH  32  33
ENDBRANCH  26  32
ENDBRANCH  22  29
ENDBRANCH  20  24
ENDBRANCH   1  20
TORSDOF 6
