REMARK  Name = ZINC01836472
REMARK  10 active torsions:
REMARK  status: ('A' for Active; 'I' for Inactive)
REMARK    1  A    between atoms: C_1  and  N_61
REMARK    2  A    between atoms: C_8  and  O_32
REMARK    3  A    between atoms: C_10  and  C_12
REMARK    4  A    between atoms: C_13  and  C_14
REMARK    5  A    between atoms: C_14  and  N_15
REMARK    6  A    between atoms: N_15  and  C_16
REMARK    7  A    between atoms: C_19  and  S_22
REMARK    8  A    between atoms: S_22  and  C_23
REMARK    9  A    between atoms: C_26  and  N_29
REMARK   10  A    between atoms: O_32  and  C_33
REMARK                            x       y       z     vdW  Elec       q    Type
REMARK                         _______ _______ _______ _____ _____    ______ ____
ROOT
ATOM      1  C   UNL     1      -3.664  -3.099   0.039  0.00  0.00    -0.111 C 
ATOM      2  C   UNL     1      -2.563  -2.693   0.025  0.00  0.00    -0.085 C 
ENDROOT
BRANCH   1  12
ATOM      3  C   UNL     1      -5.882  -1.627  -1.051  0.00  0.00    -0.094 C 
ATOM      4  C   UNL     1      -7.093  -3.720  -1.210  0.00  0.00    -0.072 C 
ATOM      5  C   UNL     1      -6.907  -5.178  -1.633  0.00  0.00    +0.017 C 
ATOM      6  C   UNL     1      -5.889  -5.846  -0.745  0.00  0.00    -0.039 A 
ATOM      7  C   UNL     1      -5.836  -7.232  -0.729  0.00  0.00    +0.053 A 
ATOM      8  C   UNL     1      -4.913  -7.891   0.065  0.00  0.00    +0.170 A 
ATOM      9  C   UNL     1      -4.032  -7.157   0.853  0.00  0.00    +0.208 A 
ATOM     10  C   UNL     1      -4.089  -5.771   0.836  0.00  0.00    +0.168 A 
ATOM     11  C   UNL     1      -5.020  -5.114   0.036  0.00  0.00    -0.001 A 
ATOM     12  C   UNL     1      -5.045  -3.608   0.057  0.00  0.00    +0.043 C 
ATOM     13  O   UNL     1      -3.229  -8.025   1.536  0.00  0.00    -0.449 OA
ATOM     14  C   UNL     1      -3.898  -9.299   1.470  0.00  0.00    +0.467 C 
ATOM     15  O   UNL     1      -4.664  -9.220   0.254  0.00  0.00    -0.452 OA
ATOM     16  N   UNL     1      -5.755  -3.100  -1.129  0.00  0.00    +0.390 N 
ATOM     17  H   UNL     1      -5.221  -3.345  -1.971  0.00  0.00    -0.080 HD
BRANCH  10  18
ATOM     18  O   UNL     1      -3.230  -5.049   1.605  0.00  0.00    -0.491 OA
ATOM     19  C   UNL     1      -3.658  -4.728   2.930  0.00  0.00    +0.277 C 
ENDBRANCH  10  18
ENDBRANCH   1  12
BRANCH   2  20
ATOM     20  C   UNL     1      -1.182  -2.184   0.007  0.00  0.00    +0.191 C 
BRANCH  20  21
ATOM     21  N   UNL     1      -1.201  -0.719   0.026  0.00  0.00    -0.333 N 
ATOM     22  H   UNL     1      -2.047  -0.245   0.047  0.00  0.00    +0.147 HD
BRANCH  21  23
ATOM     23  C   UNL     1       0.002  -0.003   0.014  0.00  0.00    +0.028 A 
ATOM     24  C   UNL     1      -0.017   1.385   0.033  0.00  0.00    +0.024 A 
ATOM     25  C   UNL     1       1.169   2.092   0.021  0.00  0.00    +0.017 A 
ATOM     26  C   UNL     1       2.381   1.413  -0.008  0.00  0.00    +0.013 A 
ATOM     27  C   UNL     1       2.400   0.024  -0.027  0.00  0.00    +0.017 A 
ATOM     28  C   UNL     1       1.213  -0.681  -0.015  0.00  0.00    +0.024 A 
BRANCH  26  29
ATOM     29  S   UNL     1       3.896   2.315  -0.023  0.00  0.00    -0.089 S 
BRANCH  29  30
ATOM     30  C   UNL     1       3.389   3.997  -0.158  0.00  0.00    +0.013 A 
ATOM     31  C   UNL     1       3.135   4.550  -1.408  0.00  0.00    +0.017 A 
ATOM     32  C   UNL     1       2.733   5.867  -1.509  0.00  0.00    +0.034 A 
ATOM     33  C   UNL     1       2.594   6.639  -0.370  0.00  0.00    +0.126 A 
ATOM     34  C   UNL     1       2.850   6.093   0.875  0.00  0.00    +0.034 A 
ATOM     35  C   UNL     1       3.247   4.776   0.984  0.00  0.00    +0.017 A 
BRANCH  33  36
ATOM     36  N   UNL     1       2.168   8.052  -0.484  0.00  0.00    +0.056 N 
ATOM     37  O   UNL     1       2.045   8.733   0.518  0.00  0.00    -0.126 OA
ATOM     38  O   UNL     1       1.942   8.534  -1.579  0.00  0.00    -0.126 OA
ENDBRANCH  33  36
ENDBRANCH  29  30
ENDBRANCH  26  29
ENDBRANCH  21  23
ENDBRANCH  20  21
ENDBRANCH   2  20
TORSDOF 8
