REMARK  Name = ZINC21726772
REMARK  7 active torsions:
REMARK  status: ('A' for Active; 'I' for Inactive)
REMARK    1  A    between atoms: C_1  and  C_2
REMARK    2  A    between atoms: C_5  and  C_9
REMARK    3  A    between atoms: C_7  and  C_8
REMARK    4  A    between atoms: C_17  and  C_34
REMARK    5  A    between atoms: C_22  and  C_26
REMARK    6  A    between atoms: C_29  and  O_32
REMARK    7  A    between atoms: O_32  and  C_33
REMARK                            x       y       z     vdW  Elec       q    Type
REMARK                         _______ _______ _______ _____ _____    ______ ____
ROOT
ATOM      1  C   UNL     1      -1.145  -0.982   0.022  0.00  0.00    +0.063 C 
ATOM      2  C   UNL     1      -0.697  -2.265  -0.686  0.00  0.00    +0.109 C 
ATOM      3  C   UNL     1       0.688  -2.665  -0.264  0.00  0.00    +0.219 C 
ATOM      4  O   UNL     1       0.938  -3.842  -0.109  0.00  0.00    -0.275 OA
ATOM      5  N   UNL     1       1.664  -1.757  -0.051  0.00  0.00    -0.270 N 
ATOM      6  C   UNL     1       1.310  -0.409  -0.019  0.00  0.00    +0.136 A 
ATOM      7  C   UNL     1       0.002  -0.004   0.002  0.00  0.00    +0.023 A 
ATOM      8  C   UNL     1      -0.017   1.384   0.010  0.00  0.00    +0.066 A 
ATOM      9  N   UNL     1       1.223   1.813   0.000  0.00  0.00    -0.167 NA
ATOM     10  N   UNL     1       2.080   0.700  -0.014  0.00  0.00    -0.182 N 
ATOM     11  C   UNL     1       3.474   0.734  -0.022  0.00  0.00    +0.273 A 
ATOM     12  N   UNL     1       4.099   1.902  -0.016  0.00  0.00    -0.208 NA
ATOM     13  C   UNL     1       5.431   1.930  -0.023  0.00  0.00    +0.095 A 
ATOM     14  C   UNL     1       6.126   0.715  -0.038  0.00  0.00    +0.163 A 
ATOM     15  N   UNL     1       5.443  -0.415  -0.043  0.00  0.00    -0.152 NA
ATOM     16  N   UNL     1       4.156  -0.402  -0.030  0.00  0.00    -0.109 NA
ATOM     17  C   UNL     1      -1.250   2.249   0.020  0.00  0.00    +0.068 C 
ATOM     18  H   UNL     1       2.703  -2.088   0.091  0.00  0.00    +0.156 HD
ENDROOT
BRANCH   1  23
ATOM     19  C   UNL     1      -2.589  -2.180   5.488  0.00  0.00    +0.044 C 
ATOM     20  C   UNL     1      -2.212  -1.867   4.062  0.00  0.00    -0.048 A 
ATOM     21  C   UNL     1      -0.937  -2.145   3.608  0.00  0.00    +0.004 A 
ATOM     22  C   UNL     1      -0.593  -1.863   2.299  0.00  0.00    +0.004 A 
ATOM     23  C   UNL     1      -1.522  -1.294   1.448  0.00  0.00    -0.039 A 
ATOM     24  C   UNL     1      -2.797  -1.017   1.902  0.00  0.00    +0.008 A 
ATOM     25  C   UNL     1      -3.143  -1.303   3.210  0.00  0.00    -0.047 A 
ATOM     26  C   UNL     1      -4.533  -1.001   3.705  0.00  0.00    +0.044 C 
ENDBRANCH   1  23
BRANCH  13  27
ATOM     27  C   UNL     1       6.162   3.219  -0.017  0.00  0.00    +0.002 A 
ATOM     28  C   UNL     1       5.461   4.419   0.096  0.00  0.00    +0.013 A 
ATOM     29  C   UNL     1       6.144   5.617   0.107  0.00  0.00    +0.046 A 
ATOM     30  C   UNL     1       7.528   5.629  -0.006  0.00  0.00    +0.120 A 
ATOM     31  C   UNL     1       8.229   4.436  -0.125  0.00  0.00    +0.046 A 
ATOM     32  C   UNL     1       7.552   3.235  -0.131  0.00  0.00    +0.013 A 
BRANCH  30  33
ATOM     33  O   UNL     1       8.197   6.811   0.000  0.00  0.00    -0.495 OA
ATOM     34  C   UNL     1       7.415   8.000   0.126  0.00  0.00    +0.277 C 
ENDBRANCH  30  33
ENDBRANCH  13  27
TORSDOF 3
