REMARK  Name = ZINC09473041
REMARK  16 active torsions:
REMARK  status: ('A' for Active; 'I' for Inactive)
REMARK    1  A    between atoms: C_1  and  C_2
REMARK    2  A    between atoms: C_2  and  O_3
REMARK    3  A    between atoms: O_3  and  C_4
REMARK    4  A    between atoms: C_4  and  C_6
REMARK    5  A    between atoms: C_10  and  N_11
REMARK    6  A    between atoms: C_12  and  C_14
REMARK    7  A    between atoms: C_14  and  C_15
REMARK    8  A    between atoms: C_15  and  C_16
REMARK    9  A    between atoms: C_16  and  S_17
REMARK   10  A    between atoms: S_17  and  C_18
REMARK   11  A    between atoms: C_21  and  O_24
REMARK   12  A    between atoms: O_24  and  C_25
REMARK   13  A    between atoms: C_26  and  C_31
REMARK   14  A    between atoms: C_26  and  C_32
REMARK   15  A    between atoms: C_27  and  C_29
REMARK   16  A    between atoms: C_27  and  C_30
REMARK                            x       y       z     vdW  Elec       q    Type
REMARK                         _______ _______ _______ _____ _____    ______ ____
ROOT
ATOM      1  C   UNL     1       1.284   1.991   0.001  0.00  0.00    +0.091 A 
ATOM      2  C   UNL     1      -0.016   1.349   0.009  0.00  0.00    -0.024 A 
ATOM      3  C   UNL     1       0.002  -0.004   0.002  0.00  0.00    -0.016 A 
ATOM      4  S   UNL     1       1.721  -0.428  -0.030  0.00  0.00    -0.079 S 
ATOM      5  C   UNL     1       2.405   1.164  -0.028  0.00  0.00    +0.086 A 
ATOM      6  C   UNL     1      -1.184  -0.911   0.025  0.00  0.00    -0.041 C 
ATOM      7  C   UNL     1      -2.380   1.160  -0.681  0.00  0.00    -0.069 C 
ATOM      8  C   UNL     1      -1.357   2.067   0.007  0.00  0.00    +0.024 C 
ATOM      9  C   UNL     1      -2.059   1.085  -2.177  0.00  0.00    -0.010 C 
ATOM     10  C   UNL     1      -3.767   1.813  -0.529  0.00  0.00    -0.010 C 
ATOM     11  C   UNL     1      -1.062  -1.936  -1.108  0.00  0.00    -0.005 C 
ATOM     12  C   UNL     1      -1.177  -1.676   1.361  0.00  0.00    -0.005 C 
ATOM     13  N   UNL     1      -2.483  -0.188  -0.066  0.00  0.00    +0.389 N 
ATOM     14  H   UNL     1      -2.861  -0.082   0.882  0.00  0.00    -0.084 HD
ATOM     15  H   UNL     1      -3.128  -0.752  -0.631  0.00  0.00    -0.084 HD
ENDROOT
BRANCH   5  16
ATOM     16  N   UNL     1       3.742   1.531  -0.048  0.00  0.00    -0.279 N 
ATOM     17  C   UNL     1       4.700   0.584  -0.074  0.00  0.00    +0.218 C 
ATOM     18  O   UNL     1       4.394  -0.590  -0.079  0.00  0.00    -0.275 OA
ATOM     19  H   UNL     1       3.987   2.469  -0.044  0.00  0.00    +0.155 HD
BRANCH  17  20
ATOM     20  C   UNL     1       6.153   0.983  -0.096  0.00  0.00    +0.097 C 
BRANCH  20  21
ATOM     21  C   UNL     1       7.027  -0.274  -0.122  0.00  0.00    +0.020 C 
BRANCH  21  22
ATOM     22  C   UNL     1       8.502   0.131  -0.144  0.00  0.00    +0.075 C 
BRANCH  22  23
ATOM     23  S   UNL     1       9.537  -1.358  -0.176  0.00  0.00    -0.125 S 
BRANCH  23  24
ATOM     24  C   UNL     1      11.184  -0.731  -0.199  0.00  0.00    +0.008 A 
ATOM     25  C   UNL     1      11.406   0.640  -0.197  0.00  0.00    +0.018 A 
ATOM     26  C   UNL     1      12.698   1.129  -0.210  0.00  0.00    +0.047 A 
ATOM     27  C   UNL     1      13.772   0.253  -0.237  0.00  0.00    +0.120 A 
ATOM     28  C   UNL     1      13.551  -1.117  -0.245  0.00  0.00    +0.047 A 
ATOM     29  C   UNL     1      12.261  -1.609  -0.226  0.00  0.00    +0.018 A 
BRANCH  27  30
ATOM     30  O   UNL     1      15.043   0.736  -0.255  0.00  0.00    -0.495 OA
ATOM     31  C   UNL     1      15.197   2.157  -0.245  0.00  0.00    +0.277 C 
ENDBRANCH  27  30
ENDBRANCH  23  24
ENDBRANCH  22  23
ENDBRANCH  21  22
ENDBRANCH  20  21
ENDBRANCH  17  20
ENDBRANCH   5  16
BRANCH   1  32
ATOM     32  C   UNL     1       1.425   3.448   0.033  0.00  0.00    +0.342 C 
ATOM     33  O   UNL     1       1.503   4.028   1.099  0.00  0.00    -0.245 OA
BRANCH  32  34
ATOM     34  O   UNL     1       1.468   4.147  -1.120  0.00  0.00    -0.461 OA
BRANCH  34  36
ATOM     35  C   UNL     1       1.638   6.204  -2.412  0.00  0.00    +0.048 C 
ATOM     36  C   UNL     1       1.608   5.588  -1.012  0.00  0.00    +0.229 C 
ENDBRANCH  34  36
ENDBRANCH  32  34
ENDBRANCH   1  32
TORSDOF 10
