REMARK  Name = ZINC22390751
REMARK  9 active torsions:
REMARK  status: ('A' for Active; 'I' for Inactive)
REMARK    1  A    between atoms: C_4  and  N_16
REMARK    2  A    between atoms: C_5  and  C_7
REMARK    3  A    between atoms: N_9  and  C_10
REMARK    4  A    between atoms: C_10  and  C_11
REMARK    5  A    between atoms: C_17  and  C_19
REMARK    6  A    between atoms: C_19  and  N_20
REMARK    7  A    between atoms: N_20  and  C_21
REMARK    8  A    between atoms: N_20  and  S_28
REMARK    9  A    between atoms: S_28  and  C_31
REMARK                            x       y       z     vdW  Elec       q    Type
REMARK                         _______ _______ _______ _____ _____    ______ ____
ROOT
ATOM      1  N   UNL     1      -1.136  -0.706  -0.002  0.00  0.00    -0.283 N 
ATOM      2  C   UNL     1      -1.087  -2.051   0.073  0.00  0.00    +0.236 C 
ATOM      3  O   UNL     1      -0.023  -2.611   0.230  0.00  0.00    -0.274 OA
ATOM      4  H   UNL     1      -2.108  -0.193  -0.057  0.00  0.00    +0.155 HD
ENDROOT
BRANCH   1   8
ATOM      5  C   UNL     1       2.397   1.508  -0.030  0.00  0.00    +0.001 A 
ATOM      6  C   UNL     1       2.343   0.270  -0.650  0.00  0.00    +0.002 A 
ATOM      7  C   UNL     1       1.175  -0.465  -0.642  0.00  0.00    +0.024 A 
ATOM      8  C   UNL     1       0.043   0.034  -0.011  0.00  0.00    +0.046 A 
ATOM      9  C   UNL     1       0.094   1.287   0.617  0.00  0.00    +0.058 A 
ATOM     10  C   UNL     1       1.284   2.019   0.601  0.00  0.00    +0.015 A 
BRANCH   9  11
ATOM     11  C   UNL     1      -1.103   1.831   1.286  0.00  0.00    +0.246 C 
ATOM     12  O   UNL     1      -2.161   1.236   1.216  0.00  0.00    -0.270 OA
ATOM     13  N   UNL     1      -1.024   2.987   1.973  0.00  0.00    -0.304 N 
ATOM     14  H   UNL     1      -0.067   3.526   2.036  0.00  0.00    +0.149 HD
BRANCH  13  15
ATOM     15  C   UNL     1      -2.213   3.528   2.637  0.00  0.00    +0.179 C 
BRANCH  15  16
ATOM     16  C   UNL     1      -1.859   4.818   3.330  0.00  0.00    +0.122 A 
ATOM     17  C   UNL     1      -1.927   6.047   2.787  0.00  0.00    +0.046 A 
ATOM     18  C   UNL     1      -1.506   6.959   3.782  0.00  0.00    +0.041 A 
ATOM     19  C   UNL     1      -1.206   6.232   4.874  0.00  0.00    +0.195 A 
ATOM     20  O   UNL     1      -1.427   4.937   4.596  0.00  0.00    -0.466 OA
ENDBRANCH  15  16
ENDBRANCH  13  15
ENDBRANCH   9  11
ENDBRANCH   1   8
BRANCH   2  21
ATOM     21  C   UNL     1      -2.355  -2.858  -0.036  0.00  0.00    +0.227 C 
BRANCH  21  22
ATOM     22  N   UNL     1      -2.037  -4.284   0.076  0.00  0.00    -0.191 N 
BRANCH  22  23
ATOM     23  C   UNL     1      -1.641  -5.003  -1.056  0.00  0.00    +0.087 A 
ATOM     24  C   UNL     1      -0.310  -4.997  -1.453  0.00  0.00    +0.027 A 
ATOM     25  C   UNL     1       0.080  -5.711  -2.570  0.00  0.00    +0.002 A 
ATOM     26  C   UNL     1      -0.855  -6.425  -3.298  0.00  0.00    +0.003 A 
ATOM     27  C   UNL     1      -2.182  -6.430  -2.909  0.00  0.00    +0.040 A 
ATOM     28  C   UNL     1      -2.578  -5.721  -1.790  0.00  0.00    +0.146 A 
ATOM     29  F   UNL     1      -3.875  -5.726  -1.411  0.00  0.00    -0.203 F 
ENDBRANCH  22  23
BRANCH  22  30
ATOM     30  S   UNL     1      -2.148  -5.044   1.543  0.00  0.00    +0.081 S 
ATOM     31  O   UNL     1      -1.289  -6.175   1.480  0.00  0.00    -0.149 OA
ATOM     32  O   UNL     1      -2.009  -4.036   2.534  0.00  0.00    -0.149 OA
BRANCH  30  33
ATOM     33  C   UNL     1      -3.790  -5.667   1.684  0.00  0.00    +0.146 A 
ATOM     34  C   UNL     1      -4.282  -6.873   1.307  0.00  0.00    +0.036 A 
ATOM     35  C   UNL     1      -5.620  -7.148   1.519  0.00  0.00    +0.010 A 
ATOM     36  C   UNL     1      -6.401  -6.203   2.097  0.00  0.00    +0.047 A 
ATOM     37  S   UNL     1      -5.237  -4.877   2.369  0.00  0.00    -0.077 S 
ENDBRANCH  30  33
ENDBRANCH  22  30
ENDBRANCH  21  22
ENDBRANCH   2  21
TORSDOF 9
