REMARK  Name = ZINC59247735
REMARK  6 active torsions:
REMARK  status: ('A' for Active; 'I' for Inactive)
REMARK    1  A    between atoms: C_1  and  C_2
REMARK    2  A    between atoms: C_4  and  C_22
REMARK    3  A    between atoms: N_8  and  N_9
REMARK    4  A    between atoms: C_10  and  C_11
REMARK    5  A    between atoms: C_12  and  C_21
REMARK    6  A    between atoms: N_13  and  C_20
REMARK                            x       y       z     vdW  Elec       q    Type
REMARK                         _______ _______ _______ _____ _____    ______ ____
ROOT
ATOM      1  N   UNL     1       0.045  -1.962   3.550  0.00  0.00    -0.187 NA
ATOM      2  C   UNL     1       0.058  -2.596   4.684  0.00  0.00    +0.140 C 
ENDROOT
BRANCH   2   3
ATOM      3  C   UNL     1       0.054  -1.842   5.949  0.00  0.00    +0.023 A 
ATOM      4  C   UNL     1       0.072  -2.362   7.205  0.00  0.00    +0.025 A 
ATOM      5  N   UNL     1       0.061  -1.351   8.122  0.00  0.00    -0.346 N 
ATOM      6  C   UNL     1       0.036  -0.129   7.484  0.00  0.00    +0.050 A 
ATOM      7  C   UNL     1       0.035  -0.376   6.101  0.00  0.00    +0.009 A 
ATOM      8  C   UNL     1       0.017   0.688   5.202  0.00  0.00    +0.010 A 
ATOM      9  C   UNL     1       0.003   1.981   5.676  0.00  0.00    +0.001 A 
ATOM     10  C   UNL     1       0.007   2.227   7.042  0.00  0.00    +0.002 A 
ATOM     11  C   UNL     1       0.017   1.184   7.942  0.00  0.00    +0.026 A 
ATOM     12  C   UNL     1       0.074  -1.538   9.575  0.00  0.00    +0.149 C 
ATOM     13  C   UNL     1       0.099  -3.832   7.535  0.00  0.00    +0.064 C 
ENDBRANCH   2   3
BRANCH   1  21
ATOM     14  C   UNL     1      -0.018   1.503   0.010  0.00  0.00    +0.066 C 
ATOM     15  C   UNL     1       0.002  -0.004   0.002  0.00  0.00    +0.044 A 
ATOM     16  C   UNL     1       0.006  -0.699  -1.198  0.00  0.00    +0.046 A 
ATOM     17  C   UNL     1       0.025  -2.085  -1.161  0.00  0.00    +0.044 A 
ATOM     18  N   UNL     1       0.039  -2.699   0.010  0.00  0.00    -0.218 NA
ATOM     19  C   UNL     1       0.035  -2.005   1.139  0.00  0.00    +0.235 A 
ATOM     20  N   UNL     1       0.022  -0.679   1.139  0.00  0.00    -0.218 NA
ATOM     21  N   UNL     1       0.049  -2.680   2.347  0.00  0.00    -0.205 N 
ATOM     22  C   UNL     1       0.029  -2.881  -2.440  0.00  0.00    +0.066 C 
ATOM     23  H   UNL     1       0.062  -3.650   2.361  0.00  0.00    +0.177 HD
ENDBRANCH   1  21
TORSDOF 2
