REMARK  Name = ZINC13427036
REMARK  8 active torsions:
REMARK  status: ('A' for Active; 'I' for Inactive)
REMARK    1  A    between atoms: C_1  and  O_2
REMARK    2  A    between atoms: O_2  and  C_3
REMARK    3  A    between atoms: C_6  and  C_9
REMARK    4  A    between atoms: C_9  and  C_11
REMARK    5  A    between atoms: C_13  and  C_25
REMARK    6  A    between atoms: C_19  and  C_20
REMARK    7  A    between atoms: C_19  and  O_24
REMARK    8  A    between atoms: C_28  and  O_31
REMARK                            x       y       z     vdW  Elec       q    Type
REMARK                         _______ _______ _______ _____ _____    ______ ____
ROOT
ATOM      1  C   UNL     1      -0.160   1.826  -0.139  0.00  0.00    +0.144 C 
ATOM      2  C   UNL     1       1.356   2.015  -0.259  0.00  0.00    +0.120 C 
ATOM      3  N   UNL     1       2.012   1.376   0.882  0.00  0.00    -0.292 N 
ATOM      4  C   UNL     1       1.395   1.264   2.068  0.00  0.00    +0.302 C 
ATOM      5  O   UNL     1       1.989   0.733   2.987  0.00  0.00    -0.253 OA
ATOM      6  N   UNL     1       0.149   1.713   2.281  0.00  0.00    -0.264 N 
ATOM      7  C   UNL     1      -0.613   2.372   1.219  0.00  0.00    +0.243 C 
ATOM      8  H   UNL     1       2.911   1.026   0.779  0.00  0.00    +0.151 HD
ATOM      9  H   UNL     1      -0.254   1.599   3.155  0.00  0.00    +0.153 HD
ENDROOT
BRANCH   2  10
ATOM     10  C   UNL     1       1.843   1.386  -1.539  0.00  0.00    -0.026 A 
ATOM     11  C   UNL     1       2.244   0.063  -1.548  0.00  0.00    +0.009 A 
ATOM     12  C   UNL     1       2.685  -0.519  -2.721  0.00  0.00    +0.046 A 
ATOM     13  C   UNL     1       2.735   0.229  -3.888  0.00  0.00    +0.117 A 
ATOM     14  C   UNL     1       2.337   1.558  -3.875  0.00  0.00    +0.046 A 
ATOM     15  C   UNL     1       1.892   2.133  -2.701  0.00  0.00    +0.009 A 
BRANCH  13  16
ATOM     16  O   UNL     1       3.174  -0.339  -5.042  0.00  0.00    -0.507 OA
ATOM     17  H   UNL     1       4.127  -0.258  -5.183  0.00  0.00    +0.292 HD
ENDBRANCH  13  16
ENDBRANCH   2  10
BRANCH   7  18
ATOM     18  C   UNL     1      -0.366   3.881   1.273  0.00  0.00    +0.436 C 
ATOM     19  F   UNL     1      -1.089   4.508   0.253  0.00  0.00    -0.166 F 
ATOM     20  F   UNL     1      -0.780   4.378   2.513  0.00  0.00    -0.166 F 
ATOM     21  F   UNL     1       0.999   4.136   1.101  0.00  0.00    -0.166 F 
ENDBRANCH   7  18
BRANCH   1  22
ATOM     22  C   UNL     1      -0.495   0.360  -0.233  0.00  0.00    +0.173 C 
ATOM     23  O   UNL     1       0.256  -0.466   0.241  0.00  0.00    -0.292 OA
BRANCH  22  27
ATOM     24  C   UNL     1      -4.062  -0.877  -2.154  0.00  0.00    +0.120 A 
ATOM     25  C   UNL     1      -3.202  -1.826  -1.611  0.00  0.00    +0.046 A 
ATOM     26  C   UNL     1      -2.046  -1.431  -0.988  0.00  0.00    +0.015 A 
ATOM     27  C   UNL     1      -1.732  -0.069  -0.899  0.00  0.00    +0.018 A 
ATOM     28  C   UNL     1      -2.604   0.883  -1.443  0.00  0.00    +0.015 A 
ATOM     29  C   UNL     1      -3.755   0.477  -2.068  0.00  0.00    +0.046 A 
BRANCH  24  31
ATOM     30  C   UNL     1      -6.043  -0.246  -3.304  0.00  0.00    +0.277 C 
ATOM     31  O   UNL     1      -5.205  -1.273  -2.768  0.00  0.00    -0.495 OA
ENDBRANCH  24  31
ENDBRANCH  22  27
ENDBRANCH   1  22
BRANCH   7  32
ATOM     32  O   UNL     1      -2.006   2.108   1.398  0.00  0.00    -0.364 OA
ATOM     33  H   UNL     1      -2.362   2.428   2.239  0.00  0.00    +0.212 HD
ENDBRANCH   7  32
TORSDOF 7
