REMARK  Name = ZINC22938699
REMARK  8 active torsions:
REMARK  status: ('A' for Active; 'I' for Inactive)
REMARK    1  A    between atoms: C_4  and  C_7
REMARK    2  A    between atoms: C_7  and  C_8
REMARK    3  A    between atoms: C_7  and  N_14
REMARK    4  A    between atoms: N_17  and  C_20
REMARK    5  A    between atoms: C_20  and  C_21
REMARK    6  A    between atoms: C_21  and  C_23
REMARK    7  A    between atoms: C_23  and  C_36
REMARK    8  A    between atoms: C_26  and  C_29
REMARK                            x       y       z     vdW  Elec       q    Type
REMARK                         _______ _______ _______ _____ _____    ______ ____
ROOT
ATOM      1  N   UNL     1       3.539  -1.965  -0.776  0.00  0.00    -0.289 NA
ATOM      2  C   UNL     1       2.517  -2.811  -0.144  0.00  0.00    +0.100 C 
ATOM      3  C   UNL     1       2.312  -4.073  -0.986  0.00  0.00    +0.100 C 
ATOM      4  N   UNL     1       3.588  -4.793  -1.103  0.00  0.00    -0.293 NA
ATOM      5  C   UNL     1       4.610  -3.947  -1.735  0.00  0.00    +0.100 C 
ATOM      6  C   UNL     1       4.815  -2.685  -0.894  0.00  0.00    +0.100 C 
ENDROOT
BRANCH   1   7
ATOM      7  C   UNL     1       3.711  -0.707  -0.038  0.00  0.00    +0.117 C 
BRANCH   7  11
ATOM      8  C   UNL     1       6.585   1.737  -2.041  0.00  0.00    +0.000 A 
ATOM      9  C   UNL     1       6.640   1.590  -0.668  0.00  0.00    +0.000 A 
ATOM     10  C   UNL     1       5.710   0.799  -0.019  0.00  0.00    +0.005 A 
ATOM     11  C   UNL     1       4.725   0.156  -0.744  0.00  0.00    -0.026 A 
ATOM     12  C   UNL     1       4.669   0.303  -2.118  0.00  0.00    +0.005 A 
ATOM     13  C   UNL     1       5.600   1.093  -2.766  0.00  0.00    +0.000 A 
ENDBRANCH   7  11
BRANCH   7  14
ATOM     14  C   UNL     1       2.393   0.019   0.030  0.00  0.00    -0.026 A 
ATOM     15  C   UNL     1       1.600   0.120  -1.098  0.00  0.00    +0.005 A 
ATOM     16  C   UNL     1       0.391   0.786  -1.036  0.00  0.00    +0.000 A 
ATOM     17  C   UNL     1      -0.026   1.352   0.155  0.00  0.00    +0.000 A 
ATOM     18  C   UNL     1       0.766   1.251   1.283  0.00  0.00    +0.000 A 
ATOM     19  C   UNL     1       1.973   0.581   1.222  0.00  0.00    +0.005 A 
ENDBRANCH   7  14
ENDBRANCH   1   7
BRANCH   4  20
ATOM     20  C   UNL     1       3.416  -6.051  -1.842  0.00  0.00    +0.165 C 
BRANCH  20  21
ATOM     21  C   UNL     1       4.675  -6.873  -1.733  0.00  0.00    +0.189 C 
ATOM     22  O   UNL     1       5.624  -6.451  -1.101  0.00  0.00    -0.290 OA
BRANCH  21  23
ATOM     23  C   UNL     1       4.751  -8.125  -2.361  0.00  0.00    +0.123 C 
ATOM     24  C   UNL     1       5.929  -8.895  -2.259  0.00  0.00    +0.091 C 
ATOM     25  N   UNL     1       6.186 -10.115  -2.799  0.00  0.00    -0.307 N 
ATOM     26  C   UNL     1       7.403 -10.692  -2.577  0.00  0.00    +0.046 C 
ATOM     27  C   UNL     1       8.281  -9.993  -1.821  0.00  0.00    +0.070 C 
ATOM     28  S   UNL     1       7.351  -8.518  -1.447  0.00  0.00    -0.079 S 
ATOM     29  H   UNL     1       5.516 -10.569  -3.333  0.00  0.00    +0.153 HD
BRANCH  26  30
ATOM     30  C   UNL     1       7.746 -12.018  -3.135  0.00  0.00    -0.003 A 
ATOM     31  C   UNL     1       6.819 -12.711  -3.916  0.00  0.00    +0.011 A 
ATOM     32  C   UNL     1       7.145 -13.947  -4.434  0.00  0.00    +0.020 A 
ATOM     33  C   UNL     1       8.389 -14.501  -4.181  0.00  0.00    +0.041 A 
ATOM     34  C   UNL     1       9.312 -13.818  -3.408  0.00  0.00    +0.020 A 
ATOM     35  C   UNL     1       9.000 -12.579  -2.889  0.00  0.00    +0.011 A 
ATOM     36 CL   UNL     1       8.791 -16.057  -4.836  0.00  0.00    -0.084 Cl
ENDBRANCH  26  30
BRANCH  23  37
ATOM     37  C   UNL     1       3.633  -8.622  -3.106  0.00  0.00    +0.105 C 
ATOM     38  N   UNL     1       2.746  -9.017  -3.696  0.00  0.00    -0.191 NA
ENDBRANCH  23  37
ENDBRANCH  21  23
ENDBRANCH  20  21
ENDBRANCH   4  20
TORSDOF 8
