REMARK  Name = ZINC00894753
REMARK  9 active torsions:
REMARK  status: ('A' for Active; 'I' for Inactive)
REMARK    1  A    between atoms: C_1  and  O_2
REMARK    2  A    between atoms: O_2  and  C_3
REMARK    3  A    between atoms: C_6  and  C_9
REMARK    4  A    between atoms: N_12  and  C_26
REMARK    5  A    between atoms: C_17  and  C_18
REMARK    6  A    between atoms: C_21  and  O_24
REMARK    7  A    between atoms: O_24  and  C_25
REMARK    8  A    between atoms: C_26  and  C_27
REMARK    9  A    between atoms: C_27  and  O_28
REMARK                            x       y       z     vdW  Elec       q    Type
REMARK                         _______ _______ _______ _____ _____    ______ ____
ROOT
ATOM      1  C   UNL     1       2.543  -2.583   4.289  0.00  0.00    +0.041 A 
ATOM      2  C   UNL     1       3.717  -3.464   4.223  0.00  0.00    +0.086 A 
ATOM      3  C   UNL     1       4.505  -3.995   3.193  0.00  0.00    +0.111 A 
ATOM      4  N   UNL     1       5.525  -4.784   3.523  0.00  0.00    -0.317 N 
ATOM      5  C   UNL     1       5.787  -5.060   4.787  0.00  0.00    +0.204 A 
ATOM      6  N   UNL     1       5.072  -4.582   5.783  0.00  0.00    -0.202 NA
ATOM      7  C   UNL     1       4.032  -3.783   5.554  0.00  0.00    +0.233 A 
ATOM      8  O   UNL     1       3.143  -3.160   6.346  0.00  0.00    -0.436 OA
ATOM      9  C   UNL     1       2.260  -2.444   5.621  0.00  0.00    +0.146 A 
ATOM     10  N   UNL     1       4.230  -3.708   1.869  0.00  0.00    -0.344 N 
ATOM     11  H   UNL     1       3.483  -3.131   1.643  0.00  0.00    +0.144 HD
ATOM     12  H   UNL     1       4.784  -4.083   1.166  0.00  0.00    +0.144 HD
ENDROOT
BRANCH   1  16
ATOM     13  C   UNL     1       0.471  -0.819   1.024  0.00  0.00    +0.120 A 
ATOM     14  C   UNL     1       1.188  -0.018   1.903  0.00  0.00    +0.046 A 
ATOM     15  C   UNL     1       1.862  -0.587   2.963  0.00  0.00    +0.012 A 
ATOM     16  C   UNL     1       1.821  -1.969   3.152  0.00  0.00    -0.013 A 
ATOM     17  C   UNL     1       1.099  -2.770   2.268  0.00  0.00    +0.012 A 
ATOM     18  C   UNL     1       0.424  -2.193   1.212  0.00  0.00    +0.046 A 
BRANCH  13  20
ATOM     19  C   UNL     1      -0.101   1.165  -0.155  0.00  0.00    +0.277 C 
ATOM     20  O   UNL     1      -0.192  -0.255  -0.020  0.00  0.00    -0.495 OA
ENDBRANCH  13  20
ENDBRANCH   1  16
BRANCH   9  21
ATOM     21  C   UNL     1       1.157  -1.638   6.176  0.00  0.00    +0.018 A 
ATOM     22  C   UNL     1      -0.130  -1.750   5.644  0.00  0.00    +0.015 A 
ATOM     23  C   UNL     1      -1.158  -0.995   6.167  0.00  0.00    +0.046 A 
ATOM     24  C   UNL     1      -0.916  -0.125   7.221  0.00  0.00    +0.120 A 
ATOM     25  C   UNL     1       0.362  -0.010   7.754  0.00  0.00    +0.046 A 
ATOM     26  C   UNL     1       1.394  -0.765   7.241  0.00  0.00    +0.015 A 
BRANCH  24  27
ATOM     27  O   UNL     1      -1.932   0.618   7.734  0.00  0.00    -0.495 OA
ATOM     28  C   UNL     1      -1.614   1.493   8.818  0.00  0.00    +0.277 C 
ENDBRANCH  24  27
ENDBRANCH   9  21
BRANCH   4  29
ATOM     29  C   UNL     1       6.367  -5.355   2.469  0.00  0.00    +0.152 C 
BRANCH  29  30
ATOM     30  C   UNL     1       7.455  -4.350   2.085  0.00  0.00    +0.177 C 
BRANCH  30  31
ATOM     31  O   UNL     1       8.276  -4.907   1.056  0.00  0.00    -0.393 OA
ATOM     32  H   UNL     1       8.989  -4.323   0.763  0.00  0.00    +0.209 HD
ENDBRANCH  30  31
ENDBRANCH  29  30
ENDBRANCH   4  29
TORSDOF 7
