REMARK  Name = ZINC63478648
REMARK  7 active torsions:
REMARK  status: ('A' for Active; 'I' for Inactive)
REMARK    1  A    between atoms: C_1  and  C_2
REMARK    2  A    between atoms: C_13  and  C_16
REMARK    3  A    between atoms: C_16  and  C_17
REMARK    4  A    between atoms: N_28  and  C_31
REMARK    5  A    between atoms: C_31  and  C_32
REMARK    6  A    between atoms: C_31  and  C_33
REMARK    7  A    between atoms: C_31  and  C_34
REMARK                            x       y       z     vdW  Elec       q    Type
REMARK                         _______ _______ _______ _____ _____    ______ ____
ROOT
ATOM      1  C   UNL     1      -0.018   1.503   0.010  0.00  0.00    +0.044 C 
ATOM      2  C   UNL     1       0.002  -0.004   0.002  0.00  0.00    -0.050 A 
ATOM      3  C   UNL     1       0.006  -0.691  -1.199  0.00  0.00    +0.005 A 
ATOM      4  C   UNL     1       0.025  -2.070  -1.212  0.00  0.00    +0.024 A 
ATOM      5  C   UNL     1       0.042  -2.782  -0.015  0.00  0.00    +0.039 A 
ATOM      6  C   UNL     1       0.035  -2.081   1.187  0.00  0.00    +0.004 A 
ATOM      7  C   UNL     1       0.023  -0.704   1.195  0.00  0.00    +0.011 A 
ATOM      8  C   UNL     1       0.049  -3.122   2.270  0.00  0.00    +0.136 C 
ATOM      9  C   UNL     1       1.267  -2.968   3.188  0.00  0.00    +0.122 C 
ATOM     10  C   UNL     1       0.745  -3.357   4.599  0.00  0.00    +0.107 C 
ATOM     11  C   UNL     1      -0.743  -3.709   4.388  0.00  0.00    +0.072 C 
ATOM     12  N   UNL     1      -1.134  -3.008   3.143  0.00  0.00    -0.295 NA
ATOM     13  C   UNL     1       1.525  -4.610   4.926  0.00  0.00    +0.228 C 
ATOM     14  O   UNL     1       1.424  -5.251   5.950  0.00  0.00    -0.275 OA
ATOM     15  N   UNL     1       2.342  -4.903   3.908  0.00  0.00    -0.236 N 
ATOM     16  C   UNL     1       2.286  -4.038   2.870  0.00  0.00    +0.229 C 
ATOM     17  O   UNL     1       2.938  -4.104   1.850  0.00  0.00    -0.275 OA
ATOM     18  C   UNL     1       0.069  -4.440   1.545  0.00  0.00    +0.243 C 
ATOM     19  O   UNL     1       0.087  -5.543   2.048  0.00  0.00    -0.273 OA
ATOM     20  N   UNL     1       0.064  -4.157   0.228  0.00  0.00    -0.283 N 
ATOM     21  H   UNL     1      -1.349  -2.042   3.337  0.00  0.00    +0.124 HD
ATOM     22  H   UNL     1       0.074  -4.830  -0.470  0.00  0.00    +0.155 HD
ENDROOT
BRANCH  15  23
ATOM     23  C   UNL     1       3.234  -6.066   3.917  0.00  0.00    +0.036 C 
ATOM     24  C   UNL     1       3.061  -6.831   5.231  0.00  0.00    +0.031 C 
ATOM     25  C   UNL     1       2.888  -6.983   2.743  0.00  0.00    +0.031 C 
ATOM     26  C   UNL     1       4.684  -5.597   3.788  0.00  0.00    +0.031 C 
ENDBRANCH  15  23
BRANCH  11  27
ATOM     27  C   UNL     1      -1.579  -3.229   5.576  0.00  0.00    +0.052 C 
BRANCH  27  28
ATOM     28  C   UNL     1      -3.003  -3.690   5.407  0.00  0.00    -0.040 C 
ATOM     29  C   UNL     1      -3.566  -4.802   5.932  0.00  0.00    -0.001 A 
ATOM     30  C   UNL     1      -3.039  -5.876   6.783  0.00  0.00    +0.010 A 
ATOM     31  C   UNL     1      -3.862  -6.882   7.155  0.00  0.00    +0.001 A 
ATOM     32  C   UNL     1      -5.203  -6.926   6.748  0.00  0.00    +0.002 A 
ATOM     33  C   UNL     1      -5.759  -5.976   5.967  0.00  0.00    +0.026 A 
ATOM     34  C   UNL     1      -4.985  -4.871   5.517  0.00  0.00    +0.043 A 
ATOM     35  N   UNL     1      -5.288  -3.841   4.765  0.00  0.00    -0.380 N 
ATOM     36  C   UNL     1      -4.096  -2.998   4.623  0.00  0.00    +0.144 C 
ATOM     37  H   UNL     1      -6.157  -3.664   4.372  0.00  0.00    +0.160 HD
ENDBRANCH  27  28
ENDBRANCH  11  27
TORSDOF 3
