REMARK  Name = ZINC24228421
REMARK  11 active torsions:
REMARK  status: ('A' for Active; 'I' for Inactive)
REMARK    1  A    between atoms: C_1  and  C_2
REMARK    2  A    between atoms: C_2  and  C_4
REMARK    3  A    between atoms: C_2  and  S_13
REMARK    4  A    between atoms: C_8  and  N_10
REMARK    5  A    between atoms: S_13  and  C_14
REMARK    6  A    between atoms: C_17  and  C_26
REMARK    7  A    between atoms: N_18  and  C_19
REMARK    8  A    between atoms: C_26  and  C_28
REMARK    9  A    between atoms: C_26  and  N_29
REMARK   10  A    between atoms: N_29  and  C_30
REMARK   11  A    between atoms: N_29  and  C_31
REMARK                            x       y       z     vdW  Elec       q    Type
REMARK                         _______ _______ _______ _____ _____    ______ ____
ROOT
ATOM      1  C   UNL     1      -0.669   7.667   1.353  0.00  0.00    +0.197 A 
ATOM      2  N   UNL     1      -0.030   8.274   0.380  0.00  0.00    -0.122 NA
ATOM      3  N   UNL     1      -0.040   9.544   0.576  0.00  0.00    -0.135 NA
ATOM      4  C   UNL     1      -0.680   9.824   1.676  0.00  0.00    +0.125 A 
ATOM      5  N   UNL     1      -1.109   8.638   2.210  0.00  0.00    -0.275 N 
ENDROOT
BRANCH   5   6
ATOM      6  C   UNL     1      -1.845   8.457   3.390  0.00  0.00    +0.050 A 
ATOM      7  C   UNL     1      -3.138   8.953   3.487  0.00  0.00    +0.028 A 
ATOM      8  C   UNL     1      -3.861   8.769   4.649  0.00  0.00    +0.022 A 
ATOM      9  C   UNL     1      -3.295   8.101   5.720  0.00  0.00    +0.041 A 
ATOM     10  C   UNL     1      -2.004   7.610   5.628  0.00  0.00    +0.022 A 
ATOM     11  C   UNL     1      -1.278   7.787   4.466  0.00  0.00    +0.028 A 
ATOM     12 CL   UNL     1      -4.205   7.876   7.181  0.00  0.00    -0.084 Cl
ENDBRANCH   5   6
BRANCH   4  13
ATOM     13  C   UNL     1      -0.910  11.198   2.251  0.00  0.00    -0.003 C 
ATOM     14  C   UNL     1      -1.991  11.915   1.441  0.00  0.00    -0.005 C 
BRANCH  13  15
ATOM     15  N   UNL     1       0.339  11.969   2.191  0.00  0.00    +0.382 N 
ATOM     16  C   UNL     1       0.729  12.233   0.800  0.00  0.00    -0.096 C 
ATOM     17  C   UNL     1       0.222  13.220   2.952  0.00  0.00    -0.096 C 
ATOM     18  H   UNL     1       1.132  11.364   2.655  0.00  0.00    -0.082 HD
ENDBRANCH  13  15
ENDBRANCH   4  13
BRANCH   1  19
ATOM     19  S   UNL     1      -0.919   5.931   1.519  0.00  0.00    -0.078 S 
BRANCH  19  21
ATOM     20  C   UNL     1      -0.810   5.854  -1.209  0.00  0.00    +0.024 C 
ATOM     21  C   UNL     1      -0.070   5.347   0.031  0.00  0.00    +0.081 C 
BRANCH  21  22
ATOM     22  C   UNL     1      -0.050   3.840   0.022  0.00  0.00    -0.032 A 
ATOM     23  C   UNL     1      -1.238   3.133   0.029  0.00  0.00    +0.005 A 
ATOM     24  C   UNL     1      -1.219   1.751   0.017  0.00  0.00    +0.003 A 
ATOM     25  C   UNL     1      -0.013   1.076   0.008  0.00  0.00    +0.033 A 
ATOM     26  C   UNL     1       1.175   1.783   0.000  0.00  0.00    +0.126 A 
ATOM     27  C   UNL     1       1.156   3.166   0.008  0.00  0.00    +0.037 A 
BRANCH  26  28
ATOM     28  N   UNL     1       2.467   1.060  -0.015  0.00  0.00    +0.056 N 
ATOM     29  O   UNL     1       2.483  -0.157  -0.022  0.00  0.00    -0.126 OA
ATOM     30  O   UNL     1       3.513   1.684  -0.022  0.00  0.00    -0.126 OA
ENDBRANCH  26  28
ENDBRANCH  21  22
ENDBRANCH  19  21
ENDBRANCH   1  19
TORSDOF 7
