REMARK  Name = ZINC10697424
REMARK  9 active torsions:
REMARK  status: ('A' for Active; 'I' for Inactive)
REMARK    1  A    between atoms: C_4  and  N_7
REMARK    2  A    between atoms: N_12  and  C_32
REMARK    3  A    between atoms: C_14  and  C_17
REMARK    4  A    between atoms: N_19  and  C_20
REMARK    5  A    between atoms: C_20  and  C_21
REMARK    6  A    between atoms: C_21  and  C_22
REMARK    7  A    between atoms: C_25  and  S_28
REMARK    8  A    between atoms: S_28  and  N_31
REMARK    9  A    between atoms: C_32  and  C_33
REMARK                            x       y       z     vdW  Elec       q    Type
REMARK                         _______ _______ _______ _____ _____    ______ ____
ROOT
ATOM      1  N   UNL     1      -2.711   1.884   7.516  0.00  0.00    -0.196 N 
ATOM      2  C   UNL     1      -2.078   0.982   6.734  0.00  0.00    +0.283 A 
ATOM      3  O   UNL     1      -1.949  -0.212   6.949  0.00  0.00    -0.265 OA
ATOM      4  C   UNL     1      -1.582   1.724   5.579  0.00  0.00    +0.085 A 
ATOM      5  C   UNL     1      -0.876   1.424   4.442  0.00  0.00    +0.101 A 
ATOM      6  N   UNL     1      -0.573   2.384   3.547  0.00  0.00    -0.349 N 
ATOM      7  C   UNL     1      -0.926   3.684   3.697  0.00  0.00    +0.101 A 
ATOM      8  C   UNL     1      -1.635   4.117   4.779  0.00  0.00    +0.081 A 
ATOM      9  C   UNL     1      -2.006   3.124   5.806  0.00  0.00    +0.112 A 
ATOM     10  N   UNL     1      -2.652   3.155   6.937  0.00  0.00    -0.162 NA
ENDROOT
BRANCH   1  14
ATOM     11  C   UNL     1      -4.573   1.003  11.137  0.00  0.00    +0.000 A 
ATOM     12  C   UNL     1      -3.930   2.216  10.969  0.00  0.00    +0.002 A 
ATOM     13  C   UNL     1      -3.312   2.511   9.770  0.00  0.00    +0.028 A 
ATOM     14  C   UNL     1      -3.336   1.588   8.732  0.00  0.00    +0.069 A 
ATOM     15  C   UNL     1      -3.987   0.373   8.903  0.00  0.00    +0.028 A 
ATOM     16  C   UNL     1      -4.598   0.082  10.107  0.00  0.00    +0.002 A 
ENDBRANCH   1  14
BRANCH   8  17
ATOM     17  C   UNL     1      -2.014   5.532   4.920  0.00  0.00    +0.248 C 
ATOM     18  O   UNL     1      -2.642   5.899   5.895  0.00  0.00    -0.270 OA
ATOM     19  N   UNL     1      -1.665   6.421   3.969  0.00  0.00    -0.311 N 
ATOM     20  H   UNL     1      -1.164   6.128   3.192  0.00  0.00    +0.149 HD
BRANCH  19  21
ATOM     21  C   UNL     1      -2.041   7.830   4.110  0.00  0.00    +0.109 C 
BRANCH  21  22
ATOM     22  C   UNL     1      -1.527   8.618   2.904  0.00  0.00    +0.054 C 
BRANCH  22  23
ATOM     23  C   UNL     1      -1.914  10.067   3.049  0.00  0.00    -0.046 A 
ATOM     24  C   UNL     1      -3.115  10.517   2.531  0.00  0.00    +0.005 A 
ATOM     25  C   UNL     1      -3.472  11.845   2.668  0.00  0.00    +0.029 A 
ATOM     26  C   UNL     1      -2.625  12.726   3.314  0.00  0.00    +0.105 A 
ATOM     27  C   UNL     1      -1.422  12.277   3.827  0.00  0.00    +0.029 A 
ATOM     28  C   UNL     1      -1.067  10.948   3.694  0.00  0.00    +0.005 A 
BRANCH  26  29
ATOM     29  S   UNL     1      -3.079  14.420   3.484  0.00  0.00    +0.056 S 
ATOM     30  O   UNL     1      -4.496  14.471   3.399  0.00  0.00    -0.153 OA
ATOM     31  O   UNL     1      -2.364  14.921   4.605  0.00  0.00    -0.153 OA
BRANCH  29  32
ATOM     32  N   UNL     1      -2.496  15.219   2.156  0.00  0.00    -0.204 NA
ATOM     33  H   UNL     1      -2.007  14.733   1.473  0.00  0.00    +0.144 HD
ATOM     34  H   UNL     1      -2.643  16.173   2.060  0.00  0.00    +0.144 HD
ENDBRANCH  29  32
ENDBRANCH  26  29
ENDBRANCH  22  23
ENDBRANCH  21  22
ENDBRANCH  19  21
ENDBRANCH   8  17
BRANCH   6  35
ATOM     35  C   UNL     1       0.184   2.003   2.352  0.00  0.00    +0.152 C 
BRANCH  35  36
ATOM     36  C   UNL     1      -0.788   1.610   1.237  0.00  0.00    +0.138 C 
ATOM     37  C   UNL     1      -0.013   1.086   0.008  0.00  0.00    +0.035 C 
ATOM     38  C   UNL     1      -0.811   1.623  -1.201  0.00  0.00    +0.031 C 
ATOM     39  C   UNL     1      -1.978   2.408  -0.561  0.00  0.00    +0.160 C 
ATOM     40  O   UNL     1      -1.501   2.772   0.753  0.00  0.00    -0.375 OA
ENDBRANCH  35  36
ENDBRANCH   6  35
TORSDOF 9
