REMARK  Name = ZINC16043828
REMARK  6 active torsions:
REMARK  status: ('A' for Active; 'I' for Inactive)
REMARK    1  A    between atoms: N_9  and  S_11
REMARK    2  A    between atoms: S_11  and  C_14
REMARK    3  A    between atoms: C_17  and  C_20
REMARK    4  A    between atoms: N_22  and  N_23
REMARK    5  A    between atoms: C_24  and  C_26
REMARK    6  A    between atoms: C_26  and  C_27
REMARK                            x       y       z     vdW  Elec       q    Type
REMARK                         _______ _______ _______ _____ _____    ______ ____
ROOT
ATOM      1  C   UNL     1     -10.256   2.645   6.384  0.00  0.00    +0.106 A 
ATOM      2  C   UNL     1     -10.929   1.846   5.477  0.00  0.00    +0.029 A 
ATOM      3  C   UNL     1     -10.290   1.398   4.340  0.00  0.00    +0.015 A 
ATOM      4  C   UNL     1      -8.960   1.753   4.105  0.00  0.00    +0.038 A 
ATOM      5  C   UNL     1      -8.285   2.555   5.027  0.00  0.00    +0.015 A 
ATOM      6  C   UNL     1      -8.938   3.000   6.158  0.00  0.00    +0.029 A 
ENDROOT
BRANCH   4   7
ATOM      7  C   UNL     1      -8.268   1.276   2.889  0.00  0.00    +0.260 C 
ATOM      8  O   UNL     1      -8.857   0.574   2.091  0.00  0.00    -0.269 OA
ATOM      9  N   UNL     1      -6.984   1.621   2.665  0.00  0.00    -0.230 N 
ATOM     10  H   UNL     1      -6.515   2.181   3.302  0.00  0.00    +0.173 HD
BRANCH   9  11
ATOM     11  N   UNL     1      -6.329   1.169   1.513  0.00  0.00    -0.234 N 
ATOM     12  C   UNL     1      -5.045   1.513   1.289  0.00  0.00    +0.230 C 
ATOM     13  O   UNL     1      -4.457   2.214   2.085  0.00  0.00    -0.274 OA
ATOM     14  H   UNL     1      -6.799   0.608   0.875  0.00  0.00    +0.173 HD
BRANCH  12  15
ATOM     15  C   UNL     1      -4.340   1.027   0.049  0.00  0.00    +0.104 C 
BRANCH  15  16
ATOM     16  C   UNL     1      -2.904   1.556   0.038  0.00  0.00    -0.020 C 
ATOM     17  C   UNL     1      -2.188   1.063  -1.221  0.00  0.00    +0.011 C 
ATOM     18  C   UNL     1      -0.753   1.593  -1.232  0.00  0.00    -0.010 C 
ATOM     19  C   UNL     1      -0.013   1.086   0.008  0.00  0.00    +0.007 C 
ATOM     20  C   UNL     1      -0.729   1.579   1.267  0.00  0.00    -0.010 C 
ATOM     21  C   UNL     1      -2.164   1.050   1.278  0.00  0.00    +0.011 C 
ATOM     22  C   UNL     1      -0.750   3.109   1.275  0.00  0.00    +0.007 C 
ATOM     23  C   UNL     1      -1.490   3.616   0.036  0.00  0.00    -0.010 C 
ATOM     24  C   UNL     1      -0.773   3.123  -1.223  0.00  0.00    +0.007 C 
ATOM     25  C   UNL     1      -2.925   3.086   0.047  0.00  0.00    +0.011 C 
ENDBRANCH  15  16
ENDBRANCH  12  15
ENDBRANCH   9  11
ENDBRANCH   4   7
BRANCH   1  26
ATOM     26  S   UNL     1     -11.080   3.212   7.835  0.00  0.00    +0.061 S 
ATOM     27  O   UNL     1     -10.405   4.391   8.251  0.00  0.00    -0.153 OA
ATOM     28  O   UNL     1     -12.471   3.193   7.545  0.00  0.00    -0.153 OA
BRANCH  26  37
ATOM     29  C   UNL     1      -7.805  -1.658  10.404  0.00  0.00    +0.000 A 
ATOM     30  C   UNL     1      -7.187  -0.506  10.856  0.00  0.00    +0.000 A 
ATOM     31  C   UNL     1      -7.807   0.714  10.685  0.00  0.00    +0.005 A 
ATOM     32  C   UNL     1      -9.045   0.795  10.062  0.00  0.00    -0.028 A 
ATOM     33  C   UNL     1      -9.658  -0.349   9.604  0.00  0.00    -0.042 A 
ATOM     34  C   UNL     1      -9.033  -1.578   9.782  0.00  0.00    +0.004 A 
ATOM     35  C   UNL     1     -10.991  -0.339   8.904  0.00  0.00    +0.052 C 
ATOM     36  C   UNL     1     -11.757   0.954   9.210  0.00  0.00    +0.114 C 
ATOM     37  N   UNL     1     -10.827   2.079   9.016  0.00  0.00    -0.172 NA
ATOM     38  C   UNL     1      -9.671   2.160   9.915  0.00  0.00    +0.144 C 
ENDBRANCH  26  37
ENDBRANCH   1  26
TORSDOF 6
