REMARK  Name = ZINC09836986
REMARK  6 active torsions:
REMARK  status: ('A' for Active; 'I' for Inactive)
REMARK    1  A    between atoms: C_5  and  C_7
REMARK    2  A    between atoms: C_10  and  S_13
REMARK    3  A    between atoms: S_13  and  C_14
REMARK    4  A    between atoms: C_14  and  C_15
REMARK    5  A    between atoms: N_17  and  C_18
REMARK    6  A    between atoms: C_19  and  C_27
REMARK                            x       y       z     vdW  Elec       q    Type
REMARK                         _______ _______ _______ _____ _____    ______ ____
ROOT
ATOM      1  C   UNL     1       2.220  -8.331  -0.059  0.00  0.00    +0.228 C 
ATOM      2  O   UNL     1       3.427  -8.448  -0.072  0.00  0.00    -0.275 OA
ATOM      3  N   UNL     1       1.436  -9.428  -0.056  0.00  0.00    -0.279 N 
ATOM      4  H   UNL     1       0.471  -9.334  -0.046  0.00  0.00    +0.155 HD
ENDROOT
BRANCH   3   5
ATOM      5  C   UNL     1       2.010 -10.690  -0.068  0.00  0.00    +0.084 A 
ATOM      6  C   UNL     1       1.378 -11.925  -0.061  0.00  0.00    +0.068 A 
ATOM      7  C   UNL     1       2.218 -13.110  -0.080  0.00  0.00    -0.023 A 
ATOM      8  C   UNL     1       3.548 -12.872  -0.093  0.00  0.00    -0.004 A 
ATOM      9  S   UNL     1       3.692 -11.108  -0.087  0.00  0.00    -0.077 S 
ATOM     10  C   UNL     1       4.647 -13.889  -0.107  0.00  0.00    +0.043 C 
ATOM     11  C   UNL     1       4.050 -15.252   0.272  0.00  0.00    +0.005 C 
ATOM     12  C   UNL     1       2.780 -15.481  -0.553  0.00  0.00    +0.005 C 
ATOM     13  C   UNL     1       1.676 -14.534  -0.081  0.00  0.00    +0.037 C 
BRANCH   6  14
ATOM     14  C   UNL     1      -0.085 -12.030  -0.040  0.00  0.00    +0.244 C 
ATOM     15  O   UNL     1      -0.707 -12.072  -1.085  0.00  0.00    -0.270 OA
ATOM     16  N   UNL     1      -0.740 -12.081   1.137  0.00  0.00    -0.325 N 
ATOM     17  H   UNL     1      -0.244 -12.047   1.970  0.00  0.00    +0.145 HD
ATOM     18  H   UNL     1      -1.707 -12.150   1.151  0.00  0.00    +0.145 HD
ENDBRANCH   6  14
ENDBRANCH   3   5
BRANCH   1  19
ATOM     19  C   UNL     1       1.596  -6.959  -0.046  0.00  0.00    +0.173 C 
BRANCH  19  20
ATOM     20  S   UNL     1       2.899  -5.704  -0.054  0.00  0.00    -0.077 S 
BRANCH  20  24
ATOM     21  C   UNL     1       1.253  -2.160  -0.021  0.00  0.00    +0.165 A 
ATOM     22  N   UNL     1       2.376  -2.956  -0.036  0.00  0.00    -0.316 N 
ATOM     23  H   UNL     1       3.301  -2.664  -0.044  0.00  0.00    +0.169 HD
ATOM     24  C   UNL     1       1.915  -4.242  -0.037  0.00  0.00    +0.190 A 
ATOM     25  N   UNL     1       0.603  -4.186  -0.024  0.00  0.00    -0.122 NA
ATOM     26  N   UNL     1       0.213  -2.961  -0.009  0.00  0.00    -0.128 NA
BRANCH  21  31
ATOM     27  C   UNL     1       2.383   1.422  -0.013  0.00  0.00    +0.001 A 
ATOM     28  C   UNL     1       1.170   2.088   0.002  0.00  0.00    +0.003 A 
ATOM     29  C   UNL     1      -0.017   1.378   0.010  0.00  0.00    +0.039 A 
ATOM     30  C   UNL     1       0.002  -0.004   0.002  0.00  0.00    +0.134 A 
ATOM     31  C   UNL     1       1.224  -0.682  -0.013  0.00  0.00    +0.054 A 
ATOM     32  C   UNL     1       2.417   0.043  -0.021  0.00  0.00    +0.014 A 
ATOM     33  F   UNL     1      -1.157  -0.697   0.009  0.00  0.00    -0.205 F 
ENDBRANCH  21  31
ENDBRANCH  20  24
ENDBRANCH  19  20
ENDBRANCH   1  19
TORSDOF 6
