REMARK  Name = ZINC08825214
REMARK  9 active torsions:
REMARK  status: ('A' for Active; 'I' for Inactive)
REMARK    1  A    between atoms: C_1  and  C_2
REMARK    2  A    between atoms: C_2  and  O_3
REMARK    3  A    between atoms: O_3  and  C_4
REMARK    4  A    between atoms: C_4  and  C_6
REMARK    5  A    between atoms: N_8  and  C_24
REMARK    6  A    between atoms: C_12  and  C_13
REMARK    7  A    between atoms: C_15  and  N_20
REMARK    8  A    between atoms: C_24  and  C_25
REMARK    9  A    between atoms: C_31  and  C_34
REMARK                            x       y       z     vdW  Elec       q    Type
REMARK                         _______ _______ _______ _____ _____    ______ ____
ROOT
ATOM      1  C   UNL     1      -1.437   0.525  -3.621  0.00  0.00    +0.124 C 
ATOM      2  C   UNL     1      -0.778   0.424  -4.827  0.00  0.00    +0.091 A 
ATOM      3  N   UNL     1      -1.234   0.759  -6.082  0.00  0.00    -0.293 N 
ATOM      4  C   UNL     1      -0.465   0.597  -7.145  0.00  0.00    +0.266 A 
ATOM      5  O   UNL     1      -0.853   0.888  -8.261  0.00  0.00    -0.266 OA
ATOM      6  C   UNL     1       0.886   0.048  -6.915  0.00  0.00    +0.079 A 
ATOM      7  C   UNL     1       1.871  -0.218  -7.809  0.00  0.00    +0.030 C 
ATOM      8  S   UNL     1       0.878  -0.165  -5.141  0.00  0.00    -0.066 S 
ENDROOT
BRANCH   7   9
ATOM      9  C   UNL     1       3.088  -0.918  -7.375  0.00  0.00    -0.003 A 
ATOM     10  C   UNL     1       3.094  -1.643  -6.178  0.00  0.00    +0.042 A 
ATOM     11  C   UNL     1       4.238  -2.301  -5.780  0.00  0.00    +0.127 A 
ATOM     12  C   UNL     1       5.383  -2.240  -6.557  0.00  0.00    +0.034 A 
ATOM     13  C   UNL     1       5.388  -1.521  -7.739  0.00  0.00    +0.023 A 
ATOM     14  C   UNL     1       4.250  -0.860  -8.155  0.00  0.00    +0.048 A 
ATOM     15 CL   UNL     1       4.259   0.041  -9.639  0.00  0.00    -0.083 Cl
BRANCH  11  16
ATOM     16  N   UNL     1       4.244  -3.072  -4.517  0.00  0.00    +0.056 N 
ATOM     17  O   UNL     1       5.255  -3.651  -4.161  0.00  0.00    -0.126 OA
ATOM     18  O   UNL     1       3.238  -3.128  -3.832  0.00  0.00    -0.126 OA
ENDBRANCH  11  16
ENDBRANCH   7   9
BRANCH   1  19
ATOM     19  C   UNL     1      -0.799   0.130  -2.439  0.00  0.00    +0.334 C 
ATOM     20  O   UNL     1       0.339  -0.303  -2.477  0.00  0.00    -0.246 OA
BRANCH  19  21
ATOM     21  O   UNL     1      -1.445   0.229  -1.256  0.00  0.00    -0.462 OA
BRANCH  21  23
ATOM     22  C   UNL     1      -1.620  -0.008   1.142  0.00  0.00    +0.048 C 
ATOM     23  C   UNL     1      -0.734  -0.193  -0.091  0.00  0.00    +0.229 C 
ENDBRANCH  21  23
ENDBRANCH  19  21
ENDBRANCH   1  19
BRANCH   3  24
ATOM     24  C   UNL     1      -2.587   1.299  -6.241  0.00  0.00    +0.221 C 
BRANCH  24  25
ATOM     25  C   UNL     1      -2.544   2.801  -6.129  0.00  0.00    +0.235 C 
ATOM     26  O   UNL     1      -1.488   3.365  -5.935  0.00  0.00    -0.274 OA
ATOM     27  N   UNL     1      -3.679   3.518  -6.244  0.00  0.00    -0.300 N 
ATOM     28  C   UNL     1      -4.966   2.850  -6.479  0.00  0.00    +0.108 C 
ATOM     29  C   UNL     1      -5.626   3.471  -7.714  0.00  0.00    +0.019 C 
ATOM     30  C   UNL     1      -5.731   4.986  -7.524  0.00  0.00    +0.006 C 
ATOM     31  C   UNL     1      -4.328   5.581  -7.375  0.00  0.00    +0.003 C 
ATOM     32  C   UNL     1      -3.655   4.983  -6.131  0.00  0.00    +0.111 C 
ATOM     33  C   UNL     1      -4.432   7.099  -7.218  0.00  0.00    +0.009 C 
ENDBRANCH  24  25
ENDBRANCH   3  24
TORSDOF 7
