REMARK  Name = ZINC40570659
REMARK  5 active torsions:
REMARK  status: ('A' for Active; 'I' for Inactive)
REMARK    1  A    between atoms: C_1  and  C_2
REMARK    2  A    between atoms: C_3  and  C_12
REMARK    3  A    between atoms: N_16  and  C_20
REMARK    4  A    between atoms: C_20  and  C_21
REMARK    5  A    between atoms: C_21  and  S_22
REMARK                            x       y       z     vdW  Elec       q    Type
REMARK                         _______ _______ _______ _____ _____    ______ ____
ROOT
ATOM      1  C   UNL     1      -0.062  -0.127  -2.433  0.00  0.00    +0.030 C 
ATOM      2  C   UNL     1      -0.901   0.910  -2.705  0.00  0.00    +0.077 C 
ATOM      3  C   UNL     1      -1.182   1.547  -3.952  0.00  0.00    +0.258 C 
ATOM      4  O   UNL     1      -0.641   1.180  -4.979  0.00  0.00    -0.269 OA
ATOM      5  N   UNL     1      -2.048   2.546  -3.957  0.00  0.00    -0.254 N 
ATOM      6  C   UNL     1      -2.648   2.952  -2.816  0.00  0.00    +0.121 C 
ATOM      7  S   UNL     1      -3.788   4.210  -2.593  0.00  0.00    -0.027 S 
ATOM      8  S   UNL     1      -1.957   1.838  -1.602  0.00  0.00    -0.061 S 
ENDROOT
BRANCH   1  11
ATOM      9  C   UNL     1       2.464  -0.379  -0.633  0.00  0.00    +0.064 C 
ATOM     10  C   UNL     1       1.069  -0.827  -0.280  0.00  0.00    +0.021 A 
ATOM     11  C   UNL     1      -0.026  -0.705  -1.089  0.00  0.00    +0.004 A 
ATOM     12  C   UNL     1      -1.164  -1.270  -0.340  0.00  0.00    +0.007 A 
ATOM     13  C   UNL     1      -2.518  -1.434  -0.618  0.00  0.00    +0.010 A 
ATOM     14  C   UNL     1      -3.342  -2.016   0.320  0.00  0.00    +0.001 A 
ATOM     15  C   UNL     1      -2.828  -2.437   1.538  0.00  0.00    +0.002 A 
ATOM     16  C   UNL     1      -1.490  -2.281   1.827  0.00  0.00    +0.026 A 
ATOM     17  C   UNL     1      -0.642  -1.696   0.892  0.00  0.00    +0.047 A 
ATOM     18  N   UNL     1       0.710  -1.417   0.889  0.00  0.00    -0.358 N 
ATOM     19  H   UNL     1       1.317  -1.613   1.620  0.00  0.00    +0.166 HD
ENDBRANCH   1  11
BRANCH   5  20
ATOM     20  C   UNL     1      -2.360   3.223  -5.218  0.00  0.00    +0.140 C 
BRANCH  20  21
ATOM     21  C   UNL     1      -3.545   2.526  -5.891  0.00  0.00    +0.220 C 
BRANCH  21  22
ATOM     22  S   UNL     1      -3.932   3.365  -7.452  0.00  0.00    +0.112 S 
ATOM     23  O   UNL     1      -5.059   2.689  -8.076  0.00  0.00    -0.145 OA
ATOM     24  O   UNL     1      -4.271   4.750  -7.164  0.00  0.00    -0.145 OA
ATOM     25  O   UNL     1      -2.764   3.301  -8.316  0.00  0.00    -0.048 OA
ENDBRANCH  21  22
ENDBRANCH  20  21
ENDBRANCH   5  20
TORSDOF 4
