REMARK  Name = ZINC39354613
REMARK  8 active torsions:
REMARK  status: ('A' for Active; 'I' for Inactive)
REMARK    1  A    between atoms: C_1  and  C_2
REMARK    2  A    between atoms: C_5  and  C_8
REMARK    3  A    between atoms: C_8  and  N_9
REMARK    4  A    between atoms: N_16  and  C_17
REMARK    5  A    between atoms: C_17  and  C_18
REMARK    6  A    between atoms: C_18  and  C_19
REMARK    7  A    between atoms: N_28  and  C_35
REMARK    8  A    between atoms: N_31  and  C_34
REMARK                            x       y       z     vdW  Elec       q    Type
REMARK                         _______ _______ _______ _____ _____    ______ ____
ROOT
ATOM      1  N   UNL     1       1.447  -4.746  -0.032  0.00  0.00    -0.286 N 
ATOM      2  C   UNL     1       2.256  -5.010  -1.232  0.00  0.00    +0.203 C 
ATOM      3  C   UNL     1       3.613  -5.480  -0.645  0.00  0.00    +0.203 C 
ATOM      4  N   UNL     1       3.405  -5.420   0.808  0.00  0.00    -0.341 N 
ATOM      5  C   UNL     1       2.209  -5.008   1.073  0.00  0.00    +0.159 C 
ATOM      6  N   UNL     1       1.742  -4.851   2.356  0.00  0.00    -0.318 N 
ATOM      7  N   UNL     1       4.013  -6.858  -0.971  0.00  0.00    -0.266 N 
ATOM      8  C   UNL     1       3.220  -7.630  -1.728  0.00  0.00    +0.312 C 
ATOM      9  O   UNL     1       3.599  -8.760  -1.967  0.00  0.00    -0.252 OA
ATOM     10  N   UNL     1       2.047  -7.252  -2.237  0.00  0.00    -0.227 N 
ATOM     11  C   UNL     1       1.489  -6.026  -2.053  0.00  0.00    +0.247 C 
ATOM     12  O   UNL     1       0.420  -5.738  -2.546  0.00  0.00    -0.273 OA
ATOM     13  C   UNL     1       1.301  -8.224  -3.040  0.00  0.00    +0.143 C 
ATOM     14  C   UNL     1       5.283  -7.387  -0.468  0.00  0.00    +0.136 C 
ATOM     15  H   UNL     1       0.835  -4.542   2.507  0.00  0.00    +0.149 HD
ATOM     16  H   UNL     1       4.072  -5.652   1.473  0.00  0.00    +0.164 HD
ENDROOT
BRANCH   1  17
ATOM     17  C   UNL     1       0.059  -4.275  -0.021  0.00  0.00    +0.143 C 
BRANCH  17  22
ATOM     18  C   UNL     1      -0.018   1.503   0.010  0.00  0.00    +0.044 C 
ATOM     19  C   UNL     1       0.002  -0.004   0.002  0.00  0.00    -0.050 A 
ATOM     20  C   UNL     1       0.006  -0.689  -1.199  0.00  0.00    +0.003 A 
ATOM     21  C   UNL     1       0.025  -2.071  -1.206  0.00  0.00    +0.005 A 
ATOM     22  C   UNL     1       0.040  -2.768  -0.013  0.00  0.00    -0.030 A 
ATOM     23  C   UNL     1       0.037  -2.084   1.188  0.00  0.00    +0.005 A 
ATOM     24  C   UNL     1       0.023  -0.702   1.195  0.00  0.00    +0.003 A 
ENDBRANCH  17  22
ENDBRANCH   1  17
BRANCH   6  25
ATOM     25  C   UNL     1       2.613  -5.150   3.495  0.00  0.00    +0.109 C 
BRANCH  25  26
ATOM     26  C   UNL     1       1.855  -4.894   4.798  0.00  0.00    +0.056 C 
BRANCH  26  27
ATOM     27  C   UNL     1       2.751  -5.202   5.970  0.00  0.00    -0.021 A 
ATOM     28  C   UNL     1       3.724  -4.295   6.585  0.00  0.00    +0.003 A 
ATOM     29  C   UNL     1       4.117  -2.980   6.334  0.00  0.00    +0.010 A 
ATOM     30  C   UNL     1       5.080  -2.400   7.111  0.00  0.00    +0.001 A 
ATOM     31  C   UNL     1       5.670  -3.108   8.149  0.00  0.00    +0.002 A 
ATOM     32  C   UNL     1       5.296  -4.408   8.414  0.00  0.00    +0.026 A 
ATOM     33  C   UNL     1       4.318  -5.018   7.636  0.00  0.00    +0.047 A 
ATOM     34  N   UNL     1       3.741  -6.268   7.647  0.00  0.00    -0.360 N 
ATOM     35  C   UNL     1       2.806  -6.357   6.652  0.00  0.00    +0.087 A 
ATOM     36  H   UNL     1       3.961  -6.978   8.270  0.00  0.00    +0.165 HD
ENDBRANCH  26  27
ENDBRANCH  25  26
ENDBRANCH   6  25
TORSDOF 5
