REMARK  Name = ZINC66194422
REMARK  6 active torsions:
REMARK  status: ('A' for Active; 'I' for Inactive)
REMARK    1  A    between atoms: C_1  and  C_2
REMARK    2  A    between atoms: C_9  and  C_11
REMARK    3  A    between atoms: C_11  and  C_12
REMARK    4  A    between atoms: C_12  and  N_13
REMARK    5  A    between atoms: N_16  and  C_17
REMARK    6  A    between atoms: N_16  and  C_18
REMARK                            x       y       z     vdW  Elec       q    Type
REMARK                         _______ _______ _______ _____ _____    ______ ____
ROOT
ATOM      1  N   UNL     1       3.518   0.544   5.087  0.00  0.00    -0.299 N 
ATOM      2  C   UNL     1       4.009   1.403   6.003  0.00  0.00    +0.302 C 
ATOM      3  O   UNL     1       3.704   2.579   5.959  0.00  0.00    -0.253 OA
ATOM      4  N   UNL     1       4.837   0.957   6.968  0.00  0.00    -0.286 N 
ATOM      5  C   UNL     1       5.204  -0.461   7.022  0.00  0.00    +0.134 C 
ATOM      6  H   UNL     1       3.760  -0.394   5.123  0.00  0.00    +0.150 HD
ENDROOT
BRANCH   4   7
ATOM      7  C   UNL     1       5.371   1.890   7.964  0.00  0.00    +0.080 C 
ATOM      8  C   UNL     1       4.934   1.448   9.362  0.00  0.00    +0.041 C 
ATOM      9  C   UNL     1       5.465   2.445  10.397  0.00  0.00    +0.108 C 
ATOM     10  N   UNL     1       6.919   2.570  10.231  0.00  0.00    -0.317 N 
ATOM     11  C   UNL     1       7.453   2.902   8.903  0.00  0.00    +0.108 C 
ATOM     12  C   UNL     1       6.899   1.900   7.885  0.00  0.00    +0.041 C 
ATOM     13  C   UNL     1       7.774   2.377  11.310  0.00  0.00    +0.099 A 
ATOM     14  C   UNL     1       7.260   1.948  12.530  0.00  0.00    +0.042 A 
ATOM     15  C   UNL     1       8.122   1.760  13.595  0.00  0.00    +0.005 A 
ATOM     16  C   UNL     1       9.475   2.010  13.404  0.00  0.00    +0.018 A 
ATOM     17  C   UNL     1       9.916   2.434  12.167  0.00  0.00    +0.084 A 
ATOM     18  N   UNL     1       9.072   2.599  11.167  0.00  0.00    -0.350 N 
ATOM     19  H   UNL     1       9.409   2.894  10.307  0.00  0.00    +0.166 HD
ENDBRANCH   4   7
BRANCH   1  20
ATOM     20  C   UNL     1       2.617   1.029   4.038  0.00  0.00    +0.115 C 
BRANCH  20  21
ATOM     21  C   UNL     1       2.209  -0.139   3.138  0.00  0.00    +0.114 C 
BRANCH  21  29
ATOM     22  C   UNL     1      -0.006   1.521   0.005  0.00  0.00    +0.028 C 
ATOM     23  C   UNL     1      -0.009  -0.009   0.012  0.00  0.00    +0.073 C 
ATOM     24  C   UNL     1       0.604  -0.530  -1.292  0.00  0.00    +0.022 C 
ATOM     25  C   UNL     1       0.726  -2.054  -1.221  0.00  0.00    +0.003 C 
ATOM     26  C   UNL     1       1.650  -2.440  -0.064  0.00  0.00    +0.019 C 
ATOM     27  C   UNL     1       1.049  -1.941   1.254  0.00  0.00    +0.108 C 
ATOM     28  N   UNL     1       0.791  -0.498   1.143  0.00  0.00    -0.299 N 
ATOM     29  C   UNL     1       1.282   0.360   2.058  0.00  0.00    +0.217 C 
ATOM     30  O   UNL     1       0.979   1.533   2.014  0.00  0.00    -0.276 OA
ENDBRANCH  21  29
ENDBRANCH  20  21
ENDBRANCH   1  20
TORSDOF 4
