REMARK  Name = ZINC12891653
REMARK  13 active torsions:
REMARK  status: ('A' for Active; 'I' for Inactive)
REMARK    1  A    between atoms: C_1  and  C_2
REMARK    2  A    between atoms: C_2  and  C_3
REMARK    3  A    between atoms: C_3  and  C_5
REMARK    4  A    between atoms: C_3  and  C_6
REMARK    5  A    between atoms: C_6  and  C_8
REMARK    6  A    between atoms: C_6  and  N_19
REMARK    7  A    between atoms: N_10  and  C_11
REMARK    8  A    between atoms: C_11  and  C_12
REMARK    9  A    between atoms: C_17  and  C_18
REMARK   10  A    between atoms: C_17  and  N_71
REMARK   11  A    between atoms: C_20  and  C_22
REMARK   12  A    between atoms: N_24  and  C_36
REMARK   13  A    between atoms: C_36  and  C_37
REMARK                            x       y       z     vdW  Elec       q    Type
REMARK                         _______ _______ _______ _____ _____    ______ ____
ROOT
ATOM      1  N   UNL     1       4.579   5.991  -0.495  0.00  0.00    -0.300 N 
ATOM      2  C   UNL     1       4.718   4.668  -0.713  0.00  0.00    +0.250 C 
ATOM      3  O   UNL     1       5.821   4.197  -0.915  0.00  0.00    -0.270 OA
ATOM      4  H   UNL     1       3.700   6.367  -0.334  0.00  0.00    +0.150 HD
ENDROOT
BRANCH   2   5
ATOM      5  C   UNL     1       3.535   3.794  -0.706  0.00  0.00    +0.100 A 
ATOM      6  C   UNL     1       2.279   4.316  -0.479  0.00  0.00    +0.103 A 
ATOM      7  N   UNL     1       1.179   3.551  -0.466  0.00  0.00    -0.346 N 
ATOM      8  C   UNL     1       1.215   2.188  -0.677  0.00  0.00    +0.056 A 
ATOM      9  C   UNL     1       0.043   1.440  -0.652  0.00  0.00    +0.076 A 
ATOM     10  C   UNL     1       0.086   0.075  -0.866  0.00  0.00    +0.168 A 
ATOM     11  C   UNL     1       1.307  -0.566  -1.108  0.00  0.00    +0.167 A 
ATOM     12  C   UNL     1       2.477   0.162  -1.136  0.00  0.00    +0.063 A 
ATOM     13  C   UNL     1       2.440   1.542  -0.921  0.00  0.00    +0.050 A 
ATOM     14  C   UNL     1       3.672   2.348  -0.943  0.00  0.00    +0.202 A 
ATOM     15  O   UNL     1       4.760   1.839  -1.149  0.00  0.00    -0.286 OA
ATOM     16  O   UNL     1       1.070  -1.899  -1.284  0.00  0.00    -0.453 OA
ATOM     17  C   UNL     1      -0.243  -2.130  -0.741  0.00  0.00    +0.466 C 
ATOM     18  O   UNL     1      -0.906  -0.861  -0.890  0.00  0.00    -0.453 OA
BRANCH   7  19
ATOM     19  C   UNL     1      -0.116   4.188  -0.217  0.00  0.00    +0.118 C 
ATOM     20  C   UNL     1      -0.458   4.084   1.271  0.00  0.00    +0.027 C 
ENDBRANCH   7  19
ENDBRANCH   2   5
BRANCH   1  21
ATOM     21  C   UNL     1       5.758   6.862  -0.501  0.00  0.00    +0.162 C 
BRANCH  21  22
ATOM     22  C   UNL     1       5.481   8.088   0.330  0.00  0.00    +0.234 C 
ATOM     23  O   UNL     1       4.405   8.221   0.874  0.00  0.00    -0.274 OA
ATOM     24  N   UNL     1       6.428   9.036   0.469  0.00  0.00    -0.315 N 
ATOM     25  H   UNL     1       7.289   8.929   0.034  0.00  0.00    +0.149 HD
BRANCH  24  26
ATOM     26  C   UNL     1       6.159  10.228   1.277  0.00  0.00    +0.089 C 
BRANCH  26  27
ATOM     27  C   UNL     1       7.437  11.061   1.398  0.00  0.00    -0.051 C 
ATOM     28  C   UNL     1       7.197  12.287   2.315  0.00  0.00    -0.016 C 
ATOM     29  C   UNL     1       8.636  12.595   2.807  0.00  0.00    -0.020 C 
ATOM     30  C   UNL     1       9.268  11.194   2.939  0.00  0.00    -0.078 C 
ATOM     31  N   UNL     1       8.485  10.283   2.089  0.00  0.00    +0.382 N 
ATOM     32  H   UNL     1       8.044   9.565   2.675  0.00  0.00    -0.081 HD
BRANCH  31  33
ATOM     33  C   UNL     1       9.369   9.621   1.095  0.00  0.00    -0.082 C 
ATOM     34  C   UNL     1      10.525   8.933   1.824  0.00  0.00    -0.017 C 
ENDBRANCH  31  33
ENDBRANCH  26  27
ENDBRANCH  24  26
ENDBRANCH  21  22
BRANCH  21  35
ATOM     35  C   UNL     1       6.074   7.281  -1.938  0.00  0.00    +0.015 C 
ATOM     36  C   UNL     1       6.356   6.036  -2.782  0.00  0.00    +0.010 C 
BRANCH  35  38
ATOM     37  C   UNL     1       5.242   8.562  -3.915  0.00  0.00    +0.004 C 
ATOM     38  C   UNL     1       4.880   8.035  -2.525  0.00  0.00    +0.002 C 
ENDBRANCH  35  38
ENDBRANCH  21  35
ENDBRANCH   1  21
TORSDOF 9
