REMARK  Name = ZINC08899091
REMARK  10 active torsions:
REMARK  status: ('A' for Active; 'I' for Inactive)
REMARK    1  A    between atoms: C_1  and  C_2
REMARK    2  A    between atoms: C_4  and  C_35
REMARK    3  A    between atoms: C_5  and  N_9
REMARK    4  A    between atoms: C_6  and  C_8
REMARK    5  A    between atoms: C_10  and  C_12
REMARK    6  A    between atoms: C_12  and  S_13
REMARK    7  A    between atoms: S_13  and  C_14
REMARK    8  A    between atoms: C_18  and  C_20
REMARK    9  A    between atoms: N_27  and  C_34
REMARK   10  A    between atoms: N_30  and  C_33
REMARK                            x       y       z     vdW  Elec       q    Type
REMARK                         _______ _______ _______ _____ _____    ______ ____
ROOT
ATOM      1  C   UNL     1      -7.471   0.972  -0.790  0.00  0.00    +0.116 A 
ATOM      2  C   UNL     1      -8.822   1.357  -0.809  0.00  0.00    +0.114 A 
ATOM      3  C   UNL     1      -9.801   0.386  -1.099  0.00  0.00    +0.154 A 
ATOM      4  N   UNL     1      -9.418  -0.857  -1.344  0.00  0.00    -0.209 NA
ATOM      5  C   UNL     1      -8.130  -1.183  -1.316  0.00  0.00    +0.165 A 
ATOM      6  N   UNL     1      -7.176  -0.300  -1.054  0.00  0.00    -0.220 NA
ATOM      7  N   UNL     1     -11.126   0.767  -1.116  0.00  0.00    -0.281 N 
ATOM      8  C   UNL     1     -11.476   2.040  -0.862  0.00  0.00    +0.333 A 
ATOM      9  O   UNL     1     -12.655   2.335  -0.887  0.00  0.00    -0.246 OA
ATOM     10  N   UNL     1     -10.580   2.999  -0.581  0.00  0.00    -0.263 N 
ATOM     11  C   UNL     1      -9.256   2.730  -0.539  0.00  0.00    +0.268 A 
ATOM     12  O   UNL     1      -8.447   3.602  -0.284  0.00  0.00    -0.267 OA
ATOM     13  C   UNL     1     -11.045   4.363  -0.315  0.00  0.00    +0.157 C 
ATOM     14  C   UNL     1     -12.163  -0.225  -1.414  0.00  0.00    +0.155 C 
ENDROOT
BRANCH   5  15
ATOM     15  C   UNL     1      -7.744  -2.586  -1.596  0.00  0.00    +0.037 A 
ATOM     16  C   UNL     1      -8.723  -3.539  -1.876  0.00  0.00    +0.013 A 
ATOM     17  C   UNL     1      -8.357  -4.842  -2.141  0.00  0.00    +0.001 A 
ATOM     18  C   UNL     1      -7.023  -5.208  -2.119  0.00  0.00    +0.001 A 
ATOM     19  C   UNL     1      -6.047  -4.270  -1.838  0.00  0.00    +0.021 A 
ATOM     20  C   UNL     1      -6.400  -2.960  -1.576  0.00  0.00    +0.052 A 
ATOM     21 CL   UNL     1      -5.174  -1.783  -1.221  0.00  0.00    -0.083 Cl
ENDBRANCH   5  15
BRANCH   1  22
ATOM     22  S   UNL     1      -6.202   2.142  -0.435  0.00  0.00    -0.096 S 
BRANCH  22  23
ATOM     23  C   UNL     1      -4.746   1.073  -0.559  0.00  0.00    +0.171 C 
BRANCH  23  25
ATOM     24  N   UNL     1      -2.294   1.291  -0.322  0.00  0.00    -0.284 N 
ATOM     25  C   UNL     1      -3.504   1.882  -0.285  0.00  0.00    +0.227 C 
ATOM     26  O   UNL     1      -3.595   3.064  -0.031  0.00  0.00    -0.275 OA
ATOM     27  H   UNL     1      -2.226   0.331  -0.445  0.00  0.00    +0.155 HD
BRANCH  24  32
ATOM     28  C   UNL     1       2.413   4.408   0.244  0.00  0.00    +0.044 C 
ATOM     29  C   UNL     1       1.161   3.583   0.092  0.00  0.00    -0.050 A 
ATOM     30  C   UNL     1       0.190   3.615   1.076  0.00  0.00    +0.008 A 
ATOM     31  C   UNL     1      -0.958   2.859   0.940  0.00  0.00    -0.029 A 
ATOM     32  C   UNL     1      -1.134   2.062  -0.184  0.00  0.00    +0.039 A 
ATOM     33  C   UNL     1      -0.160   2.038  -1.173  0.00  0.00    -0.029 A 
ATOM     34  C   UNL     1       0.986   2.795  -1.031  0.00  0.00    +0.008 A 
ATOM     35  C   UNL     1      -0.350   1.180  -2.398  0.00  0.00    +0.045 C 
ATOM     36  C   UNL     1      -2.016   2.893   2.013  0.00  0.00    +0.045 C 
ENDBRANCH  24  32
ENDBRANCH  23  25
ENDBRANCH  22  23
ENDBRANCH   1  22
TORSDOF 5
