REMARK  Name = ZINC19714523
REMARK  9 active torsions:
REMARK  status: ('A' for Active; 'I' for Inactive)
REMARK    1  A    between atoms: C_1  and  C_2
REMARK    2  A    between atoms: C_2  and  C_3
REMARK    3  A    between atoms: C_5  and  C_13
REMARK    4  A    between atoms: C_7  and  C_12
REMARK    5  A    between atoms: N_15  and  C_16
REMARK    6  A    between atoms: C_16  and  C_17
REMARK    7  A    between atoms: C_17  and  C_18
REMARK    8  A    between atoms: C_23  and  C_29
REMARK    9  A    between atoms: C_24  and  C_28
REMARK                            x       y       z     vdW  Elec       q    Type
REMARK                         _______ _______ _______ _____ _____    ______ ____
ROOT
ATOM      1  C   UNL     1       3.668  -6.465   2.114  0.00  0.00    +0.245 C 
ATOM      2  O   UNL     1       2.982  -6.173   3.073  0.00  0.00    -0.270 OA
ATOM      3  N   UNL     1       3.764  -5.617   1.070  0.00  0.00    -0.311 N 
ATOM      4  H   UNL     1       4.385  -5.882   0.202  0.00  0.00    +0.149 HD
ENDROOT
BRANCH   1   7
ATOM      5  C   UNL     1       6.306  -9.080   1.496  0.00  0.00    +0.046 A 
ATOM      6  C   UNL     1       5.655  -7.856   1.494  0.00  0.00    +0.037 A 
ATOM      7  C   UNL     1       4.400  -7.751   2.091  0.00  0.00    +0.053 A 
ATOM      8  C   UNL     1       3.853  -8.909   2.678  0.00  0.00    +0.076 A 
ATOM      9  C   UNL     1       2.601  -9.203   3.374  0.00  0.00    +0.091 A 
ATOM     10  N   UNL     1       2.623 -10.460   3.697  0.00  0.00    -0.080 NA
ATOM     11  O   UNL     1       3.830 -11.045   3.252  0.00  0.00    -0.334 OA
ATOM     12  C   UNL     1       4.579 -10.112   2.631  0.00  0.00    +0.259 A 
ATOM     13  N   UNL     1       5.768 -10.146   2.048  0.00  0.00    -0.215 NA
ATOM     14  C   UNL     1       1.491  -8.226   3.665  0.00  0.00    +0.070 C 
BRANCH   5  16
ATOM     15  C   UNL     1       8.663  -9.758   1.861  0.00  0.00    +0.010 C 
ATOM     16  C   UNL     1       7.663  -9.192   0.851  0.00  0.00    +0.052 C 
ENDBRANCH   5  16
ENDBRANCH   1   7
BRANCH   3  17
ATOM     17  C   UNL     1       3.039  -4.344   1.092  0.00  0.00    +0.112 C 
BRANCH  17  18
ATOM     18  C   UNL     1       3.317  -3.577  -0.202  0.00  0.00    +0.093 C 
BRANCH  18  19
ATOM     19  C   UNL     1       2.572  -2.267  -0.180  0.00  0.00    +0.110 A 
ATOM     20  N   UNL     1       3.141  -1.044  -0.353  0.00  0.00    -0.342 N 
ATOM     21  H   UNL     1       4.225  -0.961  -0.525  0.00  0.00    +0.167 HD
ATOM     22  C   UNL     1       2.133  -0.105  -0.264  0.00  0.00    +0.066 A 
ATOM     23  C   UNL     1       2.090   1.279  -0.354  0.00  0.00    +0.031 A 
ATOM     24  C   UNL     1       0.886   1.936  -0.216  0.00  0.00    -0.045 A 
ATOM     25  C   UNL     1      -0.282   1.222   0.014  0.00  0.00    -0.045 A 
ATOM     26  C   UNL     1      -0.259  -0.141   0.106  0.00  0.00    +0.033 A 
ATOM     27  C   UNL     1       0.950  -0.828  -0.031  0.00  0.00    +0.089 A 
ATOM     28  N   UNL     1       1.291  -2.142   0.008  0.00  0.00    -0.232 NA
ATOM     29  C   UNL     1      -1.590   1.957   0.156  0.00  0.00    +0.044 C 
ATOM     30  C   UNL     1       0.837   3.439  -0.314  0.00  0.00    +0.044 C 
ENDBRANCH  18  19
ENDBRANCH  17  18
ENDBRANCH   3  17
TORSDOF 5
