REMARK  Name = ZINC09542870
REMARK  8 active torsions:
REMARK  status: ('A' for Active; 'I' for Inactive)
REMARK    1  A    between atoms: C_1  and  C_2
REMARK    2  A    between atoms: C_5  and  C_8
REMARK    3  A    between atoms: C_10  and  C_23
REMARK    4  A    between atoms: C_12  and  C_15
REMARK    5  A    between atoms: C_20  and  O_21
REMARK    6  A    between atoms: C_26  and  C_29
REMARK    7  A    between atoms: C_29  and  O_31
REMARK    8  A    between atoms: O_31  and  C_32
REMARK                            x       y       z     vdW  Elec       q    Type
REMARK                         _______ _______ _______ _____ _____    ______ ____
ROOT
ATOM      1  C   UNL     1       3.868   3.353  -1.876  0.00  0.00    +0.040 C 
ATOM      2  N   UNL     1       3.473   3.142  -0.677  0.00  0.00    -0.299 NA
ATOM      3  C   UNL     1       2.452   3.933  -0.001  0.00  0.00    +0.081 C 
ATOM      4  C   UNL     1       2.027   4.995  -2.124  0.00  0.00    -0.028 C 
ATOM      5  C   UNL     1       3.327   4.462  -2.735  0.00  0.00    +0.044 C 
ATOM      6  N   UNL     1       2.252   5.220  -0.683  0.00  0.00    +0.401 N 
ATOM      7  H   UNL     1       3.086   5.806  -0.556  0.00  0.00    -0.081 HD
ATOM      8  H   UNL     1       1.436   5.696  -0.281  0.00  0.00    -0.081 HD
ENDROOT
BRANCH   1  13
ATOM      9  C   UNL     1       7.900  -0.106  -4.082  0.00  0.00    +0.044 C 
ATOM     10  C   UNL     1       6.844   0.800  -3.504  0.00  0.00    -0.050 A 
ATOM     11  C   UNL     1       6.396   0.599  -2.211  0.00  0.00    +0.004 A 
ATOM     12  C   UNL     1       5.429   1.424  -1.675  0.00  0.00    +0.010 A 
ATOM     13  C   UNL     1       4.902   2.466  -2.442  0.00  0.00    -0.004 A 
ATOM     14  C   UNL     1       5.355   2.660  -3.749  0.00  0.00    +0.010 A 
ATOM     15  C   UNL     1       6.326   1.830  -4.269  0.00  0.00    +0.004 A 
ENDBRANCH   1  13
BRANCH   4  16
ATOM     16  C   UNL     1       1.649   6.295  -2.785  0.00  0.00    -0.018 A 
ATOM     17  C   UNL     1       2.037   7.495  -2.222  0.00  0.00    +0.020 A 
ATOM     18  C   UNL     1       1.693   8.689  -2.831  0.00  0.00    +0.018 A 
ATOM     19  C   UNL     1       0.953   8.684  -4.000  0.00  0.00    +0.019 A 
ATOM     20  C   UNL     1       0.558   7.486  -4.563  0.00  0.00    +0.047 A 
ATOM     21  C   UNL     1       0.906   6.287  -3.957  0.00  0.00    +0.119 A 
ATOM     22 BR   UNL     1       2.231  10.331  -2.061  0.00  0.00    -0.050 Br
BRANCH  21  23
ATOM     23  O   UNL     1       0.519   5.108  -4.510  0.00  0.00    -0.507 OA
ATOM     24  H   UNL     1      -0.339   4.790  -4.197  0.00  0.00    +0.292 HD
ENDBRANCH  21  23
ENDBRANCH   4  16
BRANCH   3  25
ATOM     25  C   UNL     1       1.155   3.167   0.008  0.00  0.00    -0.040 A 
ATOM     26  C   UNL     1       1.172   1.783   0.000  0.00  0.00    +0.004 A 
ATOM     27  C   UNL     1      -0.013   1.076   0.008  0.00  0.00    +0.015 A 
ATOM     28  C   UNL     1      -1.230   1.759   0.017  0.00  0.00    +0.059 A 
ATOM     29  C   UNL     1      -1.240   3.155   0.030  0.00  0.00    +0.015 A 
ATOM     30  C   UNL     1      -0.048   3.850   0.023  0.00  0.00    +0.004 A 
BRANCH  28  31
ATOM     31  C   UNL     1      -2.502   1.008   0.020  0.00  0.00    +0.339 C 
ATOM     32  O   UNL     1      -2.491  -0.206   0.013  0.00  0.00    -0.245 OA
BRANCH  31  33
ATOM     33  O   UNL     1      -3.675   1.670   0.029  0.00  0.00    -0.464 OA
ATOM     34  C   UNL     1      -4.886   0.868   0.031  0.00  0.00    +0.280 C 
ENDBRANCH  31  33
ENDBRANCH  28  31
ENDBRANCH   3  25
TORSDOF 6
