REMARK  Name = ZINC39325081
REMARK  8 active torsions:
REMARK  status: ('A' for Active; 'I' for Inactive)
REMARK    1  A    between atoms: C_1  and  C_2
REMARK    2  A    between atoms: C_8  and  C_14
REMARK    3  A    between atoms: C_14  and  N_15
REMARK    4  A    between atoms: N_15  and  C_16
REMARK    5  A    between atoms: N_15  and  S_23
REMARK    6  A    between atoms: C_16  and  C_17
REMARK    7  A    between atoms: S_23  and  C_26
REMARK    8  A    between atoms: C_27  and  C_35
REMARK                            x       y       z     vdW  Elec       q    Type
REMARK                         _______ _______ _______ _____ _____    ______ ____
ROOT
ATOM      1  N   UNL     1       1.029  -1.421   6.018  0.00  0.00    -0.171 NA
ENDROOT
BRANCH   1   2
ATOM      2  S   UNL     1       2.179  -0.271   5.706  0.00  0.00    +0.064 S 
ATOM      3  O   UNL     1       2.695  -0.553   4.412  0.00  0.00    -0.153 OA
ATOM      4  O   UNL     1       1.600   0.983   6.038  0.00  0.00    -0.153 OA
BRANCH   2   5
ATOM      5  C   UNL     1       3.499  -0.533   6.843  0.00  0.00    +0.136 A 
ATOM      6  C   UNL     1       4.384  -1.536   6.631  0.00  0.00    -0.022 A 
ATOM      7  C   UNL     1       5.441  -1.772   7.510  0.00  0.00    +0.007 A 
ATOM      8  C   UNL     1       5.629  -1.010   8.612  0.00  0.00    +0.031 A 
ATOM      9  C   UNL     1       4.739   0.061   8.898  0.00  0.00    +0.102 A 
ATOM     10  C   UNL     1       3.637   0.312   7.977  0.00  0.00    +0.126 A 
ATOM     11  N   UNL     1       2.873   1.342   8.342  0.00  0.00    -0.189 NA
ATOM     12  S   UNL     1       3.521   1.903   9.703  0.00  0.00    +0.117 S 
ATOM     13  N   UNL     1       4.767   0.910   9.927  0.00  0.00    -0.191 NA
ATOM     14  C   UNL     1       4.222  -2.417   5.419  0.00  0.00    +0.046 C 
ENDBRANCH   2   5
ENDBRANCH   1   2
BRANCH   1  15
ATOM     15  C   UNL     1       0.925  -2.605   5.162  0.00  0.00    +0.126 C 
BRANCH  15  23
ATOM     16  C   UNL     1      -0.821  -1.143  -0.538  0.00  0.00    +0.045 C 
ATOM     17  C   UNL     1      -0.809  -2.460   0.195  0.00  0.00    -0.029 A 
ATOM     18  C   UNL     1      -0.933  -3.620  -0.502  0.00  0.00    +0.005 A 
ATOM     19  C   UNL     1      -0.929  -4.872   0.114  0.00  0.00    +0.001 A 
ATOM     20  C   UNL     1      -0.800  -4.997   1.460  0.00  0.00    +0.009 A 
ATOM     21  C   UNL     1      -0.663  -3.788   2.272  0.00  0.00    -0.007 A 
ATOM     22  C   UNL     1      -0.530  -3.865   3.626  0.00  0.00    -0.003 C 
ATOM     23  C   UNL     1      -0.394  -2.561   4.387  0.00  0.00    +0.114 C 
ATOM     24  C   UNL     1      -0.415  -1.281   3.582  0.00  0.00    +0.225 C 
ATOM     25  O   UNL     1      -0.308  -0.206   4.141  0.00  0.00    -0.275 OA
ATOM     26  N   UNL     1      -0.549  -1.335   2.268  0.00  0.00    -0.284 N 
ATOM     27  C   UNL     1      -0.664  -2.479   1.594  0.00  0.00    +0.043 A 
ATOM     28  H   UNL     1      -0.560  -0.502   1.770  0.00  0.00    +0.155 HD
ENDBRANCH  15  23
ENDBRANCH   1  15
BRANCH   1  29
ATOM     29  C   UNL     1       0.115  -1.254   7.151  0.00  0.00    +0.144 C 
BRANCH  29  30
ATOM     30  C   UNL     1       0.659  -1.990   8.348  0.00  0.00    -0.032 A 
ATOM     31  C   UNL     1       0.319  -3.313   8.560  0.00  0.00    +0.005 A 
ATOM     32  C   UNL     1       0.818  -3.988   9.658  0.00  0.00    +0.000 A 
ATOM     33  C   UNL     1       1.658  -3.340  10.545  0.00  0.00    +0.000 A 
ATOM     34  C   UNL     1       1.998  -2.017  10.332  0.00  0.00    +0.000 A 
ATOM     35  C   UNL     1       1.502  -1.343   9.232  0.00  0.00    +0.005 A 
ENDBRANCH  29  30
ENDBRANCH   1  29
TORSDOF 6
