REMARK  Name = ZINC20292040
REMARK  8 active torsions:
REMARK  status: ('A' for Active; 'I' for Inactive)
REMARK    1  A    between atoms: C_1  and  C_2
REMARK    2  A    between atoms: C_2  and  C_3
REMARK    3  A    between atoms: C_2  and  N_4
REMARK    4  A    between atoms: C_5  and  C_23
REMARK    5  A    between atoms: C_8  and  S_9
REMARK    6  A    between atoms: S_9  and  C_10
REMARK    7  A    between atoms: C_10  and  C_11
REMARK    8  A    between atoms: C_29  and  C_31
REMARK                            x       y       z     vdW  Elec       q    Type
REMARK                         _______ _______ _______ _____ _____    ______ ____
ROOT
ATOM      1  N   UNL     1       7.623   5.497  -0.048  0.00  0.00    -0.302 N 
ATOM      2  C   UNL     1       8.331   6.667  -0.048  0.00  0.00    +0.155 A 
ATOM      3  N   UNL     1       7.468   7.643  -0.047  0.00  0.00    -0.132 NA
ATOM      4  N   UNL     1       6.272   7.175  -0.050  0.00  0.00    -0.122 NA
ATOM      5  C   UNL     1       6.307   5.862  -0.045  0.00  0.00    +0.192 A 
ENDROOT
BRANCH   2   6
ATOM      6  C   UNL     1       9.832   6.802  -0.051  0.00  0.00    +0.144 C 
ATOM      7  C   UNL     1      10.319   7.275   1.335  0.00  0.00    +0.032 C 
ATOM      8  C   UNL     1      11.468   8.257   0.983  0.00  0.00    +0.021 C 
ATOM      9  C   UNL     1      10.932   8.910  -0.316  0.00  0.00    +0.109 C 
ATOM     10  N   UNL     1      10.241   7.820  -1.029  0.00  0.00    -0.287 N 
ATOM     11  C   UNL     1      10.020   7.767  -2.357  0.00  0.00    +0.247 C 
ATOM     12  O   UNL     1       9.532   6.771  -2.853  0.00  0.00    -0.270 OA
BRANCH  11  13
ATOM     13  C   UNL     1      10.372   8.921  -3.212  0.00  0.00    +0.037 A 
ATOM     14  C   UNL     1      10.434  10.204  -2.665  0.00  0.00    +0.014 A 
ATOM     15  C   UNL     1      10.769  11.276  -3.466  0.00  0.00    +0.021 A 
ATOM     16  C   UNL     1      11.031  11.083  -4.812  0.00  0.00    +0.041 A 
ATOM     17  C   UNL     1      10.965   9.813  -5.361  0.00  0.00    +0.021 A 
ATOM     18  C   UNL     1      10.637   8.732  -4.569  0.00  0.00    +0.014 A 
ATOM     19 CL   UNL     1      11.446  12.438  -5.816  0.00  0.00    -0.084 Cl
ENDBRANCH  11  13
ENDBRANCH   2   6
BRANCH   1  21
ATOM     20  C   UNL     1       7.683   3.396   1.201  0.00  0.00    +0.030 C 
ATOM     21  C   UNL     1       8.163   4.136  -0.049  0.00  0.00    +0.085 C 
ATOM     22  C   UNL     1       7.678   3.396  -1.297  0.00  0.00    +0.030 C 
ENDBRANCH   1  21
BRANCH   5  23
ATOM     23  S   UNL     1       4.919   4.777  -0.044  0.00  0.00    -0.078 S 
BRANCH  23  24
ATOM     24  C   UNL     1       3.573   5.988  -0.041  0.00  0.00    +0.151 C 
BRANCH  24  25
ATOM     25  C   UNL     1       2.249   5.268  -0.040  0.00  0.00    +0.121 A 
ATOM     26  N   UNL     1       1.112   6.011  -0.037  0.00  0.00    -0.310 N 
ATOM     27  H   UNL     1       1.172   7.109  -0.036  0.00  0.00    +0.170 HD
ATOM     28  C   UNL     1      -0.102   5.412  -0.036  0.00  0.00    +0.259 A 
ATOM     29  O   UNL     1      -1.129   6.065  -0.034  0.00  0.00    -0.267 OA
ATOM     30  C   UNL     1      -0.131   3.942  -0.037  0.00  0.00    +0.065 A 
ATOM     31  C   UNL     1      -1.328   3.228  -0.035  0.00  0.00    +0.015 A 
ATOM     32  C   UNL     1      -1.298   1.851  -0.042  0.00  0.00    +0.001 A 
ATOM     33  C   UNL     1      -0.087   1.171  -0.039  0.00  0.00    +0.002 A 
ATOM     34  C   UNL     1       1.107   1.857  -0.041  0.00  0.00    +0.028 A 
ATOM     35  C   UNL     1       1.102   3.254  -0.040  0.00  0.00    +0.078 A 
ATOM     36  N   UNL     1       2.255   3.970  -0.041  0.00  0.00    -0.233 NA
ENDBRANCH  24  25
ENDBRANCH  23  24
ENDBRANCH   5  23
TORSDOF 6
