REMARK  Name = ZINC39657729
REMARK  9 active torsions:
REMARK  status: ('A' for Active; 'I' for Inactive)
REMARK    1  A    between atoms: C_1  and  C_2
REMARK    2  A    between atoms: C_2  and  C_8
REMARK    3  A    between atoms: C_12  and  C_21
REMARK    4  A    between atoms: N_23  and  C_24
REMARK    5  A    between atoms: C_24  and  C_25
REMARK    6  A    between atoms: C_30  and  S_31
REMARK    7  A    between atoms: S_31  and  C_32
REMARK    8  A    between atoms: C_37  and  C_38
REMARK    9  A    between atoms: C_38  and  O_39
REMARK                            x       y       z     vdW  Elec       q    Type
REMARK                         _______ _______ _______ _____ _____    ______ ____
ROOT
ATOM      1  C   UNL     1      -0.772  -0.617   0.016  0.00  0.00    +0.222 C 
ATOM      2  O   UNL     1       0.423  -0.412  -0.018  0.00  0.00    -0.275 OA
ATOM      3  N   UNL     1      -1.562  -0.158  -0.975  0.00  0.00    -0.300 N 
ATOM      4  C   UNL     1      -1.149   0.519  -2.227  0.00  0.00    +0.121 C 
ATOM      5  C   UNL     1      -2.091  -0.054  -3.309  0.00  0.00    +0.100 C 
ATOM      6  C   UNL     1      -3.331  -0.533  -2.537  0.00  0.00    -0.004 C 
ATOM      7  C   UNL     1      -3.041  -0.222  -1.061  0.00  0.00    +0.115 C 
ATOM      8  C   UNL     1      -3.524  -2.034  -2.725  0.00  0.00    -0.010 C 
ATOM      9  C   UNL     1      -4.795  -2.477  -1.995  0.00  0.00    -0.082 C 
ATOM     10  N   UNL     1      -5.949  -1.744  -2.529  0.00  0.00    +0.379 N 
ATOM     11  C   UNL     1      -5.799  -0.308  -2.261  0.00  0.00    -0.082 C 
ATOM     12  C   UNL     1      -4.570   0.226  -3.003  0.00  0.00    -0.010 C 
ATOM     13  H   UNL     1      -6.009  -1.894  -3.525  0.00  0.00    -0.086 HD
ATOM     14  H   UNL     1      -6.793  -2.080  -2.090  0.00  0.00    -0.086 HD
ENDROOT
BRANCH   1  16
ATOM     15  C   UNL     1      -1.959  -2.700   0.648  0.00  0.00    +0.021 C 
ATOM     16  C   UNL     1      -1.373  -1.385   1.165  0.00  0.00    +0.044 C 
ATOM     17  C   UNL     1      -2.482  -0.551   1.810  0.00  0.00    +0.016 C 
ATOM     18  C   UNL     1      -1.896   0.764   2.327  0.00  0.00    +0.001 C 
ATOM     19  C   UNL     1      -0.812   0.467   3.364  0.00  0.00    +0.000 C 
ATOM     20  C   UNL     1       0.297  -0.366   2.719  0.00  0.00    +0.001 C 
ATOM     21  C   UNL     1      -0.288  -1.682   2.203  0.00  0.00    +0.016 C 
ENDBRANCH   1  16
BRANCH   5  22
ATOM     22  C   UNL     1      -1.434  -1.209  -4.019  0.00  0.00    +0.218 C 
ATOM     23  O   UNL     1      -0.581  -1.861  -3.455  0.00  0.00    -0.275 OA
ATOM     24  N   UNL     1      -1.794  -1.517  -5.281  0.00  0.00    -0.311 N 
ATOM     25  H   UNL     1      -2.423  -0.953  -5.758  0.00  0.00    +0.149 HD
BRANCH  24  26
ATOM     26  C   UNL     1      -1.235  -2.705  -5.933  0.00  0.00    +0.140 C 
BRANCH  26  27
ATOM     27  C   UNL     1      -1.699  -2.756  -7.366  0.00  0.00    -0.017 A 
ATOM     28  C   UNL     1      -2.735  -3.594  -7.728  0.00  0.00    +0.006 A 
ATOM     29  C   UNL     1      -3.161  -3.642  -9.042  0.00  0.00    +0.000 A 
ATOM     30  C   UNL     1      -2.551  -2.851 -10.000  0.00  0.00    +0.001 A 
ATOM     31  C   UNL     1      -1.514  -2.011  -9.645  0.00  0.00    +0.015 A 
ATOM     32  C   UNL     1      -1.088  -1.956  -8.324  0.00  0.00    +0.017 A 
BRANCH  32  33
ATOM     33  S   UNL     1       0.230  -0.880  -7.865  0.00  0.00    -0.089 S 
BRANCH  33  34
ATOM     34  C   UNL     1       1.618  -1.952  -7.698  0.00  0.00    +0.018 A 
ATOM     35  C   UNL     1       1.507  -3.294  -8.043  0.00  0.00    +0.015 A 
ATOM     36  C   UNL     1       2.596  -4.132  -7.910  0.00  0.00    +0.001 A 
ATOM     37  C   UNL     1       3.797  -3.637  -7.435  0.00  0.00    +0.000 A 
ATOM     38  C   UNL     1       3.912  -2.303  -7.091  0.00  0.00    +0.007 A 
ATOM     39  C   UNL     1       2.828  -1.458  -7.227  0.00  0.00    -0.008 A 
BRANCH  39  40
ATOM     40  C   UNL     1       2.955  -0.002  -6.858  0.00  0.00    +0.192 C 
BRANCH  40  41
ATOM     41  O   UNL     1       4.312   0.285  -6.513  0.00  0.00    -0.390 OA
ATOM     42  H   UNL     1       4.468   1.206  -6.265  0.00  0.00    +0.210 HD
ENDBRANCH  40  41
ENDBRANCH  39  40
ENDBRANCH  33  34
ENDBRANCH  32  33
ENDBRANCH  26  27
ENDBRANCH  24  26
ENDBRANCH   5  22
TORSDOF 8
