REMARK  Name = ZINC04619360
REMARK  4 active torsions:
REMARK  status: ('A' for Active; 'I' for Inactive)
REMARK    1  A    between atoms: C_4  and  C_7
REMARK    2  A    between atoms: C_7  and  C_8
REMARK    3  A    between atoms: C_8  and  N_9
REMARK    4  A    between atoms: C_13  and  C_14
REMARK                            x       y       z     vdW  Elec       q    Type
REMARK                         _______ _______ _______ _____ _____    ______ ____
ROOT
ATOM      1  N   UNL     1      -0.061   7.389  -1.690  0.00  0.00    -0.221 N 
ATOM      2  C   UNL     1      -1.226   8.010  -1.409  0.00  0.00    +0.259 C 
ATOM      3  O   UNL     1      -2.179   7.388  -0.984  0.00  0.00    -0.269 OA
ATOM      4  C   UNL     1      -1.306   9.475  -1.628  0.00  0.00    +0.096 C 
ATOM      5  C   UNL     1      -2.433  10.167  -1.366  0.00  0.00    -0.005 C 
ATOM      6  C   UNL     1      -0.090  10.142  -2.155  0.00  0.00    +0.256 C 
ATOM      7  O   UNL     1      -0.075  11.339  -2.366  0.00  0.00    -0.270 OA
ATOM      8  N   UNL     1       0.999   9.381  -2.392  0.00  0.00    -0.236 N 
ATOM      9  C   UNL     1       0.997   8.061  -2.164  0.00  0.00    +0.315 C 
ATOM     10  O   UNL     1       2.012   7.437  -2.400  0.00  0.00    -0.252 OA
ATOM     11  H   UNL     1       1.803   9.800  -2.737  0.00  0.00    +0.159 HD
ENDROOT
BRANCH   5  12
ATOM     12  C   UNL     1      -2.385  11.669  -1.245  0.00  0.00    +0.013 C 
ATOM     13  C   UNL     1      -3.025  12.095   0.078  0.00  0.00    +0.009 C 
ATOM     14  C   UNL     1      -2.955  13.618   0.202  0.00  0.00    -0.024 C 
ATOM     15  C   UNL     1      -3.602  14.047   1.522  0.00  0.00    +0.000 C 
ATOM     16  C   UNL     1      -3.602  15.575   1.611  0.00  0.00    -0.018 C 
ATOM     17  C   UNL     1      -4.335  16.156   0.400  0.00  0.00    -0.078 C 
ATOM     18  C   UNL     1      -3.721  14.256  -0.960  0.00  0.00    -0.062 C 
ATOM     19  C   UNL     1      -3.103  13.823  -2.288  0.00  0.00    -0.024 C 
ATOM     20  C   UNL     1      -3.151  12.300  -2.409  0.00  0.00    +0.009 C 
ATOM     21  C   UNL     1      -1.650  14.298  -2.348  0.00  0.00    +0.000 C 
ATOM     22  C   UNL     1      -1.615  15.820  -2.184  0.00  0.00    -0.018 C 
ATOM     23  C   UNL     1      -2.269  16.192  -0.852  0.00  0.00    -0.078 C 
ATOM     24  N   UNL     1      -3.673  15.729  -0.848  0.00  0.00    +0.382 N 
ATOM     25  H   UNL     1      -4.165  16.142  -1.648  0.00  0.00    -0.081 HD
ENDBRANCH   5  12
BRANCH   1  26
ATOM     26  C   UNL     1       0.047   5.944  -1.477  0.00  0.00    +0.123 C 
BRANCH  26  27
ATOM     27  C   UNL     1       0.541   5.673  -0.055  0.00  0.00    +0.054 C 
BRANCH  27  31
ATOM     28  C   UNL     1       0.857   1.458   0.565  0.00  0.00    +0.000 A 
ATOM     29  C   UNL     1      -0.328   2.111   0.848  0.00  0.00    +0.000 A 
ATOM     30  C   UNL     1      -0.428   3.476   0.652  0.00  0.00    +0.004 A 
ATOM     31  C   UNL     1       0.652   4.186   0.164  0.00  0.00    -0.046 A 
ATOM     32  C   UNL     1       1.836   3.532  -0.124  0.00  0.00    +0.004 A 
ATOM     33  C   UNL     1       1.938   2.168   0.077  0.00  0.00    +0.000 A 
ENDBRANCH  27  31
ENDBRANCH  26  27
ENDBRANCH   1  26
TORSDOF 4
