REMARK  Name = ZINC39373015
REMARK  5 active torsions:
REMARK  status: ('A' for Active; 'I' for Inactive)
REMARK    1  A    between atoms: C_1  and  O_2
REMARK    2  A    between atoms: O_2  and  C_3
REMARK    3  A    between atoms: C_5  and  C_11
REMARK    4  A    between atoms: C_8  and  O_9
REMARK    5  A    between atoms: N_12  and  N_13
REMARK                            x       y       z     vdW  Elec       q    Type
REMARK                         _______ _______ _______ _____ _____    ______ ____
ROOT
ATOM      1  N   UNL     1       3.633   0.473   6.203  0.00  0.00    -0.206 N 
ATOM      2  C   UNL     1       4.265  -0.156   7.257  0.00  0.00    +0.227 C 
ATOM      3  N   UNL     1       4.302  -1.467   7.262  0.00  0.00    -0.220 NA
ATOM      4  C   UNL     1       4.903  -2.125   8.419  0.00  0.00    +0.253 C 
ATOM      5  C   UNL     1       5.936  -1.156   8.975  0.00  0.00    +0.115 C 
ATOM      6  C   UNL     1       7.072  -1.887   9.141  0.00  0.00    +0.025 A 
ATOM      7  C   UNL     1       8.329  -1.576   9.717  0.00  0.00    +0.012 A 
ATOM      8  C   UNL     1       9.278  -2.550   9.711  0.00  0.00    +0.001 A 
ATOM      9  C   UNL     1       9.090  -3.828   9.177  0.00  0.00    +0.002 A 
ATOM     10  C   UNL     1       7.926  -4.239   8.607  0.00  0.00    +0.026 A 
ATOM     11  C   UNL     1       6.835  -3.251   8.574  0.00  0.00    +0.046 A 
ATOM     12  N   UNL     1       5.623  -3.355   8.120  0.00  0.00    -0.358 N 
ATOM     13  N   UNL     1       5.675   0.151   9.077  0.00  0.00    -0.171 NA
ATOM     14  N   UNL     1       4.816   0.617   8.223  0.00  0.00    -0.247 N 
ATOM     15  H   UNL     1       3.593   1.441   6.169  0.00  0.00    +0.177 HD
ATOM     16  H   UNL     1       4.557   1.550   8.282  0.00  0.00    +0.192 HD
ATOM     17  H   UNL     1       5.257  -4.125   7.657  0.00  0.00    +0.162 HD
ENDROOT
BRANCH   1  19
ATOM     18  C   UNL     1       2.454   0.303   4.190  0.00  0.00    +0.138 C 
ATOM     19  N   UNL     1       3.049  -0.288   5.181  0.00  0.00    -0.188 NA
BRANCH  18  22
ATOM     20  C   UNL     1       0.626  -0.619   1.042  0.00  0.00    +0.163 A 
ATOM     21  C   UNL     1       1.200   0.137   2.048  0.00  0.00    +0.059 A 
ATOM     22  C   UNL     1       1.841  -0.498   3.115  0.00  0.00    -0.001 A 
ATOM     23  C   UNL     1       1.897  -1.893   3.162  0.00  0.00    +0.028 A 
ATOM     24  C   UNL     1       1.322  -2.641   2.155  0.00  0.00    +0.063 A 
ATOM     25  C   UNL     1       0.682  -2.009   1.097  0.00  0.00    +0.173 A 
ATOM     26 BR   UNL     1       1.401  -4.529   2.219  0.00  0.00    -0.046 Br
BRANCH  20  28
ATOM     27  C   UNL     1      -0.017   1.425   0.010  0.00  0.00    +0.277 C 
ATOM     28  O   UNL     1       0.002  -0.004   0.002  0.00  0.00    -0.491 OA
ENDBRANCH  20  28
BRANCH  25  29
ATOM     29  O   UNL     1       0.112  -2.750   0.110  0.00  0.00    -0.503 OA
ATOM     30  H   UNL     1       0.708  -2.952  -0.625  0.00  0.00    +0.292 HD
ENDBRANCH  25  29
ENDBRANCH  18  22
ENDBRANCH   1  19
TORSDOF 4
