REMARK  Name = ZINC00889558
REMARK  6 active torsions:
REMARK  status: ('A' for Active; 'I' for Inactive)
REMARK    1  A    between atoms: C_1  and  C_2
REMARK    2  A    between atoms: C_7  and  C_15
REMARK    3  A    between atoms: C_13  and  C_14
REMARK    4  A    between atoms: C_15  and  C_17
REMARK    5  A    between atoms: C_15  and  N_63
REMARK    6  A    between atoms: N_21  and  C_22
REMARK                            x       y       z     vdW  Elec       q    Type
REMARK                         _______ _______ _______ _____ _____    ______ ____
ROOT
ATOM      1  C   UNL     1      -4.985   1.048   0.031  0.00  0.00    +0.039 C 
ENDROOT
BRANCH   1   8
ATOM      2  C   UNL     1       2.354   3.941  -1.147  0.00  0.00    +0.044 C 
ATOM      3  C   UNL     1       1.067   3.184  -0.945  0.00  0.00    -0.046 A 
ATOM      4  C   UNL     1       1.072   1.797  -0.990  0.00  0.00    +0.004 A 
ATOM      5  C   UNL     1      -0.084   1.091  -0.808  0.00  0.00    +0.010 A 
ATOM      6  C   UNL     1      -1.284   1.773  -0.580  0.00  0.00    -0.001 A 
ATOM      7  C   UNL     1      -2.542   1.049  -0.388  0.00  0.00    +0.017 A 
ATOM      8  C   UNL     1      -3.674   1.763  -0.171  0.00  0.00    +0.011 A 
ATOM      9  C   UNL     1      -3.628   3.173  -0.133  0.00  0.00    +0.251 A 
ATOM     10  O   UNL     1      -4.658   3.796   0.063  0.00  0.00    -0.268 OA
ATOM     11  N   UNL     1      -2.476   3.847  -0.299  0.00  0.00    -0.322 N 
ATOM     12  H   UNL     1      -2.479   4.846  -0.255  0.00  0.00    +0.169 HD
ATOM     13  C   UNL     1      -1.292   3.180  -0.529  0.00  0.00    +0.052 A 
ATOM     14  C   UNL     1      -0.103   3.877  -0.716  0.00  0.00    -0.024 A 
ATOM     15  C   UNL     1      -0.093   5.383  -0.669  0.00  0.00    +0.046 C 
ENDBRANCH   1   8
BRANCH   1  22
ATOM     16  C   UNL     1      -7.330   1.052  -0.608  0.00  0.00    -0.077 C 
ATOM     17  C   UNL     1      -8.328   1.339  -1.696  0.00  0.00    -0.019 C 
ATOM     18  C   UNL     1      -8.378   0.125  -2.647  0.00  0.00    -0.002 C 
ATOM     19  C   UNL     1      -7.252   0.105  -3.575  0.00  0.00    -0.002 C 
ATOM     20  C   UNL     1      -5.896   0.008  -2.843  0.00  0.00    -0.019 C 
ATOM     21  C   UNL     1      -5.542   1.371  -2.313  0.00  0.00    -0.077 C 
ATOM     22  N   UNL     1      -5.972   1.626  -0.895  0.00  0.00    +0.389 N 
ATOM     23  H   UNL     1      -6.012   2.641  -0.747  0.00  0.00    -0.080 HD
ENDBRANCH   1  22
BRANCH   1  24
ATOM     24  C   UNL     1      -5.466   1.270   1.442  0.00  0.00    +0.143 A 
ATOM     25  N   UNL     1      -6.024   2.357   1.917  0.00  0.00    -0.115 NA
ATOM     26  N   UNL     1      -6.294   2.154   3.160  0.00  0.00    -0.023 NA
ATOM     27  N   UNL     1      -5.916   0.969   3.493  0.00  0.00    -0.044 NA
ATOM     28  N   UNL     1      -5.400   0.392   2.460  0.00  0.00    -0.227 N 
BRANCH  28  29
ATOM     29  C   UNL     1      -4.848  -0.963   2.406  0.00  0.00    +0.111 C 
ATOM     30  C   UNL     1      -5.921  -1.989   2.825  0.00  0.00    +0.027 C 
ATOM     31  C   UNL     1      -5.134  -3.056   3.627  0.00  0.00    +0.002 C 
ATOM     32  C   UNL     1      -4.101  -2.205   4.407  0.00  0.00    +0.002 C 
ATOM     33  C   UNL     1      -3.691  -1.101   3.412  0.00  0.00    +0.027 C 
ENDBRANCH  28  29
ENDBRANCH   1  24
TORSDOF 4
