REMARK  Name = ZINC05343293
REMARK  4 active torsions:
REMARK  status: ('A' for Active; 'I' for Inactive)
REMARK    1  A    between atoms: C_1  and  C_2
REMARK    2  A    between atoms: C_13  and  C_24
REMARK    3  A    between atoms: C_19  and  N_23
REMARK    4  A    between atoms: C_20  and  C_21
REMARK                            x       y       z     vdW  Elec       q    Type
REMARK                         _______ _______ _______ _____ _____    ______ ____
ROOT
ATOM      1  C   UNL     1      -0.018   1.503   0.010  0.00  0.00    +0.045 C 
ATOM      2  C   UNL     1       0.002  -0.004   0.002  0.00  0.00    -0.029 A 
ATOM      3  C   UNL     1       0.006  -0.720  -1.186  0.00  0.00    +0.005 A 
ATOM      4  C   UNL     1       0.024  -2.099  -1.207  0.00  0.00    +0.001 A 
ATOM      5  C   UNL     1       0.039  -2.842  -0.031  0.00  0.00    +0.007 A 
ATOM      6  C   UNL     1       0.036  -2.138   1.153  0.00  0.00    -0.001 A 
ATOM      7  C   UNL     1       0.023  -0.737   1.189  0.00  0.00    +0.041 A 
ATOM      8  N   UNL     1       0.029  -0.289   2.498  0.00  0.00    -0.284 N 
ATOM      9  C   UNL     1       0.052  -1.310   3.382  0.00  0.00    +0.238 C 
ATOM     10  O   UNL     1       0.062  -1.217   4.591  0.00  0.00    -0.274 OA
ATOM     11  C   UNL     1       0.050  -2.591   2.578  0.00  0.00    +0.144 C 
ATOM     12  C   UNL     1      -1.159  -3.424   2.898  0.00  0.00    +0.061 A 
ATOM     13  C   UNL     1      -2.494  -3.054   2.986  0.00  0.00    +0.068 A 
ATOM     14  N   UNL     1      -3.194  -4.120   3.291  0.00  0.00    -0.176 NA
ATOM     15  N   UNL     1      -2.316  -5.209   3.407  0.00  0.00    -0.246 N 
ATOM     16  H   UNL     1      -2.563  -6.122   3.624  0.00  0.00    +0.192 HD
ATOM     17  C   UNL     1      -1.073  -4.764   3.164  0.00  0.00    +0.223 A 
ATOM     18  O   UNL     1       0.105  -5.435   3.159  0.00  0.00    -0.423 OA
ATOM     19  C   UNL     1       1.244  -4.713   3.148  0.00  0.00    +0.201 C 
ATOM     20  C   UNL     1       1.289  -3.386   2.885  0.00  0.00    +0.110 C 
ATOM     21  C   UNL     1      -3.044  -1.667   2.768  0.00  0.00    +0.068 C 
ATOM     22  H   UNL     1       0.018   0.647   2.752  0.00  0.00    +0.155 HD
ENDROOT
BRANCH  19  23
ATOM     23  N   UNL     1       2.424  -5.360   3.417  0.00  0.00    -0.328 N 
ATOM     24  H   UNL     1       2.422  -6.311   3.609  0.00  0.00    +0.145 HD
ATOM     25  H   UNL     1       3.259  -4.867   3.417  0.00  0.00    +0.145 HD
ENDBRANCH  19  23
BRANCH  20  26
ATOM     26  C   UNL     1       2.555  -2.718   2.902  0.00  0.00    +0.102 C 
ATOM     27  N   UNL     1       3.560  -2.188   2.915  0.00  0.00    -0.191 NA
ENDBRANCH  20  26
TORSDOF 2
