REMARK  Name = ZINC13637220
REMARK  4 active torsions:
REMARK  status: ('A' for Active; 'I' for Inactive)
REMARK    1  A    between atoms: C_5  and  C_7
REMARK    2  A    between atoms: N_9  and  C_10
REMARK    3  A    between atoms: C_17  and  C_26
REMARK    4  A    between atoms: C_29  and  O_32
REMARK                            x       y       z     vdW  Elec       q    Type
REMARK                         _______ _______ _______ _____ _____    ______ ____
ROOT
ATOM      1  C   UNL     1      -4.960   4.894  -0.087  0.00  0.00    +0.001 A 
ATOM      2  C   UNL     1      -4.038   5.005   0.937  0.00  0.00    +0.006 A 
ATOM      3  C   UNL     1      -2.733   5.403   0.684  0.00  0.00    -0.019 A 
ATOM      4  C   UNL     1      -2.350   5.696  -0.613  0.00  0.00    +0.044 A 
ATOM      5  C   UNL     1      -3.287   5.582  -1.659  0.00  0.00    +0.058 A 
ATOM      6  C   UNL     1      -4.593   5.178  -1.385  0.00  0.00    +0.015 A 
ATOM      7  N   UNL     1      -1.066   6.107  -0.931  0.00  0.00    -0.336 N 
ATOM      8  C   UNL     1      -0.074   5.628   0.032  0.00  0.00    +0.105 C 
ATOM      9  C   UNL     1      -0.442   6.125   1.432  0.00  0.00    +0.029 C 
ATOM     10  C   UNL     1      -1.789   5.497   1.847  0.00  0.00    +0.049 C 
ATOM     11  C   UNL     1      -1.415   4.118   2.341  0.00  0.00    -0.023 C 
ATOM     12  C   UNL     1      -0.149   4.075   2.669  0.00  0.00    -0.030 C 
ATOM     13  C   UNL     1       0.503   5.426   2.449  0.00  0.00    +0.033 C 
ATOM     14  H   UNL     1      -1.021   7.111  -1.027  0.00  0.00    +0.147 HD
ENDROOT
BRANCH   8  15
ATOM     15  C   UNL     1      -0.054   4.121   0.024  0.00  0.00    -0.027 A 
ATOM     16  C   UNL     1       1.052   3.443   0.503  0.00  0.00    +0.009 A 
ATOM     17  C   UNL     1       1.073   2.062   0.497  0.00  0.00    +0.046 A 
ATOM     18  C   UNL     1      -0.017   1.355   0.009  0.00  0.00    +0.117 A 
ATOM     19  C   UNL     1      -1.123   2.037  -0.476  0.00  0.00    +0.046 A 
ATOM     20  C   UNL     1      -1.141   3.419  -0.463  0.00  0.00    +0.009 A 
BRANCH  18  21
ATOM     21  O   UNL     1       0.002  -0.004   0.002  0.00  0.00    -0.507 OA
ATOM     22  H   UNL     1      -0.349  -0.407   0.808  0.00  0.00    +0.292 HD
ENDBRANCH  18  21
ENDBRANCH   8  15
BRANCH   5  23
ATOM     23  C   UNL     1      -2.885   5.889  -3.045  0.00  0.00    +0.246 C 
ATOM     24  O   UNL     1      -1.746   6.240  -3.284  0.00  0.00    -0.270 OA
ATOM     25  N   UNL     1      -3.781   5.779  -4.045  0.00  0.00    -0.308 N 
ATOM     26  H   UNL     1      -4.690   5.499  -3.854  0.00  0.00    +0.149 HD
BRANCH  25  27
ATOM     27  C   UNL     1      -3.383   6.084  -5.422  0.00  0.00    +0.073 C 
ATOM     28  C   UNL     1      -3.510   7.589  -5.668  0.00  0.00    +0.022 C 
ATOM     29  C   UNL     1      -3.094   7.907  -7.106  0.00  0.00    +0.002 C 
ATOM     30  C   UNL     1      -4.002   7.152  -8.079  0.00  0.00    +0.000 C 
ATOM     31  C   UNL     1      -3.874   5.648  -7.832  0.00  0.00    +0.002 C 
ATOM     32  C   UNL     1      -4.291   5.329  -6.395  0.00  0.00    +0.022 C 
ENDBRANCH  25  27
ENDBRANCH   5  23
TORSDOF 4
