REMARK  Name = ZINC38659575
REMARK  17 active torsions:
REMARK  status: ('A' for Active; 'I' for Inactive)
REMARK    1  A    between atoms: C_1  and  C_2
REMARK    2  A    between atoms: C_2  and  C_3
REMARK    3  A    between atoms: C_3  and  C_4
REMARK    4  A    between atoms: C_4  and  C_5
REMARK    5  A    between atoms: C_5  and  O_6
REMARK    6  A    between atoms: O_6  and  C_7
REMARK    7  A    between atoms: C_10  and  C_13
REMARK    8  A    between atoms: C_13  and  O_15
REMARK    9  A    between atoms: O_15  and  C_16
REMARK   10  A    between atoms: C_23  and  N_40
REMARK   11  A    between atoms: C_24  and  C_38
REMARK   12  A    between atoms: C_25  and  C_27
REMARK   13  A    between atoms: C_30  and  O_35
REMARK   14  A    between atoms: C_31  and  O_33
REMARK   15  A    between atoms: O_33  and  C_34
REMARK   16  A    between atoms: O_35  and  C_36
REMARK   17  A    between atoms: C_36  and  C_37
REMARK                            x       y       z     vdW  Elec       q    Type
REMARK                         _______ _______ _______ _____ _____    ______ ____
ROOT
ATOM      1  C   UNL     1       4.775  -8.335   7.909  0.00  0.00    +0.135 A 
ATOM      2  C   UNL     1       5.238  -7.459   8.881  0.00  0.00    +0.047 A 
ATOM      3  C   UNL     1       5.870  -7.949  10.007  0.00  0.00    +0.012 A 
ATOM      4  C   UNL     1       6.045  -9.312  10.171  0.00  0.00    +0.008 A 
ATOM      5  C   UNL     1       5.585 -10.191   9.203  0.00  0.00    +0.138 A 
ATOM      6  C   UNL     1       4.944  -9.700   8.072  0.00  0.00    +0.093 A 
ATOM      7  O   UNL     1       5.747 -11.530   9.345  0.00  0.00    -0.441 OA
ATOM      8  C   UNL     1       5.994 -12.049  10.559  0.00  0.00    +0.199 C 
ATOM      9  C   UNL     1       6.464 -11.294  11.580  0.00  0.00    +0.098 C 
ATOM     10  C   UNL     1       6.736  -9.826  11.405  0.00  0.00    +0.098 C 
ENDROOT
BRANCH  10  11
ATOM     11  C   UNL     1       8.221  -9.607  11.273  0.00  0.00    -0.031 A 
ATOM     12  C   UNL     1       8.914 -10.187  10.227  0.00  0.00    +0.008 A 
ATOM     13  C   UNL     1      10.277  -9.988  10.102  0.00  0.00    +0.050 A 
ATOM     14  C   UNL     1      10.951  -9.206  11.026  0.00  0.00    +0.162 A 
ATOM     15  C   UNL     1      10.253  -8.622  12.079  0.00  0.00    +0.162 A 
ATOM     16  C   UNL     1       8.887  -8.821  12.196  0.00  0.00    +0.054 A 
BRANCH  15  17
ATOM     17  O   UNL     1      10.910  -7.854  12.988  0.00  0.00    -0.491 OA
ATOM     18  C   UNL     1      10.130  -7.286  14.043  0.00  0.00    +0.277 C 
ENDBRANCH  15  17
BRANCH  14  19
ATOM     19  O   UNL     1      12.291  -9.010  10.904  0.00  0.00    -0.489 OA
BRANCH  19  20
ATOM     20  C   UNL     1      12.941  -9.641   9.799  0.00  0.00    +0.226 C 
ATOM     21  C   UNL     1      14.434  -9.309   9.829  0.00  0.00    +0.048 C 
ENDBRANCH  19  20
ENDBRANCH  14  19
ENDBRANCH  10  11
BRANCH   8  22
ATOM     22  N   UNL     1       5.762 -13.386  10.771  0.00  0.00    -0.328 N 
ATOM     23  H   UNL     1       5.425 -13.940  10.050  0.00  0.00    +0.145 HD
ATOM     24  H   UNL     1       5.935 -13.776  11.643  0.00  0.00    +0.145 HD
ENDBRANCH   8  22
BRANCH   9  25
ATOM     25  C   UNL     1       6.707 -11.906  12.852  0.00  0.00    +0.101 C 
ATOM     26  N   UNL     1       6.900 -12.392  13.860  0.00  0.00    -0.191 NA
ENDBRANCH   9  25
BRANCH   1  27
ATOM     27  O   UNL     1       4.153  -7.854   6.800  0.00  0.00    -0.422 OA
BRANCH  27  28
ATOM     28  C   UNL     1       2.809  -7.942   6.741  0.00  0.00    +0.344 C 
ATOM     29  O   UNL     1       2.199  -8.519   7.619  0.00  0.00    -0.245 OA
BRANCH  28  33
ATOM     30  C   UNL     1       0.710  -6.202   3.487  0.00  0.00    +0.121 A 
ATOM     31  C   UNL     1       0.009  -6.863   4.490  0.00  0.00    +0.046 A 
ATOM     32  C   UNL     1       0.686  -7.428   5.547  0.00  0.00    +0.018 A 
ATOM     33  C   UNL     1       2.080  -7.338   5.611  0.00  0.00    +0.060 A 
ATOM     34  C   UNL     1       2.780  -6.673   4.600  0.00  0.00    +0.018 A 
ATOM     35  C   UNL     1       2.096  -6.115   3.543  0.00  0.00    +0.046 A 
BRANCH  30  36
ATOM     36  O   UNL     1       0.038  -5.646   2.447  0.00  0.00    -0.492 OA
BRANCH  36  37
ATOM     37  C   UNL     1      -1.385  -5.772   2.452  0.00  0.00    +0.229 C 
BRANCH  37  38
ATOM     38  C   UNL     1      -1.962  -5.089   1.210  0.00  0.00    +0.041 C 
BRANCH  38  39
ATOM     39  C   UNL     1      -3.486  -5.224   1.215  0.00  0.00    +0.003 C 
BRANCH  39  41
ATOM     40  C   UNL     1      -5.586  -4.676  -0.021  0.00  0.00    +0.004 C 
ATOM     41  C   UNL     1      -4.062  -4.540  -0.026  0.00  0.00    -0.003 C 
ENDBRANCH  39  41
ENDBRANCH  38  39
ENDBRANCH  37  38
ENDBRANCH  36  37
ENDBRANCH  30  36
ENDBRANCH  28  33
ENDBRANCH  27  28
ENDBRANCH   1  27
TORSDOF 14
