REMARK  Name = ZINC23450425
REMARK  13 active torsions:
REMARK  status: ('A' for Active; 'I' for Inactive)
REMARK    1  A    between atoms: C_1  and  C_2
REMARK    2  A    between atoms: C_3  and  S_8
REMARK    3  A    between atoms: C_4  and  C_7
REMARK    4  A    between atoms: S_8  and  N_11
REMARK    5  A    between atoms: N_14  and  C_17
REMARK    6  A    between atoms: C_17  and  C_18
REMARK    7  A    between atoms: C_18  and  C_20
REMARK    8  A    between atoms: C_18  and  O_28
REMARK    9  A    between atoms: C_24  and  O_26
REMARK   10  A    between atoms: O_26  and  C_27
REMARK   11  A    between atoms: O_28  and  C_29
REMARK   12  A    between atoms: C_29  and  C_30
REMARK   13  A    between atoms: C_33  and  C_36
REMARK                            x       y       z     vdW  Elec       q    Type
REMARK                         _______ _______ _______ _____ _____    ______ ____
ROOT
ATOM      1  C   UNL     1       1.173   3.596   0.006  0.00  0.00    +0.132 C 
ENDROOT
BRANCH   1   2
ATOM      2  C   UNL     1       1.180   2.089   0.000  0.00  0.00    -0.017 A 
ATOM      3  C   UNL     1       2.381   1.404   0.008  0.00  0.00    +0.006 A 
ATOM      4  C   UNL     1       2.391   0.022   0.002  0.00  0.00    +0.004 A 
ATOM      5  C   UNL     1       1.200  -0.679  -0.011  0.00  0.00    +0.045 A 
ATOM      6  C   UNL     1      -0.006   0.006  -0.018  0.00  0.00    +0.120 A 
ATOM      7  C   UNL     1      -0.013   1.393  -0.013  0.00  0.00    +0.051 A 
BRANCH   6   8
ATOM      8  O   UNL     1      -1.179  -0.681  -0.032  0.00  0.00    -0.495 OA
ATOM      9  C   UNL     1      -1.095  -2.107  -0.037  0.00  0.00    +0.277 C 
ENDBRANCH   6   8
ENDBRANCH   1   2
BRANCH   1  10
ATOM     10  C   UNL     1       1.408   4.102   1.431  0.00  0.00    -0.042 C 
BRANCH  10  14
ATOM     11  N   UNL     1       0.844   8.178   2.259  0.00  0.00    -0.180 NA
ATOM     12  C   UNL     1       0.049   7.602   1.163  0.00  0.00    +0.091 C 
ATOM     13  C   UNL     1       0.015   6.080   1.334  0.00  0.00    -0.061 C 
ATOM     14  N   UNL     1       1.389   5.571   1.438  0.00  0.00    +0.383 N 
ATOM     15  C   UNL     1       2.064   6.100   2.631  0.00  0.00    -0.061 C 
ATOM     16  C   UNL     1       2.183   7.623   2.513  0.00  0.00    +0.091 C 
ATOM     17  H   UNL     1       1.944   5.923   0.556  0.00  0.00    -0.082 HD
BRANCH  11  18
ATOM     18  S   UNL     1       0.248   9.416   3.182  0.00  0.00    +0.066 S 
ATOM     19  O   UNL     1       1.372  10.096   3.724  0.00  0.00    -0.153 OA
ATOM     20  O   UNL     1      -0.733  10.075   2.393  0.00  0.00    -0.153 OA
BRANCH  18  23
ATOM     21  C   UNL     1       1.336   8.514   6.281  0.00  0.00    +0.071 C 
ATOM     22  C   UNL     1      -0.084   8.339   5.809  0.00  0.00    +0.107 A 
ATOM     23  C   UNL     1      -0.605   8.689   4.542  0.00  0.00    +0.170 A 
ATOM     24  C   UNL     1      -1.911   8.341   4.617  0.00  0.00    +0.161 A 
ATOM     25  O   UNL     1      -2.097   7.827   5.840  0.00  0.00    -0.358 OA
ATOM     26  N   UNL     1      -1.075   7.836   6.487  0.00  0.00    -0.081 NA
ATOM     27  C   UNL     1      -2.951   8.500   3.537  0.00  0.00    +0.091 C 
ENDBRANCH  18  23
ENDBRANCH  11  18
ENDBRANCH  10  14
ENDBRANCH   1  10
BRANCH   1  28
ATOM     28  O   UNL     1       2.210   4.081  -0.849  0.00  0.00    -0.369 OA
BRANCH  28  29
ATOM     29  C   UNL     1       1.802   4.277  -2.204  0.00  0.00    +0.195 C 
BRANCH  29  30
ATOM     30  C   UNL     1       2.968   4.787  -3.011  0.00  0.00    -0.022 A 
ATOM     31  C   UNL     1       3.183   6.149  -3.126  0.00  0.00    +0.007 A 
ATOM     32  C   UNL     1       4.252   6.622  -3.859  0.00  0.00    +0.019 A 
ATOM     33  C   UNL     1       5.111   5.723  -4.495  0.00  0.00    +0.052 A 
ATOM     34  C   UNL     1       4.884   4.350  -4.379  0.00  0.00    +0.019 A 
ATOM     35  C   UNL     1       3.815   3.891  -3.639  0.00  0.00    +0.007 A 
BRANCH  33  36
ATOM     36  C   UNL     1       6.219   6.207  -5.262  0.00  0.00    +0.099 C 
ATOM     37  N   UNL     1       7.098   6.591  -5.870  0.00  0.00    -0.191 NA
ENDBRANCH  33  36
ENDBRANCH  29  30
ENDBRANCH  28  29
ENDBRANCH   1  28
TORSDOF 10
