REMARK  Name = ZINC34900037
REMARK  8 active torsions:
REMARK  status: ('A' for Active; 'I' for Inactive)
REMARK    1  A    between atoms: C_1  and  O_2
REMARK    2  A    between atoms: O_2  and  C_3
REMARK    3  A    between atoms: C_6  and  C_9
REMARK    4  A    between atoms: N_11  and  C_12
REMARK    5  A    between atoms: C_18  and  N_20
REMARK    6  A    between atoms: C_21  and  C_23
REMARK    7  A    between atoms: C_30  and  C_32
REMARK    8  A    between atoms: C_32  and  C_33
REMARK                            x       y       z     vdW  Elec       q    Type
REMARK                         _______ _______ _______ _____ _____    ______ ____
ROOT
ATOM      1  C   UNL     1      -6.304  -4.645   0.043  0.00  0.00    +0.093 C 
ATOM      2  C   UNL     1      -6.803  -4.774   1.484  0.00  0.00    +0.024 C 
ATOM      3  C   UNL     1      -8.156  -5.487   1.493  0.00  0.00    +0.002 C 
ATOM      4  C   UNL     1      -8.003  -6.880   0.880  0.00  0.00    +0.002 C 
ATOM      5  C   UNL     1      -7.505  -6.752  -0.560  0.00  0.00    +0.024 C 
ATOM      6  C   UNL     1      -6.151  -6.039  -0.570  0.00  0.00    +0.093 C 
ENDROOT
BRANCH   1   9
ATOM      7  C   UNL     1      -4.956  -2.616   0.035  0.00  0.00    +0.244 C 
ATOM      8  O   UNL     1      -5.984  -1.968   0.044  0.00  0.00    -0.270 OA
ATOM      9  N   UNL     1      -5.008  -3.963   0.034  0.00  0.00    -0.307 N 
ATOM     10  H   UNL     1      -4.187  -4.480   0.027  0.00  0.00    +0.149 HD
BRANCH   7  14
ATOM     11  C   UNL     1      -1.199  -0.637   0.010  0.00  0.00    +0.120 A 
ATOM     12  C   UNL     1      -2.373   0.106   0.019  0.00  0.00    +0.046 A 
ATOM     13  C   UNL     1      -3.594  -0.532   0.028  0.00  0.00    +0.016 A 
ATOM     14  C   UNL     1      -3.650  -1.928   0.026  0.00  0.00    +0.037 A 
ATOM     15  C   UNL     1      -2.467  -2.671   0.016  0.00  0.00    +0.016 A 
ATOM     16  C   UNL     1      -1.250  -2.026   0.003  0.00  0.00    +0.046 A 
BRANCH  11  18
ATOM     17  C   UNL     1      -0.017   1.425   0.010  0.00  0.00    +0.277 C 
ATOM     18  O   UNL     1       0.002  -0.004   0.002  0.00  0.00    -0.495 OA
ENDBRANCH  11  18
ENDBRANCH   7  14
ENDBRANCH   1   9
BRANCH   6  19
ATOM     19  N   UNL     1      -5.673  -5.916  -1.950  0.00  0.00    -0.310 N 
ATOM     20  C   UNL     1      -4.997  -6.931  -2.522  0.00  0.00    +0.218 C 
ATOM     21  O   UNL     1      -4.784  -7.947  -1.895  0.00  0.00    -0.275 OA
ATOM     22  H   UNL     1      -5.844  -5.103  -2.451  0.00  0.00    +0.149 HD
BRANCH  20  23
ATOM     23  C   UNL     1      -4.506  -6.805  -3.941  0.00  0.00    +0.092 C 
ATOM     24  C   UNL     1      -3.776  -8.088  -4.345  0.00  0.00    +0.016 C 
ATOM     25  C   UNL     1      -3.249  -7.947  -5.775  0.00  0.00    +0.020 C 
ATOM     26  C   UNL     1      -4.427  -7.739  -6.732  0.00  0.00    +0.108 C 
ATOM     27  N   UNL     1      -5.218  -6.593  -6.265  0.00  0.00    -0.300 N 
ATOM     28  C   UNL     1      -5.699  -6.583  -4.877  0.00  0.00    +0.120 C 
ATOM     29  C   UNL     1      -5.498  -5.568  -7.095  0.00  0.00    +0.220 C 
ATOM     30  O   UNL     1      -6.152  -4.627  -6.698  0.00  0.00    -0.275 OA
BRANCH  29  31
ATOM     31  C   UNL     1      -4.998  -5.592  -8.516  0.00  0.00    +0.138 C 
BRANCH  31  32
ATOM     32  C   UNL     1      -5.443  -4.340  -9.227  0.00  0.00    -0.001 A 
ATOM     33  C   UNL     1      -4.810  -3.146  -9.331  0.00  0.00    +0.011 A 
ATOM     34  C   UNL     1      -5.415  -2.126 -10.041  0.00  0.00    +0.008 A 
ATOM     35  C   UNL     1      -6.623  -2.349 -10.613  0.00  0.00    +0.045 A 
ATOM     36  S   UNL     1      -6.939  -4.046 -10.156  0.00  0.00    -0.101 S 
ENDBRANCH  31  32
ENDBRANCH  29  31
ENDBRANCH  20  23
ENDBRANCH   6  19
TORSDOF 7
