REMARK  Name = ZINC13152455
REMARK  4 active torsions:
REMARK  status: ('A' for Active; 'I' for Inactive)
REMARK    1  A    between atoms: C_4  and  C_7
REMARK    2  A    between atoms: C_7  and  C_8
REMARK    3  A    between atoms: N_12  and  C_22
REMARK    4  A    between atoms: N_14  and  C_15
REMARK                            x       y       z     vdW  Elec       q    Type
REMARK                         _______ _______ _______ _____ _____    ______ ____
ROOT
ATOM      1  C   UNL     1       4.113  -0.977   2.585  0.00  0.00    +0.145 C 
ATOM      2  C   UNL     1       5.394  -1.755   2.836  0.00  0.00    +0.239 C 
ATOM      3  O   UNL     1       5.385  -2.929   3.141  0.00  0.00    -0.274 OA
ATOM      4  N   UNL     1       6.519  -1.073   2.703  0.00  0.00    -0.218 N 
ATOM      5  C   UNL     1       6.537   0.264   2.356  0.00  0.00    +0.168 C 
ATOM      6  N   UNL     1       7.578   1.045   2.193  0.00  0.00    -0.225 NA
ATOM      7  S   UNL     1       4.806   0.680   2.182  0.00  0.00    -0.077 S 
ENDROOT
BRANCH   6   8
ATOM      8  C   UNL     1       8.838   0.509   2.169  0.00  0.00    +0.067 A 
ATOM      9  C   UNL     1       9.255  -0.256   1.078  0.00  0.00    +0.028 A 
ATOM     10  C   UNL     1      10.526  -0.791   1.060  0.00  0.00    +0.002 A 
ATOM     11  C   UNL     1      11.387  -0.573   2.121  0.00  0.00    +0.000 A 
ATOM     12  C   UNL     1      10.981   0.184   3.205  0.00  0.00    +0.002 A 
ATOM     13  C   UNL     1       9.715   0.730   3.234  0.00  0.00    +0.028 A 
ENDBRANCH   6   8
BRANCH   4  14
ATOM     14  C   UNL     1       7.737  -1.730   2.920  0.00  0.00    +0.043 A 
ATOM     15  C   UNL     1       8.439  -1.521   4.099  0.00  0.00    +0.024 A 
ATOM     16  C   UNL     1       9.640  -2.170   4.311  0.00  0.00    +0.002 A 
ATOM     17  C   UNL     1      10.142  -3.028   3.350  0.00  0.00    +0.000 A 
ATOM     18  C   UNL     1       9.445  -3.239   2.174  0.00  0.00    +0.002 A 
ATOM     19  C   UNL     1       8.241  -2.597   1.960  0.00  0.00    +0.024 A 
ENDBRANCH   4  14
BRANCH   1  20
ATOM     20  C   UNL     1       3.336  -1.555   1.400  0.00  0.00    +0.059 C 
BRANCH  20  24
ATOM     21  C   UNL     1      -0.275   0.659   0.845  0.00  0.00    +0.000 A 
ATOM     22  C   UNL     1       0.882   1.049   0.196  0.00  0.00    +0.000 A 
ATOM     23  C   UNL     1       2.050   0.332   0.376  0.00  0.00    +0.004 A 
ATOM     24  C   UNL     1       2.062  -0.773   1.205  0.00  0.00    -0.046 A 
ATOM     25  C   UNL     1       0.906  -1.162   1.855  0.00  0.00    +0.004 A 
ATOM     26  C   UNL     1      -0.263  -0.447   1.674  0.00  0.00    +0.000 A 
ENDBRANCH  20  24
ENDBRANCH   1  20
TORSDOF 4
