REMARK  Name = ZINC13827597
REMARK  13 active torsions:
REMARK  status: ('A' for Active; 'I' for Inactive)
REMARK    1  A    between atoms: C_1  and  C_2
REMARK    2  A    between atoms: C_5  and  O_32
REMARK    3  A    between atoms: C_8  and  C_9
REMARK    4  A    between atoms: C_8  and  C_10
REMARK    5  A    between atoms: C_13  and  O_31
REMARK    6  A    between atoms: C_17  and  C_30
REMARK    7  A    between atoms: C_20  and  O_29
REMARK    8  A    between atoms: C_22  and  C_24
REMARK    9  A    between atoms: C_24  and  O_25
REMARK   10  A    between atoms: O_25  and  C_26
REMARK   11  A    between atoms: C_26  and  C_28
REMARK   12  A    between atoms: O_32  and  C_33
REMARK   13  A    between atoms: C_33  and  C_35
REMARK                            x       y       z     vdW  Elec       q    Type
REMARK                         _______ _______ _______ _____ _____    ______ ____
ROOT
ATOM      1  C   UNL     1      -0.019   1.528   0.010  0.00  0.00    +0.010 C 
ATOM      2  C   UNL     1       0.002  -0.004   0.002  0.00  0.00    +0.023 C 
ATOM      3  C   UNL     1      -1.452  -0.481  -0.060  0.00  0.00    +0.055 C 
ATOM      4  C   UNL     1      -1.680  -1.900   0.403  0.00  0.00    +0.123 C 
ATOM      5  C   UNL     1      -0.526  -2.730   0.967  0.00  0.00    +0.052 C 
ATOM      6  C   UNL     1      -1.161  -3.101  -0.372  0.00  0.00    +0.012 C 
ATOM      7  C   UNL     1      -2.063  -4.346  -0.395  0.00  0.00    +0.015 C 
ATOM      8  C   UNL     1      -0.403  -2.849  -1.674  0.00  0.00    +0.015 C 
ATOM      9  C   UNL     1       0.851  -2.089   0.997  0.00  0.00    +0.052 C 
ATOM     10  C   UNL     1       0.688  -0.578   1.227  0.00  0.00    +0.085 C 
ATOM     11  C   UNL     1       2.018  -0.022   1.624  0.00  0.00    +0.084 C 
ATOM     12  C   UNL     1       2.140   1.455   1.838  0.00  0.00    -0.011 C 
ATOM     13  C   UNL     1       3.337   1.868   1.411  0.00  0.00    -0.009 C 
ATOM     14  C   UNL     1       4.141   0.757   0.886  0.00  0.00    +0.191 C 
ATOM     15  O   UNL     1       5.324   0.770   0.614  0.00  0.00    -0.289 OA
ATOM     16  C   UNL     1       3.185  -0.408   0.727  0.00  0.00    +0.140 C 
ATOM     17  C   UNL     1       3.801  -1.729   1.077  0.00  0.00    +0.077 C 
ATOM     18  C   UNL     1       3.023  -2.537   2.050  0.00  0.00    -0.033 C 
ATOM     19  C   UNL     1       1.743  -2.689   2.031  0.00  0.00    -0.018 C 
ATOM     20  C   UNL     1       3.800   3.302   1.459  0.00  0.00    +0.047 C 
ENDROOT
BRANCH  16  21
ATOM     21  O   UNL     1       2.760  -0.451  -0.634  0.00  0.00    -0.380 OA
ATOM     22  H   UNL     1       3.459  -0.692  -1.257  0.00  0.00    +0.211 HD
ENDBRANCH  16  21
BRANCH  10  23
ATOM     23  O   UNL     1      -0.199  -0.427   2.347  0.00  0.00    -0.387 OA
ATOM     24  H   UNL     1      -0.436   0.490   2.541  0.00  0.00    +0.210 HD
ENDBRANCH  10  23
BRANCH  18  25
ATOM     25  C   UNL     1       3.789  -3.229   3.145  0.00  0.00    +0.263 C 
BRANCH  25  26
ATOM     26  O   UNL     1       2.881  -3.953   3.978  0.00  0.00    -0.460 OA
BRANCH  26  27
ATOM     27  C   UNL     1       3.408  -4.631   5.009  0.00  0.00    +0.304 C 
ATOM     28  O   UNL     1       4.601  -4.611   5.198  0.00  0.00    -0.251 OA
ATOM     29  C   UNL     1       2.512  -5.417   5.931  0.00  0.00    +0.136 C 
ENDBRANCH  26  27
ENDBRANCH  25  26
ENDBRANCH  18  25
BRANCH   4  30
ATOM     30  O   UNL     1      -2.938  -2.104   1.061  0.00  0.00    -0.457 OA
BRANCH  30  31
ATOM     31  C   UNL     1      -3.981  -1.386   0.617  0.00  0.00    +0.304 C 
ATOM     32  O   UNL     1      -3.835  -0.610  -0.298  0.00  0.00    -0.251 OA
ATOM     33  C   UNL     1      -5.335  -1.547   1.260  0.00  0.00    +0.136 C 
ENDBRANCH  30  31
ENDBRANCH   4  30
TORSDOF 7
