REMARK  Name = ZINC63993645
REMARK  11 active torsions:
REMARK  status: ('A' for Active; 'I' for Inactive)
REMARK    1  A    between atoms: C_1  and  C_2
REMARK    2  A    between atoms: C_2  and  N_3
REMARK    3  A    between atoms: C_7  and  C_9
REMARK    4  A    between atoms: C_9  and  N_10
REMARK    5  A    between atoms: C_11  and  C_13
REMARK    6  A    between atoms: N_16  and  C_18
REMARK    7  A    between atoms: C_18  and  C_19
REMARK    8  A    between atoms: C_19  and  O_20
REMARK    9  A    between atoms: O_20  and  C_21
REMARK   10  A    between atoms: N_24  and  C_26
REMARK   11  A    between atoms: C_26  and  C_27
REMARK                            x       y       z     vdW  Elec       q    Type
REMARK                         _______ _______ _______ _____ _____    ______ ____
ROOT
ATOM      1  C   UNL     1      -3.495  -1.308   3.776  0.00  0.00    +0.152 A 
ATOM      2  C   UNL     1      -4.433  -1.443   4.811  0.00  0.00    +0.020 A 
ATOM      3  C   UNL     1      -5.486  -0.659   4.465  0.00  0.00    +0.046 A 
ATOM      4  N   UNL     1      -5.186  -0.087   3.290  0.00  0.00    -0.265 N 
ATOM      5  N   UNL     1      -4.019  -0.469   2.898  0.00  0.00    -0.166 NA
ATOM      6  C   UNL     1      -6.723  -0.526   5.315  0.00  0.00    +0.071 C 
ATOM      7  C   UNL     1      -6.722  -1.679   6.329  0.00  0.00    +0.091 C 
ATOM      8  N   UNL     1      -5.413  -1.758   6.992  0.00  0.00    -0.294 NA
ATOM      9  C   UNL     1      -4.372  -2.256   6.075  0.00  0.00    +0.124 C 
ENDROOT
BRANCH   1  11
ATOM     10  N   UNL     1      -1.377  -1.737   2.629  0.00  0.00    -0.312 N 
ATOM     11  C   UNL     1      -2.177  -1.969   3.688  0.00  0.00    +0.264 C 
ATOM     12  O   UNL     1      -1.815  -2.723   4.571  0.00  0.00    -0.268 OA
ATOM     13  H   UNL     1      -1.666  -1.136   1.925  0.00  0.00    +0.149 HD
BRANCH  10  14
ATOM     14  C   UNL     1      -0.070  -2.393   2.541  0.00  0.00    +0.089 C 
BRANCH  14  19
ATOM     15  N   UNL     1       0.713  -0.491   1.192  0.00  0.00    +0.382 N 
ATOM     16  C   UNL     1       2.136  -0.100   1.116  0.00  0.00    -0.078 C 
ATOM     17  C   UNL     1       2.907  -1.290   1.740  0.00  0.00    -0.020 C 
ATOM     18  C   UNL     1       2.078  -2.500   1.235  0.00  0.00    -0.016 C 
ATOM     19  C   UNL     1       0.632  -1.962   1.251  0.00  0.00    -0.051 C 
ATOM     20  H   UNL     1       0.298  -0.094   2.022  0.00  0.00    -0.081 HD
BRANCH  15  22
ATOM     21  C   UNL     1      -0.019   1.526   0.010  0.00  0.00    -0.017 C 
ATOM     22  C   UNL     1       0.002  -0.004   0.002  0.00  0.00    -0.082 C 
ENDBRANCH  15  22
ENDBRANCH  14  19
ENDBRANCH  10  14
ENDBRANCH   1  11
BRANCH   4  23
ATOM     23  C   UNL     1      -6.055   0.840   2.561  0.00  0.00    +0.171 C 
BRANCH  23  24
ATOM     24  C   UNL     1      -5.754   2.274   3.002  0.00  0.00    +0.182 C 
BRANCH  24  25
ATOM     25  O   UNL     1      -6.602   3.179   2.291  0.00  0.00    -0.381 OA
ATOM     26  C   UNL     1      -6.400   4.553   2.631  0.00  0.00    +0.194 C 
ENDBRANCH  24  25
ENDBRANCH  23  24
ENDBRANCH   4  23
BRANCH   8  27
ATOM     27  C   UNL     1      -5.486  -2.584   8.204  0.00  0.00    +0.118 C 
BRANCH  27  28
ATOM     28  C   UNL     1      -6.364  -1.904   9.223  0.00  0.00    -0.028 C 
ATOM     29  C   UNL     1      -7.681  -2.124   9.437  0.00  0.00    +0.000 A 
ATOM     30  C   UNL     1      -8.654  -3.025   8.808  0.00  0.00    +0.010 A 
ATOM     31  C   UNL     1      -9.933  -3.019   9.247  0.00  0.00    +0.001 A 
ATOM     32  C   UNL     1     -10.352  -2.175  10.285  0.00  0.00    +0.002 A 
ATOM     33  C   UNL     1      -9.517  -1.320  10.912  0.00  0.00    +0.026 A 
ATOM     34  C   UNL     1      -8.149  -1.243  10.531  0.00  0.00    +0.043 A 
ATOM     35  N   UNL     1      -7.159  -0.508  10.977  0.00  0.00    -0.380 N 
ATOM     36  C   UNL     1      -5.949  -0.844  10.219  0.00  0.00    +0.146 C 
ATOM     37  H   UNL     1      -7.216   0.146  11.691  0.00  0.00    +0.160 HD
ENDBRANCH  27  28
ENDBRANCH   8  27
TORSDOF 9
