REMARK  Name = ZINC08773100
REMARK  4 active torsions:
REMARK  status: ('A' for Active; 'I' for Inactive)
REMARK    1  A    between atoms: C_1  and  C_2
REMARK    2  A    between atoms: C_2  and  C_3
REMARK    3  A    between atoms: C_23  and  C_31
REMARK    4  A    between atoms: C_31  and  C_33
REMARK                            x       y       z     vdW  Elec       q    Type
REMARK                         _______ _______ _______ _____ _____    ______ ____
ROOT
ATOM      1  C   UNL     1       0.701  -0.664  -1.215  0.00  0.00    -0.047 A 
ATOM      2  C   UNL     1      -0.013  -0.947  -2.365  0.00  0.00    +0.005 A 
ATOM      3  C   UNL     1       0.636  -1.399  -3.495  0.00  0.00    +0.024 A 
ATOM      4  C   UNL     1       2.018  -1.574  -3.485  0.00  0.00    +0.036 A 
ATOM      5  C   UNL     1       2.726  -1.287  -2.323  0.00  0.00    -0.026 A 
ATOM      6  C   UNL     1       2.075  -0.830  -1.199  0.00  0.00    +0.008 A 
ATOM      7  C   UNL     1       4.170  -1.577  -2.633  0.00  0.00    +0.060 C 
ATOM      8  C   UNL     1       4.168  -2.046  -4.066  0.00  0.00    +0.212 C 
ATOM      9  O   UNL     1       5.133  -2.386  -4.718  0.00  0.00    -0.277 OA
ATOM     10  N   UNL     1       2.889  -2.014  -4.484  0.00  0.00    -0.286 N 
ATOM     11  C   UNL     1       5.042  -0.340  -2.457  0.00  0.00    +0.085 C 
ATOM     12  C   UNL     1       4.481   0.610  -1.438  0.00  0.00    -0.011 A 
ATOM     13  C   UNL     1       4.154   0.489  -0.106  0.00  0.00    +0.006 A 
ATOM     14  C   UNL     1       3.643   1.574   0.584  0.00  0.00    +0.000 A 
ATOM     15  C   UNL     1       3.463   2.780  -0.068  0.00  0.00    +0.002 A 
ATOM     16  C   UNL     1       3.789   2.907  -1.402  0.00  0.00    +0.023 A 
ATOM     17  C   UNL     1       4.303   1.819  -2.104  0.00  0.00    +0.038 A 
ATOM     18  N   UNL     1       4.702   1.700  -3.437  0.00  0.00    -0.285 N 
ATOM     19  C   UNL     1       5.149   0.462  -3.724  0.00  0.00    +0.228 C 
ATOM     20  O   UNL     1       5.557   0.070  -4.797  0.00  0.00    -0.275 OA
ATOM     21  C   UNL     1       6.408  -0.887  -2.022  0.00  0.00    +0.066 C 
ATOM     22  C   UNL     1       6.089  -2.242  -1.365  0.00  0.00    -0.055 C 
ATOM     23  N   UNL     1       4.708  -2.612  -1.741  0.00  0.00    +0.395 N 
ATOM     24  C   UNL     1       3.890  -2.675  -0.510  0.00  0.00    -0.076 C 
ATOM     25  C   UNL     1       4.905  -2.931   0.631  0.00  0.00    -0.020 C 
ATOM     26  C   UNL     1       6.133  -2.085   0.169  0.00  0.00    -0.016 C 
ATOM     27  H   UNL     1       2.604  -2.267  -5.377  0.00  0.00    +0.155 HD
ATOM     28  H   UNL     1       4.661   2.424  -4.082  0.00  0.00    +0.155 HD
ATOM     29  H   UNL     1       4.703  -3.509  -2.204  0.00  0.00    -0.079 HD
ENDROOT
BRANCH   1  31
ATOM     30  C   UNL     1      -0.087   1.357  -0.014  0.00  0.00    +0.009 C 
ATOM     31  C   UNL     1      -0.014  -0.171   0.017  0.00  0.00    +0.032 C 
ENDBRANCH   1  31
BRANCH  21  32
ATOM     32  C   UNL     1       7.303  -1.079  -3.220  0.00  0.00    +0.166 C 
ATOM     33  O   UNL     1       7.340  -2.152  -3.784  0.00  0.00    -0.292 OA
BRANCH  32  34
ATOM     34  C   UNL     1       8.132   0.035  -3.704  0.00  0.00    +0.018 A 
ATOM     35  C   UNL     1       8.090   1.278  -3.042  0.00  0.00    +0.012 A 
ATOM     36  C   UNL     1       8.846   2.320  -3.470  0.00  0.00    +0.009 A 
ATOM     37  C   UNL     1       9.685   2.169  -4.590  0.00  0.00    -0.018 A 
ATOM     38  C   UNL     1      10.476   3.234  -5.051  0.00  0.00    +0.008 A 
ATOM     39  C   UNL     1      11.279   3.059  -6.136  0.00  0.00    +0.001 A 
ATOM     40  C   UNL     1      11.330   1.835  -6.801  0.00  0.00    +0.001 A 
ATOM     41  C   UNL     1      10.578   0.780  -6.385  0.00  0.00    +0.008 A 
ATOM     42  C   UNL     1       9.737   0.923  -5.267  0.00  0.00    -0.017 A 
ATOM     43  C   UNL     1       8.954  -0.146  -4.808  0.00  0.00    +0.020 A 
ENDBRANCH  32  34
ENDBRANCH  21  32
TORSDOF 3
