REMARK  Name = ZINC39652676
REMARK  14 active torsions:
REMARK  status: ('A' for Active; 'I' for Inactive)
REMARK    1  A    between atoms: C_1  and  C_2
REMARK    2  A    between atoms: C_2  and  O_3
REMARK    3  A    between atoms: O_3  and  C_4
REMARK    4  A    between atoms: C_9  and  C_10
REMARK    5  A    between atoms: C_10  and  C_11
REMARK    6  A    between atoms: C_11  and  N_12
REMARK    7  A    between atoms: C_13  and  C_15
REMARK    8  A    between atoms: C_26  and  C_28
REMARK    9  A    between atoms: C_30  and  O_38
REMARK   10  A    between atoms: C_31  and  O_36
REMARK   11  A    between atoms: C_32  and  O_34
REMARK   12  A    between atoms: O_34  and  C_35
REMARK   13  A    between atoms: O_36  and  C_37
REMARK   14  A    between atoms: O_38  and  C_39
REMARK                            x       y       z     vdW  Elec       q    Type
REMARK                         _______ _______ _______ _____ _____    ______ ____
ROOT
ATOM      1  C   UNL     1      -7.268   0.524  -2.714  0.00  0.00    +0.100 C 
ATOM      2  C   UNL     1      -8.605   0.035  -2.111  0.00  0.00    +0.121 C 
ATOM      3  N   UNL     1      -9.648   0.666  -2.953  0.00  0.00    -0.296 N 
ATOM      4  C   UNL     1      -9.106   0.591  -4.331  0.00  0.00    +0.115 C 
ATOM      5  C   UNL     1      -7.601   0.887  -4.171  0.00  0.00    -0.004 C 
ATOM      6  C   UNL     1      -6.789   0.022  -5.130  0.00  0.00    -0.010 C 
ATOM      7  C   UNL     1      -7.093   0.442  -6.571  0.00  0.00    -0.082 C 
ATOM      8  N   UNL     1      -6.755   1.859  -6.752  0.00  0.00    +0.379 N 
ATOM      9  C   UNL     1      -7.607   2.690  -5.892  0.00  0.00    -0.082 C 
ATOM     10  C   UNL     1      -7.324   2.366  -4.423  0.00  0.00    -0.010 C 
ATOM     11  C   UNL     1     -10.824   1.191  -2.556  0.00  0.00    +0.247 C 
ATOM     12  O   UNL     1     -11.074   1.295  -1.370  0.00  0.00    -0.270 OA
ATOM     13  H   UNL     1      -5.787   2.006  -6.508  0.00  0.00    -0.086 HD
ATOM     14  H   UNL     1      -6.899   2.117  -7.716  0.00  0.00    -0.086 HD
ENDROOT
BRANCH  11  15
ATOM     15  C   UNL     1     -11.809   1.640  -3.560  0.00  0.00    +0.044 A 
ATOM     16  C   UNL     1     -11.751   1.147  -4.866  0.00  0.00    +0.062 A 
ATOM     17  C   UNL     1     -12.675   1.568  -5.804  0.00  0.00    +0.166 A 
ATOM     18  C   UNL     1     -13.662   2.483  -5.448  0.00  0.00    +0.204 A 
ATOM     19  C   UNL     1     -13.722   2.976  -4.148  0.00  0.00    +0.166 A 
ATOM     20  C   UNL     1     -12.804   2.553  -3.204  0.00  0.00    +0.062 A 
BRANCH  19  21
ATOM     21  O   UNL     1     -14.687   3.870  -3.804  0.00  0.00    -0.491 OA
ATOM     22  C   UNL     1     -14.690   4.334  -2.452  0.00  0.00    +0.277 C 
ENDBRANCH  19  21
BRANCH  18  23
ATOM     23  O   UNL     1     -14.569   2.896  -6.372  0.00  0.00    -0.488 OA
ATOM     24  C   UNL     1     -15.772   2.133  -6.486  0.00  0.00    +0.277 C 
ENDBRANCH  18  23
BRANCH  17  25
ATOM     25  O   UNL     1     -12.618   1.089  -7.075  0.00  0.00    -0.491 OA
ATOM     26  C   UNL     1     -11.579   0.153  -7.371  0.00  0.00    +0.277 C 
ENDBRANCH  17  25
ENDBRANCH  11  15
BRANCH   1  28
ATOM     27  N   UNL     1      -4.931  -0.271  -2.554  0.00  0.00    -0.315 N 
ATOM     28  C   UNL     1      -6.239  -0.576  -2.669  0.00  0.00    +0.218 C 
ATOM     29  O   UNL     1      -6.588  -1.736  -2.738  0.00  0.00    -0.275 OA
ATOM     30  H   UNL     1      -4.653   0.656  -2.499  0.00  0.00    +0.149 HD
BRANCH  27  31
ATOM     31  C   UNL     1      -3.931  -1.341  -2.511  0.00  0.00    +0.109 C 
BRANCH  31  32
ATOM     32  C   UNL     1      -2.535  -0.728  -2.377  0.00  0.00    +0.057 C 
BRANCH  32  38
ATOM     33  C   UNL     1      -1.012  -2.365  -3.513  0.00  0.00    +0.124 A 
ATOM     34  C   UNL     1      -0.061  -3.374  -3.469  0.00  0.00    +0.046 A 
ATOM     35  C   UNL     1       0.388  -3.845  -2.251  0.00  0.00    +0.004 A 
ATOM     36  C   UNL     1      -0.109  -3.312  -1.076  0.00  0.00    +0.000 A 
ATOM     37  C   UNL     1      -1.058  -2.307  -1.117  0.00  0.00    +0.007 A 
ATOM     38  C   UNL     1      -1.506  -1.828  -2.333  0.00  0.00    -0.004 A 
BRANCH  33  39
ATOM     39  O   UNL     1      -1.456  -1.899  -4.710  0.00  0.00    -0.492 OA
BRANCH  39  41
ATOM     40  C   UNL     1      -1.519  -1.850  -7.126  0.00  0.00    +0.048 C 
ATOM     41  C   UNL     1      -0.903  -2.499  -5.884  0.00  0.00    +0.225 C 
ENDBRANCH  39  41
ENDBRANCH  33  39
ENDBRANCH  32  38
ENDBRANCH  31  32
ENDBRANCH  27  31
ENDBRANCH   1  28
TORSDOF 10
