REMARK  Name = ZINC38600655
REMARK  7 active torsions:
REMARK  status: ('A' for Active; 'I' for Inactive)
REMARK    1  A    between atoms: C_1  and  C_2
REMARK    2  A    between atoms: C_7  and  O_8
REMARK    3  A    between atoms: O_8  and  C_9
REMARK    4  A    between atoms: C_9  and  C_10
REMARK    5  A    between atoms: N_21  and  N_22
REMARK    6  A    between atoms: C_23  and  C_24
REMARK    7  A    between atoms: C_29  and  C_30
REMARK                            x       y       z     vdW  Elec       q    Type
REMARK                         _______ _______ _______ _____ _____    ______ ____
ROOT
ATOM      1  C   UNL     1       0.052   0.111   4.807  0.00  0.00    +0.222 C 
ATOM      2  N   UNL     1       1.240   0.972   4.769  0.00  0.00    -0.321 N 
ATOM      3  C   UNL     1       1.260   2.037   3.875  0.00  0.00    +0.041 A 
ATOM      4  C   UNL     1       2.438   2.512   3.326  0.00  0.00    +0.024 A 
ATOM      5  C   UNL     1       2.402   3.570   2.438  0.00  0.00    +0.002 A 
ATOM      6  C   UNL     1       1.195   4.159   2.093  0.00  0.00    +0.001 A 
ATOM      7  C   UNL     1       0.012   3.700   2.633  0.00  0.00    +0.015 A 
ATOM      8  C   UNL     1       0.034   2.635   3.531  0.00  0.00    +0.059 A 
ATOM      9  C   UNL     1      -1.199   2.111   4.145  0.00  0.00    +0.269 C 
ATOM     10  O   UNL     1      -2.236   2.743   4.077  0.00  0.00    -0.268 OA
ATOM     11  N   UNL     1      -1.163   0.926   4.781  0.00  0.00    -0.165 N 
ATOM     12  H   UNL     1       1.994   0.802   5.355  0.00  0.00    +0.148 HD
ENDROOT
BRANCH  11  13
ATOM     13  N   UNL     1      -2.315   0.464   5.431  0.00  0.00    -0.187 NA
ATOM     14  C   UNL     1      -2.332  -0.706   5.949  0.00  0.00    +0.119 C 
BRANCH  14  15
ATOM     15  C   UNL     1      -3.604  -1.245   6.551  0.00  0.00    +0.125 C 
ATOM     16  C   UNL     1      -3.384  -1.644   7.996  0.00  0.00    +0.123 C 
ATOM     17  N   UNL     1      -3.623  -2.914   8.059  0.00  0.00    -0.161 NA
ATOM     18  N   UNL     1      -3.984  -3.449   6.826  0.00  0.00    -0.153 NA
ATOM     19  C   UNL     1      -4.003  -2.545   5.880  0.00  0.00    +0.084 C 
BRANCH  19  20
ATOM     20  C   UNL     1      -4.338  -2.746   4.462  0.00  0.00    -0.001 A 
ATOM     21  C   UNL     1      -4.303  -1.668   3.572  0.00  0.00    +0.011 A 
ATOM     22  C   UNL     1      -4.618  -1.864   2.244  0.00  0.00    +0.016 A 
ATOM     23  C   UNL     1      -4.969  -3.125   1.791  0.00  0.00    +0.018 A 
ATOM     24  C   UNL     1      -5.006  -4.197   2.667  0.00  0.00    +0.016 A 
ATOM     25  C   UNL     1      -4.689  -4.018   3.996  0.00  0.00    +0.011 A 
ATOM     26 BR   UNL     1      -5.400  -3.383  -0.032  0.00  0.00    -0.050 Br
ENDBRANCH  19  20
ENDBRANCH  14  15
ENDBRANCH  11  13
BRANCH   1  27
ATOM     27  C   UNL     1       0.062  -0.821   3.594  0.00  0.00    +0.273 C 
BRANCH  27  28
ATOM     28  O   UNL     1       0.043  -0.043   2.395  0.00  0.00    -0.488 OA
BRANCH  28  35
ATOM     29  C   UNL     1       0.003   1.476   0.014  0.00  0.00    +0.047 C 
ATOM     30  C   UNL     1       0.030  -0.030   0.017  0.00  0.00    -0.009 A 
ATOM     31  C   UNL     1       0.043  -0.723  -1.179  0.00  0.00    +0.007 A 
ATOM     32  C   UNL     1       0.068  -2.106  -1.177  0.00  0.00    +0.000 A 
ATOM     33  C   UNL     1       0.081  -2.798   0.020  0.00  0.00    +0.004 A 
ATOM     34  C   UNL     1       0.069  -2.110   1.217  0.00  0.00    +0.046 A 
ATOM     35  C   UNL     1       0.049  -0.723   1.218  0.00  0.00    +0.124 A 
ENDBRANCH  28  35
ENDBRANCH  27  28
ENDBRANCH   1  27
TORSDOF 6
