REMARK  Name = ZINC23545549
REMARK  7 active torsions:
REMARK  status: ('A' for Active; 'I' for Inactive)
REMARK    1  A    between atoms: C_1  and  C_2
REMARK    2  A    between atoms: C_2  and  C_4
REMARK    3  A    between atoms: C_2  and  N_11
REMARK    4  A    between atoms: C_12  and  C_14
REMARK    5  A    between atoms: C_14  and  S_15
REMARK    6  A    between atoms: S_15  and  C_16
REMARK    7  A    between atoms: C_19  and  C_21
REMARK                            x       y       z     vdW  Elec       q    Type
REMARK                         _______ _______ _______ _____ _____    ______ ____
ROOT
ATOM      1  S   UNL     1       6.947   3.926  -2.472  0.00  0.00    -0.056 S 
ENDROOT
BRANCH   1   2
ATOM      2  C   UNL     1       8.052   2.710  -3.108  0.00  0.00    +0.278 A 
ATOM      3  N   UNL     1       7.895   1.409  -3.046  0.00  0.00    -0.101 NA
ATOM      4  N   UNL     1       8.893   0.829  -3.614  0.00  0.00    -0.106 NA
ATOM      5  C   UNL     1       9.731   1.735  -4.054  0.00  0.00    +0.249 A 
ATOM      6  O   UNL     1       9.217   2.946  -3.743  0.00  0.00    -0.411 OA
BRANCH   5   7
ATOM      7  C   UNL     1      11.004   1.480  -4.758  0.00  0.00    +0.042 A 
ATOM      8  C   UNL     1      11.799   2.550  -5.177  0.00  0.00    +0.017 A 
ATOM      9  C   UNL     1      12.989   2.310  -5.830  0.00  0.00    +0.050 A 
ATOM     10  C   UNL     1      13.397   1.008  -6.083  0.00  0.00    +0.166 A 
ATOM     11  C   UNL     1      12.605  -0.064  -5.673  0.00  0.00    +0.167 A 
ATOM     12  C   UNL     1      11.413   0.170  -5.013  0.00  0.00    +0.062 A 
ATOM     13  O   UNL     1      13.222  -1.226  -6.038  0.00  0.00    -0.453 OA
ATOM     14  C   UNL     1      14.589  -0.867  -6.309  0.00  0.00    +0.466 C 
ATOM     15  O   UNL     1      14.508   0.516  -6.704  0.00  0.00    -0.453 OA
ENDBRANCH   5   7
ENDBRANCH   1   2
BRANCH   1  16
ATOM     16  C   UNL     1       5.659   2.854  -1.789  0.00  0.00    +0.174 C 
BRANCH  16  18
ATOM     17  N   UNL     1       3.506   3.113  -0.599  0.00  0.00    -0.308 N 
ATOM     18  C   UNL     1       4.575   3.700  -1.173  0.00  0.00    +0.224 C 
ATOM     19  O   UNL     1       4.664   4.909  -1.194  0.00  0.00    -0.275 OA
ATOM     20  H   UNL     1       3.425   2.016  -0.580  0.00  0.00    +0.149 HD
BRANCH  17  22
ATOM     21  C   UNL     1       2.840   4.297   1.435  0.00  0.00    +0.033 C 
ATOM     22  C   UNL     1       2.452   3.936  -0.001  0.00  0.00    +0.102 C 
BRANCH  22  23
ATOM     23  C   UNL     1       1.157   3.165   0.008  0.00  0.00    -0.009 A 
ATOM     24  C   UNL     1       1.175   1.783   0.000  0.00  0.00    +0.007 A 
ATOM     25  C   UNL     1      -0.013   1.076   0.008  0.00  0.00    +0.000 A 
ATOM     26  C   UNL     1      -1.219   1.750   0.017  0.00  0.00    +0.001 A 
ATOM     27  C   UNL     1      -1.239   3.132   0.031  0.00  0.00    +0.020 A 
ATOM     28  C   UNL     1      -0.050   3.841   0.023  0.00  0.00    +0.046 A 
ATOM     29 CL   UNL     1      -0.074   5.576   0.033  0.00  0.00    -0.083 Cl
ENDBRANCH  22  23
ENDBRANCH  17  22
ENDBRANCH  16  18
ENDBRANCH   1  16
TORSDOF 6
