REMARK  Name = ZINC39466977
REMARK  8 active torsions:
REMARK  status: ('A' for Active; 'I' for Inactive)
REMARK    1  A    between atoms: C_1  and  C_2
REMARK    2  A    between atoms: C_2  and  C_3
REMARK    3  A    between atoms: C_2  and  S_4
REMARK    4  A    between atoms: S_4  and  C_7
REMARK    5  A    between atoms: P_16  and  C_32
REMARK    6  A    between atoms: C_24  and  C_25
REMARK    7  A    between atoms: C_30  and  O_31
REMARK    8  A    between atoms: C_32  and  C_33
REMARK                            x       y       z     vdW  Elec       q    Type
REMARK                         _______ _______ _______ _____ _____    ______ ____
ROOT
ATOM      1  C   UNL     1      -1.536  -2.381   0.152  0.00  0.00    +0.092 C 
ATOM      2  C   UNL     1      -1.985  -3.011   1.236  0.00  0.00    +0.004 C 
ATOM      3  C   UNL     1      -1.842  -4.506   1.319  0.00  0.00    +0.017 C 
ATOM      4  C   UNL     1      -2.850  -5.112   2.289  0.00  0.00    -0.003 C 
ATOM      5  C   UNL     1      -2.684  -6.639   2.311  0.00  0.00    -0.020 C 
ATOM      6  C   UNL     1      -3.733  -7.197   3.281  0.00  0.00    +0.156 C 
ATOM      7  O   UNL     1      -3.561  -8.621   3.402  0.00  0.00    -0.319 OA
ATOM      8  P   UNL     1      -3.460  -9.491   2.030  0.00  0.00    +0.262 P 
ATOM      9  O   UNL     1      -4.812  -9.741   1.482  0.00  0.00    -0.274 OA
ATOM     10  N   UNL     1      -2.583  -8.559   0.988  0.00  0.00    -0.291 NA
ATOM     11  N   UNL     1      -2.860  -7.207   0.975  0.00  0.00    +0.397 N 
ATOM     12  C   UNL     1      -1.914  -6.619   0.011  0.00  0.00    -0.046 C 
ATOM     13  C   UNL     1      -2.100  -5.109  -0.067  0.00  0.00    +0.005 C 
ATOM     14  C   UNL     1      -1.167  -4.470  -1.058  0.00  0.00    -0.014 C 
ATOM     15  C   UNL     1      -0.905  -3.156  -0.938  0.00  0.00    +0.006 C 
ATOM     16  H   UNL     1      -1.910  -8.951   0.409  0.00  0.00    +0.111 HD
ATOM     17  H   UNL     1      -3.806  -7.046   0.662  0.00  0.00    -0.055 HD
ENDROOT
BRANCH  15  18
ATOM     18  C   UNL     1       0.016  -2.491  -1.892  0.00  0.00    +0.025 A 
ATOM     19  C   UNL     1      -0.489  -1.655  -2.885  0.00  0.00    +0.012 A 
ATOM     20  C   UNL     1       0.372  -1.038  -3.769  0.00  0.00    +0.001 A 
ATOM     21  C   UNL     1       1.737  -1.248  -3.674  0.00  0.00    +0.004 A 
ATOM     22  C   UNL     1       2.249  -2.075  -2.693  0.00  0.00    +0.046 A 
ATOM     23  C   UNL     1       1.396  -2.696  -1.794  0.00  0.00    +0.125 A 
BRANCH  23  24
ATOM     24  O   UNL     1       1.898  -3.506  -0.826  0.00  0.00    -0.506 OA
ATOM     25  H   UNL     1       1.979  -4.432  -1.091  0.00  0.00    +0.292 HD
ENDBRANCH  23  24
ENDBRANCH  15  18
BRANCH   1  26
ATOM     26  S   UNL     1      -1.700  -0.632   0.015  0.00  0.00    -0.001 S 
ATOM     27  O   UNL     1      -2.359  -0.234   1.209  0.00  0.00    -0.169 OA
ATOM     28  O   UNL     1      -2.308  -0.423  -1.252  0.00  0.00    -0.169 OA
BRANCH  26  30
ATOM     29  C   UNL     1      -0.019   1.526   0.010  0.00  0.00    +0.032 C 
ATOM     30  C   UNL     1       0.002  -0.004   0.002  0.00  0.00    +0.130 C 
ATOM     31  C   UNL     1       0.742  -0.511   1.242  0.00  0.00    +0.032 C 
ENDBRANCH  26  30
ENDBRANCH   1  26
BRANCH   8  32
ATOM     32  C   UNL     1      -2.606 -11.070   2.345  0.00  0.00    +0.147 C 
BRANCH  32  33
ATOM     33  C   UNL     1      -3.373 -11.860   3.374  0.00  0.00    -0.037 A 
ATOM     34  C   UNL     1      -3.092 -11.700   4.718  0.00  0.00    +0.004 A 
ATOM     35  C   UNL     1      -3.795 -12.425   5.662  0.00  0.00    +0.000 A 
ATOM     36  C   UNL     1      -4.780 -13.309   5.262  0.00  0.00    +0.000 A 
ATOM     37  C   UNL     1      -5.061 -13.468   3.918  0.00  0.00    +0.000 A 
ATOM     38  C   UNL     1      -4.361 -12.740   2.974  0.00  0.00    +0.004 A 
ENDBRANCH  32  33
ENDBRANCH   8  32
TORSDOF 6
