REMARK  Name = ZINC33256497
REMARK  11 active torsions:
REMARK  status: ('A' for Active; 'I' for Inactive)
REMARK    1  A    between atoms: C_1  and  C_2
REMARK    2  A    between atoms: N_10  and  C_25
REMARK    3  A    between atoms: C_13  and  S_16
REMARK    4  A    between atoms: S_16  and  C_17
REMARK    5  A    between atoms: C_17  and  C_18
REMARK    6  A    between atoms: C_25  and  C_26
REMARK    7  A    between atoms: C_26  and  C_27
REMARK    8  A    between atoms: C_27  and  O_28
REMARK    9  A    between atoms: O_28  and  C_29
REMARK   10  A    between atoms: C_29  and  C_30
REMARK   11  A    between atoms: C_29  and  C_31
REMARK                            x       y       z     vdW  Elec       q    Type
REMARK                         _______ _______ _______ _____ _____    ______ ____
ROOT
ATOM      1  C   UNL     1      -5.011   1.267   0.033  0.00  0.00    +0.044 C 
ATOM      2  C   UNL     1      -3.690   1.991   0.030  0.00  0.00    -0.050 A 
ATOM      3  C   UNL     1      -3.663   3.376   0.037  0.00  0.00    +0.005 A 
ATOM      4  C   UNL     1      -2.461   4.056   0.045  0.00  0.00    +0.027 A 
ATOM      5  C   UNL     1      -1.268   3.348   0.031  0.00  0.00    +0.064 A 
ATOM      6  C   UNL     1      -1.294   1.945   0.019  0.00  0.00    +0.064 A 
ATOM      7  C   UNL     1      -2.514   1.271   0.021  0.00  0.00    +0.018 A 
ATOM      8  C   UNL     1      -0.014   1.212   0.009  0.00  0.00    +0.263 A 
ATOM      9  O   UNL     1       0.002  -0.004   0.002  0.00  0.00    -0.267 OA
ATOM     10  N   UNL     1       1.137   1.914   0.002  0.00  0.00    -0.277 N 
ATOM     11  C   UNL     1       1.129   3.301   0.008  0.00  0.00    +0.240 A 
ATOM     12  N   UNL     1      -0.042   4.008   0.023  0.00  0.00    -0.256 N 
ATOM     13  C   UNL     1       0.269   5.341   0.026  0.00  0.00    +0.198 A 
ATOM     14  N   UNL     1       1.575   5.453   0.014  0.00  0.00    -0.120 NA
ATOM     15  N   UNL     1       2.120   4.164   0.003  0.00  0.00    -0.109 NA
ENDROOT
BRANCH  13  16
ATOM     16  S   UNL     1      -0.884   6.673   0.043  0.00  0.00    -0.081 S 
BRANCH  16  17
ATOM     17  C   UNL     1       0.159   8.158   0.040  0.00  0.00    +0.114 C 
BRANCH  17  18
ATOM     18  C   UNL     1      -0.715   9.386   0.054  0.00  0.00    -0.019 A 
ATOM     19  C   UNL     1      -1.121   9.958  -1.137  0.00  0.00    +0.006 A 
ATOM     20  C   UNL     1      -1.926  11.082  -1.124  0.00  0.00    +0.000 A 
ATOM     21  C   UNL     1      -2.316  11.640   0.079  0.00  0.00    +0.001 A 
ATOM     22  C   UNL     1      -1.906  11.072   1.270  0.00  0.00    +0.020 A 
ATOM     23  C   UNL     1      -1.104   9.944   1.258  0.00  0.00    +0.045 A 
ATOM     24 CL   UNL     1      -0.588   9.230   2.754  0.00  0.00    -0.083 Cl
ENDBRANCH  17  18
ENDBRANCH  16  17
ENDBRANCH  13  16
BRANCH  10  25
ATOM     25  C   UNL     1       2.416   1.200  -0.014  0.00  0.00    +0.130 C 
BRANCH  25  26
ATOM     26  C   UNL     1       2.848   0.959  -1.462  0.00  0.00    +0.050 C 
BRANCH  26  27
ATOM     27  C   UNL     1       4.184   0.214  -1.478  0.00  0.00    +0.162 C 
BRANCH  27  28
ATOM     28  O   UNL     1       4.588  -0.011  -2.830  0.00  0.00    -0.377 OA
BRANCH  28  29
ATOM     29  C   UNL     1       5.830  -0.705  -2.958  0.00  0.00    +0.112 C 
ATOM     30  C   UNL     1       5.825  -1.528  -4.248  0.00  0.00    +0.037 C 
ATOM     31  C   UNL     1       6.977   0.307  -3.004  0.00  0.00    +0.037 C 
ENDBRANCH  28  29
ENDBRANCH  27  28
ENDBRANCH  26  27
ENDBRANCH  25  26
ENDBRANCH  10  25
TORSDOF 8
