REMARK  Name = ZINC36496952
REMARK  18 active torsions:
REMARK  status: ('A' for Active; 'I' for Inactive)
REMARK    1  A    between atoms: C_1  and  C_2
REMARK    2  A    between atoms: C_2  and  C_3
REMARK    3  A    between atoms: C_3  and  C_5
REMARK    4  A    between atoms: C_3  and  C_11
REMARK    5  A    between atoms: N_13  and  C_14
REMARK    6  A    between atoms: N_13  and  C_20
REMARK    7  A    between atoms: C_14  and  C_15
REMARK    8  A    between atoms: C_20  and  C_22
REMARK    9  A    between atoms: C_20  and  C_29
REMARK   10  A    between atoms: C_27  and  O_28
REMARK   11  A    between atoms: N_31  and  C_32
REMARK   12  A    between atoms: C_32  and  C_33
REMARK   13  A    between atoms: C_32  and  C_34
REMARK   14  A    between atoms: C_32  and  C_35
REMARK   15  A    between atoms: C_35  and  C_36
REMARK   16  A    between atoms: C_36  and  C_37
REMARK   17  A    between atoms: C_36  and  C_38
REMARK   18  A    between atoms: C_36  and  C_39
REMARK                            x       y       z     vdW  Elec       q    Type
REMARK                         _______ _______ _______ _____ _____    ______ ____
ROOT
ATOM      1  C   UNL     1       4.089   1.964  -2.400  0.00  0.00    +0.196 C 
ENDROOT
BRANCH   1   2
ATOM      2  C   UNL     1       4.181   3.440  -2.693  0.00  0.00    +0.023 A 
ATOM      3  C   UNL     1       3.029   4.192  -2.819  0.00  0.00    +0.009 A 
ATOM      4  C   UNL     1       3.112   5.546  -3.088  0.00  0.00    +0.001 A 
ATOM      5  C   UNL     1       4.347   6.150  -3.231  0.00  0.00    +0.004 A 
ATOM      6  C   UNL     1       5.502   5.402  -3.106  0.00  0.00    +0.046 A 
ATOM      7  C   UNL     1       5.421   4.045  -2.831  0.00  0.00    +0.122 A 
BRANCH   7   8
ATOM      8  O   UNL     1       6.556   3.308  -2.702  0.00  0.00    -0.506 OA
ATOM      9  H   UNL     1       6.872   2.923  -3.531  0.00  0.00    +0.292 HD
ENDBRANCH   7   8
ENDBRANCH   1   2
BRANCH   1  10
ATOM     10  C   UNL     1       4.347   1.726  -0.935  0.00  0.00    +0.239 C 
ATOM     11  O   UNL     1       3.526   1.138  -0.263  0.00  0.00    -0.273 OA
ATOM     12  N   UNL     1       5.489   2.166  -0.371  0.00  0.00    -0.308 N 
ATOM     13  H   UNL     1       6.115   2.693  -0.892  0.00  0.00    +0.149 HD
BRANCH  12  14
ATOM     14  C   UNL     1       5.786   1.849   1.028  0.00  0.00    +0.030 C 
ATOM     15  C   UNL     1       4.776   2.554   1.936  0.00  0.00    +0.031 C 
ATOM     16  C   UNL     1       5.692   0.336   1.239  0.00  0.00    +0.031 C 
BRANCH  14  17
ATOM     17  C   UNL     1       7.199   2.325   1.371  0.00  0.00    +0.031 C 
BRANCH  17  18
ATOM     18  C   UNL     1       8.219   1.506   0.577  0.00  0.00    -0.036 C 
ATOM     19  C   UNL     1       7.721   1.323  -0.858  0.00  0.00    +0.010 C 
ATOM     20  C   UNL     1       9.562   2.240   0.562  0.00  0.00    +0.010 C 
ATOM     21  C   UNL     1       8.395   0.135   1.234  0.00  0.00    +0.010 C 
ENDBRANCH  17  18
ENDBRANCH  14  17
ENDBRANCH  12  14
ENDBRANCH   1  10
BRANCH   1  24
ATOM     22  C   UNL     1       1.684   1.872  -2.021  0.00  0.00    +0.224 C 
ATOM     23  O   UNL     1       1.843   2.542  -1.023  0.00  0.00    -0.275 OA
ATOM     24  N   UNL     1       2.751   1.480  -2.746  0.00  0.00    -0.278 N 
BRANCH  22  25
ATOM     25  C   UNL     1       0.295   1.476  -2.449  0.00  0.00    +0.105 C 
BRANCH  25  26
ATOM     26  C   UNL     1      -0.092   0.187  -1.772  0.00  0.00    -0.036 A 
ATOM     27  C   UNL     1      -0.142   0.120  -0.392  0.00  0.00    +0.004 A 
ATOM     28  C   UNL     1      -0.497  -1.063   0.230  0.00  0.00    +0.000 A 
ATOM     29  C   UNL     1      -0.803  -2.178  -0.528  0.00  0.00    +0.000 A 
ATOM     30  C   UNL     1      -0.754  -2.110  -1.907  0.00  0.00    +0.000 A 
ATOM     31  C   UNL     1      -0.403  -0.926  -2.530  0.00  0.00    +0.004 A 
ENDBRANCH  25  26
BRANCH  25  33
ATOM     32  C   UNL     1      -0.375   3.851  -2.839  0.00  0.00    +0.005 C 
ATOM     33  C   UNL     1      -0.693   2.576  -2.056  0.00  0.00    +0.014 C 
ENDBRANCH  25  33
ENDBRANCH  22  25
BRANCH  24  34
ATOM     34  C   UNL     1       2.571   0.570  -3.880  0.00  0.00    +0.183 C 
BRANCH  34  35
ATOM     35  C   UNL     1       2.457   1.369  -5.152  0.00  0.00    +0.122 A 
ATOM     36  C   UNL     1       3.465   1.652  -5.997  0.00  0.00    +0.046 A 
ATOM     37  C   UNL     1       2.914   2.417  -7.050  0.00  0.00    +0.041 A 
ATOM     38  C   UNL     1       1.602   2.557  -6.786  0.00  0.00    +0.195 A 
ATOM     39  O   UNL     1       1.330   1.915  -5.638  0.00  0.00    -0.466 OA
ENDBRANCH  34  35
ENDBRANCH  24  34
ENDBRANCH   1  24
TORSDOF 12
