REMARK  Name = ZINC36118812
REMARK  7 active torsions:
REMARK  status: ('A' for Active; 'I' for Inactive)
REMARK    1  A    between atoms: C_1  and  C_2
REMARK    2  A    between atoms: C_8  and  N_10
REMARK    3  A    between atoms: C_11  and  C_13
REMARK    4  A    between atoms: C_16  and  C_19
REMARK    5  A    between atoms: C_19  and  N_20
REMARK    6  A    between atoms: N_20  and  C_21
REMARK    7  A    between atoms: C_25  and  O_26
REMARK                            x       y       z     vdW  Elec       q    Type
REMARK                         _______ _______ _______ _____ _____    ______ ____
ROOT
ATOM      1  C   UNL     1       0.033   0.579   4.842  0.00  0.00    +0.075 C 
ATOM      2  C   UNL     1      -0.539   1.976   4.589  0.00  0.00    +0.013 C 
ATOM      3  C   UNL     1       0.598   2.937   4.240  0.00  0.00    +0.006 C 
ATOM      4  C   UNL     1       1.592   2.996   5.402  0.00  0.00    +0.006 C 
ATOM      5  C   UNL     1       2.164   1.599   5.654  0.00  0.00    +0.006 C 
ATOM      6  C   UNL     1       1.026   0.638   6.004  0.00  0.00    +0.013 C 
ENDROOT
BRANCH   1   8
ATOM      7  N   UNL     1       0.056  -0.038   2.447  0.00  0.00    -0.312 N 
ATOM      8  C   UNL     1       0.738   0.093   3.602  0.00  0.00    +0.216 C 
ATOM      9  O   UNL     1       1.919  -0.179   3.644  0.00  0.00    -0.276 OA
ATOM     10  H   UNL     1      -0.888   0.180   2.413  0.00  0.00    +0.149 HD
BRANCH   7  17
ATOM     11  C   UNL     1      -0.019   1.526   0.010  0.00  0.00    +0.009 C 
ATOM     12  C   UNL     1       0.002  -0.004   0.002  0.00  0.00    +0.006 C 
ATOM     13  C   UNL     1       0.718  -0.497  -1.257  0.00  0.00    +0.005 C 
ATOM     14  C   UNL     1       0.739  -2.027  -1.265  0.00  0.00    +0.000 C 
ATOM     15  C   UNL     1       1.479  -2.534  -0.026  0.00  0.00    +0.002 C 
ATOM     16  C   UNL     1       0.763  -2.041   1.233  0.00  0.00    +0.022 C 
ATOM     17  C   UNL     1       0.742  -0.511   1.242  0.00  0.00    +0.076 C 
ENDBRANCH   7  17
ENDBRANCH   1   8
BRANCH   4  18
ATOM     18  C   UNL     1       2.729   3.957   5.052  0.00  0.00    +0.105 C 
BRANCH  18  19
ATOM     19  N   UNL     1       3.616   4.105   6.209  0.00  0.00    -0.339 N 
ATOM     20  H   UNL     1       3.427   3.624   7.030  0.00  0.00    +0.146 HD
BRANCH  19  21
ATOM     21  C   UNL     1       4.714   4.924   6.131  0.00  0.00    +0.101 C 
ATOM     22  C   UNL     1       5.789   5.289   7.071  0.00  0.00    +0.114 C 
ATOM     23  C   UNL     1       6.349   6.149   6.000  0.00  0.00    +0.247 C 
ATOM     24  O   UNL     1       7.311   6.885   5.888  0.00  0.00    -0.282 OA
ATOM     25  C   UNL     1       5.250   5.726   5.135  0.00  0.00    +0.189 C 
ATOM     26  N   UNL     1       6.107   4.989   8.299  0.00  0.00    -0.366 N 
ATOM     27  C   UNL     1       5.365   4.073   9.177  0.00  0.00    +0.116 C 
ATOM     28  C   UNL     1       6.095   4.049  10.536  0.00  0.00    +0.023 C 
ATOM     29  C   UNL     1       6.883   5.386  10.531  0.00  0.00    +0.023 C 
ATOM     30  C   UNL     1       7.274   5.508   9.035  0.00  0.00    +0.116 C 
BRANCH  25  31
ATOM     31  O   UNL     1       4.894   6.008   3.858  0.00  0.00    -0.502 OA
ATOM     32  H   UNL     1       5.490   6.624   3.410  0.00  0.00    +0.292 HD
ENDBRANCH  25  31
ENDBRANCH  19  21
ENDBRANCH  18  19
ENDBRANCH   4  18
TORSDOF 6
