REMARK  Name = ZINC39851613
REMARK  13 active torsions:
REMARK  status: ('A' for Active; 'I' for Inactive)
REMARK    1  A    between atoms: C_1  and  C_2
REMARK    2  A    between atoms: C_2  and  O_3
REMARK    3  A    between atoms: O_3  and  C_4
REMARK    4  A    between atoms: C_4  and  C_5
REMARK    5  A    between atoms: C_5  and  C_6
REMARK    6  A    between atoms: C_6  and  N_7
REMARK    7  A    between atoms: C_11  and  C_12
REMARK    8  A    between atoms: C_13  and  C_31
REMARK    9  A    between atoms: C_14  and  C_29
REMARK   10  A    between atoms: N_17  and  C_28
REMARK   11  A    between atoms: C_18  and  N_19
REMARK   12  A    between atoms: N_19  and  C_20
REMARK   13  A    between atoms: C_20  and  C_21
REMARK                            x       y       z     vdW  Elec       q    Type
REMARK                         _______ _______ _______ _____ _____    ______ ____
ROOT
ATOM      1  C   UNL     1      -6.570  -5.155   3.551  0.00  0.00    +0.019 A 
ATOM      2  C   UNL     1      -5.219  -4.829   3.759  0.00  0.00    -0.017 A 
ATOM      3  C   UNL     1      -4.746  -4.720   5.064  0.00  0.00    +0.120 A 
ATOM      4  C   UNL     1      -5.634  -4.939   6.148  0.00  0.00    +0.270 A 
ATOM      5  O   UNL     1      -5.226  -4.845   7.292  0.00  0.00    -0.266 OA
ATOM      6  N   UNL     1      -6.923  -5.250   5.922  0.00  0.00    -0.298 N 
ATOM      7  C   UNL     1      -7.410  -5.357   4.659  0.00  0.00    +0.109 A 
ATOM      8  C   UNL     1      -7.819  -5.472   7.060  0.00  0.00    +0.154 C 
ATOM      9  C   UNL     1      -4.297  -4.602   2.589  0.00  0.00    +0.046 C 
ENDROOT
BRANCH   1  14
ATOM     10  N   UNL     1      -7.142  -1.906   0.762  0.00  0.00    -0.255 N 
ATOM     11  C   UNL     1      -6.981  -2.802   1.721  0.00  0.00    +0.258 C 
ATOM     12  O   UNL     1      -6.657  -2.465   2.846  0.00  0.00    -0.269 OA
ATOM     13  C   UNL     1      -7.197  -4.176   1.399  0.00  0.00    +0.077 C 
ATOM     14  C   UNL     1      -7.099  -5.277   2.192  0.00  0.00    +0.032 C 
ATOM     15  S   UNL     1      -7.634  -4.055  -0.331  0.00  0.00    -0.061 S 
ATOM     16  C   UNL     1      -7.507  -2.280  -0.484  0.00  0.00    +0.121 C 
ATOM     17  S   UNL     1      -7.777  -1.300  -1.862  0.00  0.00    -0.027 S 
BRANCH  10  18
ATOM     18  C   UNL     1      -6.928  -0.487   1.057  0.00  0.00    +0.117 C 
BRANCH  18  19
ATOM     19  C   UNL     1      -8.243   0.140   1.525  0.00  0.00    +0.047 C 
BRANCH  19  20
ATOM     20  C   UNL     1      -8.020   1.622   1.833  0.00  0.00    +0.161 C 
BRANCH  20  21
ATOM     21  O   UNL     1      -9.248   2.208   2.270  0.00  0.00    -0.380 OA
BRANCH  21  23
ATOM     22  C   UNL     1     -10.514   4.117   3.039  0.00  0.00    +0.034 C 
ATOM     23  C   UNL     1      -9.148   3.599   2.585  0.00  0.00    +0.156 C 
ENDBRANCH  21  23
ENDBRANCH  20  21
ENDBRANCH  19  20
ENDBRANCH  18  19
ENDBRANCH  10  18
ENDBRANCH   1  14
BRANCH   7  24
ATOM     24  N   UNL     1      -8.724  -5.668   4.464  0.00  0.00    -0.326 N 
ATOM     25  H   UNL     1      -9.319  -5.759   5.225  0.00  0.00    +0.148 HD
BRANCH  24  26
ATOM     26  C   UNL     1      -9.236  -5.867   3.106  0.00  0.00    +0.139 C 
BRANCH  26  27
ATOM     27  C   UNL     1     -10.710  -6.176   3.165  0.00  0.00    -0.012 A 
ATOM     28  C   UNL     1     -11.146  -7.483   3.066  0.00  0.00    +0.006 A 
ATOM     29  C   UNL     1     -12.498  -7.767   3.120  0.00  0.00    +0.000 A 
ATOM     30  C   UNL     1     -13.414  -6.743   3.273  0.00  0.00    +0.001 A 
ATOM     31  C   UNL     1     -12.979  -5.435   3.372  0.00  0.00    +0.020 A 
ATOM     32  C   UNL     1     -11.625  -5.151   3.324  0.00  0.00    +0.046 A 
ATOM     33 CL   UNL     1     -11.078  -3.509   3.455  0.00  0.00    -0.083 Cl
ENDBRANCH  26  27
ENDBRANCH  24  26
ENDBRANCH   7  24
BRANCH   3  34
ATOM     34  C   UNL     1      -3.374  -4.390   5.309  0.00  0.00    +0.105 C 
ATOM     35  N   UNL     1      -2.286  -4.128   5.504  0.00  0.00    -0.191 NA
ENDBRANCH   3  34
TORSDOF 10
