REMARK  Name = ZINC15943635
REMARK  8 active torsions:
REMARK  status: ('A' for Active; 'I' for Inactive)
REMARK    1  A    between atoms: C_1  and  C_2
REMARK    2  A    between atoms: C_2  and  C_3
REMARK    3  A    between atoms: N_9  and  C_10
REMARK    4  A    between atoms: C_10  and  C_11
REMARK    5  A    between atoms: C_11  and  C_12
REMARK    6  A    between atoms: C_12  and  N_13
REMARK    7  A    between atoms: C_14  and  C_16
REMARK    8  A    between atoms: C_29  and  C_33
REMARK                            x       y       z     vdW  Elec       q    Type
REMARK                         _______ _______ _______ _____ _____    ______ ____
ROOT
ATOM      1  C   UNL     1      -3.144   5.737   5.757  0.00  0.00    +0.092 C 
ATOM      2  C   UNL     1      -2.973   7.254   5.862  0.00  0.00    +0.016 C 
ATOM      3  C   UNL     1      -3.478   7.733   7.226  0.00  0.00    +0.020 C 
ATOM      4  C   UNL     1      -2.647   7.075   8.332  0.00  0.00    +0.107 C 
ATOM      5  N   UNL     1      -2.688   5.617   8.151  0.00  0.00    -0.307 N 
ATOM      6  C   UNL     1      -2.311   5.056   6.847  0.00  0.00    +0.119 C 
ATOM      7  C   UNL     1      -3.075   4.789   9.189  0.00  0.00    +0.184 A 
ATOM      8  N   UNL     1      -3.445   5.108  10.401  0.00  0.00    -0.139 NA
ATOM      9  N   UNL     1      -3.806   4.135  11.329  0.00  0.00    -0.170 N 
ATOM     10  C   UNL     1      -4.208   4.336  12.618  0.00  0.00    +0.275 A 
ATOM     11  O   UNL     1      -4.281   5.470  13.067  0.00  0.00    -0.266 OA
ATOM     12  C   UNL     1      -4.536   3.245  13.423  0.00  0.00    +0.095 A 
ATOM     13  C   UNL     1      -4.452   1.968  12.910  0.00  0.00    +0.046 A 
ATOM     14  N   UNL     1      -4.056   1.808  11.649  0.00  0.00    -0.227 NA
ATOM     15  C   UNL     1      -3.751   2.838  10.902  0.00  0.00    +0.200 A 
ATOM     16  S   UNL     1      -3.205   3.008   9.216  0.00  0.00    -0.013 S 
ATOM     17  C   UNL     1      -4.801   0.774  13.761  0.00  0.00    +0.066 C 
ENDROOT
BRANCH   1  19
ATOM     18  N   UNL     1      -2.734   3.963   4.083  0.00  0.00    -0.315 N 
ATOM     19  C   UNL     1      -2.678   5.271   4.402  0.00  0.00    +0.218 C 
ATOM     20  O   UNL     1      -2.252   6.074   3.598  0.00  0.00    -0.275 OA
ATOM     21  H   UNL     1      -3.075   3.321   4.726  0.00  0.00    +0.149 HD
BRANCH  18  22
ATOM     22  C   UNL     1      -2.280   3.510   2.765  0.00  0.00    +0.102 C 
BRANCH  22  23
ATOM     23  C   UNL     1      -2.450   1.993   2.662  0.00  0.00    +0.000 C 
BRANCH  23  24
ATOM     24  C   UNL     1      -1.976   1.520   1.286  0.00  0.00    -0.077 C 
BRANCH  24  30
ATOM     25  C   UNL     1      -1.571  -0.405  -0.084  0.00  0.00    -0.069 C 
ATOM     26  C   UNL     1      -1.665  -1.931  -0.156  0.00  0.00    -0.015 C 
ATOM     27  C   UNL     1      -3.135  -2.351  -0.067  0.00  0.00    -0.003 C 
ATOM     28  C   UNL     1      -3.737  -1.793   1.226  0.00  0.00    -0.019 C 
ATOM     29  C   UNL     1      -3.567  -0.273   1.247  0.00  0.00    -0.078 C 
ATOM     30  N   UNL     1      -2.139   0.063   1.186  0.00  0.00    +0.382 N 
ATOM     31  H   UNL     1      -1.656  -0.380   1.953  0.00  0.00    -0.081 HD
BRANCH  25  33
ATOM     32  C   UNL     1       0.472  -0.418  -1.521  0.00  0.00    +0.002 C 
ATOM     33  C   UNL     1      -0.104   0.020  -0.173  0.00  0.00    -0.019 C 
ENDBRANCH  25  33
ENDBRANCH  24  30
ENDBRANCH  23  24
ENDBRANCH  22  23
ENDBRANCH  18  22
ENDBRANCH   1  19
TORSDOF 6
