REMARK  Name = ZINC03290731
REMARK  12 active torsions:
REMARK  status: ('A' for Active; 'I' for Inactive)
REMARK    1  A    between atoms: C_1  and  C_2
REMARK    2  A    between atoms: C_5  and  O_9
REMARK    3  A    between atoms: O_9  and  C_10
REMARK    4  A    between atoms: C_10  and  C_11
REMARK    5  A    between atoms: C_14  and  C_17
REMARK    6  A    between atoms: C_17  and  O_19
REMARK    7  A    between atoms: O_19  and  C_20
REMARK    8  A    between atoms: C_20  and  C_21
REMARK    9  A    between atoms: C_21  and  C_23
REMARK   10  A    between atoms: C_23  and  C_25
REMARK   11  A    between atoms: C_23  and  C_27
REMARK   12  A    between atoms: C_27  and  C_28
REMARK                            x       y       z     vdW  Elec       q    Type
REMARK                         _______ _______ _______ _____ _____    ______ ____
ROOT
ATOM      1  C   UNL     1       1.843  -6.247  -0.427  0.00  0.00    -0.010 A 
ATOM      2  C   UNL     1       1.749  -6.880   0.800  0.00  0.00    +0.008 A 
ATOM      3  C   UNL     1       1.488  -8.233   0.864  0.00  0.00    +0.015 A 
ATOM      4  C   UNL     1       1.318  -8.964  -0.314  0.00  0.00    +0.059 A 
ATOM      5  C   UNL     1       1.413  -8.319  -1.548  0.00  0.00    +0.015 A 
ATOM      6  C   UNL     1       1.669  -6.964  -1.597  0.00  0.00    +0.008 A 
ENDROOT
BRANCH   4   7
ATOM      7  C   UNL     1       1.039 -10.413  -0.253  0.00  0.00    +0.340 C 
ATOM      8  O   UNL     1       0.957 -10.972   0.822  0.00  0.00    -0.245 OA
BRANCH   7   9
ATOM      9  O   UNL     1       0.875 -11.115  -1.391  0.00  0.00    -0.453 OA
BRANCH   9  10
ATOM     10  C   UNL     1       0.608 -12.513  -1.258  0.00  0.00    +0.308 C 
BRANCH  10  11
ATOM     11  C   UNL     1       0.456 -13.127  -2.626  0.00  0.00    +0.193 C 
ATOM     12  O   UNL     1       0.565 -12.440  -3.612  0.00  0.00    -0.292 OA
BRANCH  11  13
ATOM     13  C   UNL     1       0.167 -14.600  -2.762  0.00  0.00    +0.204 C 
BRANCH  13  14
ATOM     14  C   UNL     1      -0.581 -14.849  -4.046  0.00  0.00    +0.031 C 
ATOM     15  C   UNL     1      -1.970 -14.293  -4.230  0.00  0.00    +0.062 C 
ATOM     16  N   UNL     1      -0.037 -15.532  -4.981  0.00  0.00    -0.307 NA
ATOM     17  H   UNL     1       0.824 -15.954  -4.836  0.00  0.00    +0.186 HD
ENDBRANCH  13  14
BRANCH  13  18
ATOM     18  C   UNL     1       1.434 -15.349  -2.779  0.00  0.00    +0.080 C 
ATOM     19  N   UNL     1       2.412 -15.927  -2.793  0.00  0.00    -0.195 NA
ENDBRANCH  13  18
ENDBRANCH  11  13
ENDBRANCH  10  11
ENDBRANCH   9  10
ENDBRANCH   7   9
ENDBRANCH   4   7
BRANCH   1  20
ATOM     20  C   UNL     1       2.128  -4.768  -0.488  0.00  0.00    +0.264 C 
BRANCH  20  21
ATOM     21  O   UNL     1       0.896  -4.044  -0.469  0.00  0.00    -0.485 OA
BRANCH  21  26
ATOM     22  C   UNL     1       1.227   1.576  -0.676  0.00  0.00    +0.044 C 
ATOM     23  C   UNL     1       1.139   0.073  -0.621  0.00  0.00    -0.048 A 
ATOM     24  C   UNL     1       1.056  -0.657  -1.792  0.00  0.00    +0.022 A 
ATOM     25  C   UNL     1       0.975  -2.036  -1.744  0.00  0.00    +0.061 A 
ATOM     26  C   UNL     1       0.976  -2.688  -0.519  0.00  0.00    +0.149 A 
ATOM     27  C   UNL     1       1.060  -1.953   0.655  0.00  0.00    +0.061 A 
ATOM     28  C   UNL     1       1.146  -0.574   0.601  0.00  0.00    +0.022 A 
ATOM     29 BR   UNL     1       1.062  -2.837   2.327  0.00  0.00    -0.046 Br
ATOM     30 BR   UNL     1       0.861  -3.034  -3.347  0.00  0.00    -0.046 Br
ENDBRANCH  21  26
ENDBRANCH  20  21
ENDBRANCH   1  20
TORSDOF 10
