REMARK  Name = ZINC65056600
REMARK  5 active torsions:
REMARK  status: ('A' for Active; 'I' for Inactive)
REMARK    1  A    between atoms: C_1  and  C_2
REMARK    2  A    between atoms: C_6  and  C_11
REMARK    3  A    between atoms: C_11  and  C_12
REMARK    4  A    between atoms: C_12  and  C_13
REMARK    5  A    between atoms: N_15  and  C_16
REMARK                            x       y       z     vdW  Elec       q    Type
REMARK                         _______ _______ _______ _____ _____    ______ ____
ROOT
ATOM      1  C   UNL     1       0.395   1.499  -0.054  0.00  0.00    +0.070 C 
ATOM      2  C   UNL     1       0.342  -0.007  -0.051  0.00  0.00    +0.093 A 
ATOM      3  C   UNL     1       0.063  -0.866  -1.198  0.00  0.00    +0.103 A 
ATOM      4  C   UNL     1      -0.225  -0.643  -2.556  0.00  0.00    +0.138 A 
ATOM      5  N   UNL     1      -0.432  -1.698  -3.338  0.00  0.00    -0.216 NA
ATOM      6  C   UNL     1      -0.370  -2.925  -2.856  0.00  0.00    +0.135 A 
ATOM      7  N   UNL     1      -0.105  -3.180  -1.592  0.00  0.00    -0.195 NA
ATOM      8  C   UNL     1       0.117  -2.191  -0.731  0.00  0.00    +0.263 A 
ATOM      9  O   UNL     1       0.404  -2.134   0.580  0.00  0.00    -0.334 OA
ATOM     10  N   UNL     1       0.543  -0.783   0.973  0.00  0.00    -0.080 NA
ATOM     11  N   UNL     1      -0.290   0.639  -3.064  0.00  0.00    -0.314 N 
ATOM     12  C   UNL     1      -1.572   1.307  -3.096  0.00  0.00    +0.106 C 
ATOM     13  C   UNL     1      -2.290   0.991  -4.431  0.00  0.00    +0.019 C 
ATOM     14  C   UNL     1      -1.624   1.683  -5.545  0.00  0.00    +0.002 C 
ATOM     15  C   UNL     1      -0.180   1.251  -5.781  0.00  0.00    +0.002 C 
ATOM     16  C   UNL     1       0.732   2.036  -4.871  0.00  0.00    +0.019 C 
ATOM     17  C   UNL     1       0.952   1.273  -3.547  0.00  0.00    +0.106 C 
ENDROOT
BRANCH   6  18
ATOM     18  C   UNL     1      -0.614  -4.083  -3.790  0.00  0.00    +0.085 C 
BRANCH  18  19
ATOM     19  C   UNL     1       0.712  -4.524  -4.412  0.00  0.00    +0.103 C 
BRANCH  19  20
ATOM     20  C   UNL     1       0.468  -5.681  -5.346  0.00  0.00    +0.213 C 
ATOM     21  O   UNL     1      -0.656  -6.111  -5.499  0.00  0.00    -0.276 OA
ATOM     22  N   UNL     1       1.499  -6.239  -6.012  0.00  0.00    -0.318 N 
ATOM     23  C   UNL     1       1.262  -7.364  -6.920  0.00  0.00    +0.128 C 
ATOM     24  H   UNL     1       2.398  -5.895  -5.890  0.00  0.00    +0.148 HD
ENDBRANCH  19  20
ENDBRANCH  18  19
ENDBRANCH   6  18
TORSDOF 3
