REMARK  Name = ZINC63375909
REMARK  4 active torsions:
REMARK  status: ('A' for Active; 'I' for Inactive)
REMARK    1  A    between atoms: C_1  and  C_2
REMARK    2  A    between atoms: N_20  and  C_23
REMARK    3  A    between atoms: C_28  and  C_29
REMARK    4  A    between atoms: N_31  and  C_32
REMARK                            x       y       z     vdW  Elec       q    Type
REMARK                         _______ _______ _______ _____ _____    ______ ____
ROOT
ATOM      1  C   UNL     1      -0.019   1.526   0.010  0.00  0.00    +0.030 C 
ATOM      2  C   UNL     1       0.002  -0.004   0.002  0.00  0.00    +0.102 C 
ATOM      3  C   UNL     1       0.746  -0.512  -1.242  0.00  0.00    +0.126 C 
ATOM      4  C   UNL     1       1.059  -1.983  -1.005  0.00  0.00    -0.035 C 
ATOM      5  C   UNL     1       0.515  -2.649  -2.019  0.00  0.00    -0.001 A 
ATOM      6  C   UNL     1       0.534  -4.077  -2.372  0.00  0.00    +0.010 A 
ATOM      7  C   UNL     1      -0.147  -4.425  -3.496  0.00  0.00    +0.001 A 
ATOM      8  C   UNL     1      -0.837  -3.506  -4.293  0.00  0.00    +0.002 A 
ATOM      9  C   UNL     1      -0.904  -2.174  -4.045  0.00  0.00    +0.026 A 
ATOM     10  C   UNL     1      -0.223  -1.686  -2.892  0.00  0.00    +0.043 A 
ATOM     11  N   UNL     1      -0.104  -0.453  -2.433  0.00  0.00    -0.376 N 
ATOM     12  C   UNL     1       1.790  -2.488   0.217  0.00  0.00    +0.065 C 
ATOM     13  C   UNL     1       1.043  -1.923   1.438  0.00  0.00    +0.169 C 
ATOM     14  N   UNL     1       0.736  -0.502   1.173  0.00  0.00    -0.268 N 
ATOM     15  C   UNL     1       1.272   0.204   2.176  0.00  0.00    +0.317 C 
ATOM     16  O   UNL     1       1.105   1.398   2.329  0.00  0.00    -0.252 OA
ATOM     17  N   UNL     1       2.013  -0.559   2.992  0.00  0.00    -0.192 N 
ATOM     18  C   UNL     1       1.969  -1.881   2.635  0.00  0.00    +0.248 C 
ATOM     19  O   UNL     1       2.540  -2.817   3.152  0.00  0.00    -0.273 OA
ATOM     20  H   UNL     1      -0.505   0.348  -2.805  0.00  0.00    +0.160 HD
ENDROOT
BRANCH  17  21
ATOM     21  C   UNL     1       2.738  -0.069   4.080  0.00  0.00    +0.058 A 
ATOM     22  C   UNL     1       2.149   0.003   5.335  0.00  0.00    +0.025 A 
ATOM     23  C   UNL     1       2.867   0.487   6.410  0.00  0.00    +0.002 A 
ATOM     24  C   UNL     1       4.178   0.904   6.246  0.00  0.00    +0.001 A 
ATOM     25  C   UNL     1       4.779   0.840   5.007  0.00  0.00    +0.015 A 
ATOM     26  C   UNL     1       4.066   0.347   3.912  0.00  0.00    +0.059 A 
BRANCH  26  27
ATOM     27  C   UNL     1       4.705   0.270   2.584  0.00  0.00    +0.246 C 
ATOM     28  O   UNL     1       4.080  -0.155   1.632  0.00  0.00    -0.270 OA
ATOM     29  N   UNL     1       5.983   0.670   2.427  0.00  0.00    -0.308 N 
ATOM     30  H   UNL     1       6.482   1.009   3.187  0.00  0.00    +0.149 HD
BRANCH  29  31
ATOM     31  C   UNL     1       6.617   0.594   1.109  0.00  0.00    +0.073 C 
ATOM     32  C   UNL     1       7.186  -0.811   0.897  0.00  0.00    +0.022 C 
ATOM     33  C   UNL     1       7.487  -1.021  -0.588  0.00  0.00    +0.002 C 
ATOM     34  C   UNL     1       6.323  -0.486  -1.425  0.00  0.00    +0.000 C 
ATOM     35  C   UNL     1       6.787   0.733  -2.225  0.00  0.00    +0.000 C 
ATOM     36  C   UNL     1       6.886   1.944  -1.295  0.00  0.00    +0.000 C 
ATOM     37  C   UNL     1       8.146   1.827  -0.436  0.00  0.00    +0.002 C 
ATOM     38  C   UNL     1       7.749   1.620   1.027  0.00  0.00    +0.022 C 
ENDBRANCH  29  31
ENDBRANCH  26  27
ENDBRANCH  17  21
TORSDOF 3
