REMARK  Name = ZINC64427108
REMARK  7 active torsions:
REMARK  status: ('A' for Active; 'I' for Inactive)
REMARK    1  A    between atoms: C_1  and  C_2
REMARK    2  A    between atoms: C_5  and  C_8
REMARK    3  A    between atoms: C_19  and  S_22
REMARK    4  A    between atoms: S_22  and  C_23
REMARK    5  A    between atoms: C_23  and  C_24
REMARK    6  A    between atoms: N_26  and  C_27
REMARK    7  A    between atoms: C_27  and  C_28
REMARK                            x       y       z     vdW  Elec       q    Type
REMARK                         _______ _______ _______ _____ _____    ______ ____
ROOT
ATOM      1  C   UNL     1       0.059  -4.275  -0.021  0.00  0.00    +0.207 C 
ATOM      2  N   UNL     1      -0.816  -4.784   1.045  0.00  0.00    -0.320 N 
ATOM      3  C   UNL     1      -0.382  -4.841   2.368  0.00  0.00    +0.040 A 
ATOM      4  C   UNL     1      -1.269  -4.720   3.424  0.00  0.00    +0.024 A 
ATOM      5  C   UNL     1      -0.808  -4.802   4.725  0.00  0.00    +0.002 A 
ATOM      6  C   UNL     1       0.536  -5.006   4.988  0.00  0.00    +0.001 A 
ATOM      7  C   UNL     1       1.439  -5.121   3.947  0.00  0.00    +0.013 A 
ATOM      8  C   UNL     1       0.988  -5.031   2.640  0.00  0.00    +0.040 A 
ATOM      9  C   UNL     1       1.888  -5.095   1.474  0.00  0.00    +0.168 A 
ATOM     10  N   UNL     1       1.423  -4.748   0.211  0.00  0.00    -0.279 N 
ATOM     11  C   UNL     1       2.462  -4.938  -0.630  0.00  0.00    +0.194 A 
ATOM     12  N   UNL     1       3.484  -5.338   0.102  0.00  0.00    -0.122 NA
ATOM     13  N   UNL     1       3.137  -5.415   1.347  0.00  0.00    -0.128 NA
ATOM     14  H   UNL     1      -1.710  -5.086   0.823  0.00  0.00    +0.148 HD
ENDROOT
BRANCH   1  19
ATOM     15  C   UNL     1      -0.018   1.503   0.010  0.00  0.00    +0.044 C 
ATOM     16  C   UNL     1       0.002  -0.004   0.002  0.00  0.00    -0.050 A 
ATOM     17  C   UNL     1       0.006  -0.689  -1.199  0.00  0.00    +0.004 A 
ATOM     18  C   UNL     1       0.025  -2.071  -1.206  0.00  0.00    +0.007 A 
ATOM     19  C   UNL     1       0.040  -2.768  -0.013  0.00  0.00    -0.007 A 
ATOM     20  C   UNL     1       0.037  -2.084   1.188  0.00  0.00    +0.007 A 
ATOM     21  C   UNL     1       0.023  -0.702   1.195  0.00  0.00    +0.004 A 
ENDBRANCH   1  19
BRANCH  11  22
ATOM     22  S   UNL     1       2.454  -4.697  -2.376  0.00  0.00    -0.077 S 
BRANCH  22  23
ATOM     23  C   UNL     1       4.142  -5.123  -2.885  0.00  0.00    +0.173 C 
BRANCH  23  24
ATOM     24  C   UNL     1       4.274  -4.958  -4.377  0.00  0.00    +0.223 C 
ATOM     25  O   UNL     1       3.322  -4.590  -5.033  0.00  0.00    -0.275 OA
ATOM     26  N   UNL     1       5.449  -5.220  -4.983  0.00  0.00    -0.311 N 
ATOM     27  H   UNL     1       6.210  -5.515  -4.459  0.00  0.00    +0.149 HD
BRANCH  26  28
ATOM     28  C   UNL     1       5.576  -5.060  -6.434  0.00  0.00    +0.151 C 
BRANCH  28  29
ATOM     29  C   UNL     1       7.000  -5.419  -6.863  0.00  0.00    +0.191 C 
ATOM     30  N   UNL     1       7.324  -6.787  -6.440  0.00  0.00    -0.362 N 
ATOM     31  C   UNL     1       8.342  -6.714  -5.632  0.00  0.00    +0.060 A 
ATOM     32  C   UNL     1       9.108  -7.730  -4.896  0.00  0.00    +0.027 A 
ATOM     33  C   UNL     1      10.139  -7.349  -4.115  0.00  0.00    +0.002 A 
ATOM     34  C   UNL     1      10.522  -6.004  -3.967  0.00  0.00    +0.002 A 
ATOM     35  C   UNL     1       9.887  -4.995  -4.596  0.00  0.00    +0.027 A 
ATOM     36  C   UNL     1       8.748  -5.291  -5.476  0.00  0.00    +0.060 A 
ATOM     37  N   UNL     1       7.966  -4.538  -6.194  0.00  0.00    -0.362 N 
ATOM     38  H   UNL     1       6.864  -7.596  -6.712  0.00  0.00    +0.162 HD
ATOM     39  H   UNL     1       8.012  -3.572  -6.273  0.00  0.00    +0.162 HD
ENDBRANCH  28  29
ENDBRANCH  26  28
ENDBRANCH  23  24
ENDBRANCH  22  23
ENDBRANCH  11  22
TORSDOF 6
