REMARK  Name = ZINC35230475
REMARK  11 active torsions:
REMARK  status: ('A' for Active; 'I' for Inactive)
REMARK    1  A    between atoms: C_1  and  C_2
REMARK    2  A    between atoms: C_2  and  C_3
REMARK    3  A    between atoms: C_3  and  C_4
REMARK    4  A    between atoms: C_4  and  O_5
REMARK    5  A    between atoms: O_5  and  C_6
REMARK    6  A    between atoms: C_9  and  C_12
REMARK    7  A    between atoms: N_14  and  C_15
REMARK    8  A    between atoms: N_14  and  C_39
REMARK    9  A    between atoms: C_15  and  C_16
REMARK   10  A    between atoms: C_30  and  C_32
REMARK   11  A    between atoms: C_35  and  C_38
REMARK                            x       y       z     vdW  Elec       q    Type
REMARK                         _______ _______ _______ _____ _____    ______ ____
ROOT
ATOM      1  C   UNL     1      -4.783 -10.867   0.789  0.00  0.00    +0.238 C 
ATOM      2  O   UNL     1      -5.056 -10.313   1.832  0.00  0.00    -0.273 OA
ATOM      3  N   UNL     1      -4.656 -12.208   0.751  0.00  0.00    -0.255 N 
ATOM      4  C   UNL     1      -4.955 -12.972   1.887  0.00  0.00    +0.061 A 
ATOM      5  C   UNL     1      -4.792 -12.439   3.157  0.00  0.00    +0.025 A 
ATOM      6  C   UNL     1      -5.101 -13.199   4.269  0.00  0.00    +0.002 A 
ATOM      7  C   UNL     1      -5.574 -14.491   4.125  0.00  0.00    +0.002 A 
ATOM      8  C   UNL     1      -5.736 -15.035   2.863  0.00  0.00    +0.028 A 
ATOM      9  C   UNL     1      -5.424 -14.282   1.748  0.00  0.00    +0.068 A 
ATOM     10  N   UNL     1      -5.547 -14.798   0.449  0.00  0.00    -0.316 N 
ATOM     11  C   UNL     1      -6.172 -15.916   0.009  0.00  0.00    +0.092 A 
ATOM     12  C   UNL     1      -6.019 -15.983  -1.333  0.00  0.00    +0.020 A 
ATOM     13  C   UNL     1      -5.264 -14.858  -1.733  0.00  0.00    +0.025 A 
ATOM     14  C   UNL     1      -4.986 -14.152  -0.632  0.00  0.00    +0.049 A 
ATOM     15  C   UNL     1      -4.210 -12.870  -0.486  0.00  0.00    +0.159 C 
ENDROOT
BRANCH  15  16
ATOM     16  C   UNL     1      -2.737 -13.177  -0.399  0.00  0.00    -0.021 A 
ATOM     17  C   UNL     1      -2.197 -13.639   0.787  0.00  0.00    +0.006 A 
ATOM     18  C   UNL     1      -0.846 -13.921   0.868  0.00  0.00    +0.004 A 
ATOM     19  C   UNL     1      -0.035 -13.741  -0.237  0.00  0.00    -0.050 A 
ATOM     20  C   UNL     1      -0.576 -13.280  -1.423  0.00  0.00    +0.004 A 
ATOM     21  C   UNL     1      -1.927 -13.003  -1.505  0.00  0.00    +0.006 A 
ATOM     22  C   UNL     1       1.438 -14.047  -0.149  0.00  0.00    +0.044 C 
ENDBRANCH  15  16
BRANCH   1  23
ATOM     23  C   UNL     1      -4.585 -10.056  -0.466  0.00  0.00    +0.204 C 
BRANCH  23  26
ATOM     24  C   UNL     1      -3.978  -7.735  -0.037  0.00  0.00    +0.247 C 
ATOM     25  O   UNL     1      -4.268  -6.612   0.326  0.00  0.00    -0.270 OA
ATOM     26  N   UNL     1      -4.944  -8.659  -0.206  0.00  0.00    -0.286 N 
BRANCH  24  30
ATOM     27  C   UNL     1       0.080  -8.746  -0.773  0.00  0.00    +0.121 A 
ATOM     28  C   UNL     1      -0.384  -7.473  -1.081  0.00  0.00    +0.046 A 
ATOM     29  C   UNL     1      -1.699  -7.141  -0.844  0.00  0.00    +0.016 A 
ATOM     30  C   UNL     1      -2.568  -8.087  -0.293  0.00  0.00    +0.037 A 
ATOM     31  C   UNL     1      -2.098  -9.366   0.014  0.00  0.00    +0.016 A 
ATOM     32  C   UNL     1      -0.782  -9.691  -0.230  0.00  0.00    +0.046 A 
BRANCH  27  33
ATOM     33  O   UNL     1       1.377  -9.069  -1.008  0.00  0.00    -0.492 OA
BRANCH  33  34
ATOM     34  C   UNL     1       2.208  -8.050  -1.567  0.00  0.00    +0.229 C 
BRANCH  34  35
ATOM     35  C   UNL     1       3.625  -8.596  -1.760  0.00  0.00    +0.041 C 
BRANCH  35  37
ATOM     36  C   UNL     1       5.931  -8.051  -2.551  0.00  0.00    +0.004 C 
ATOM     37  C   UNL     1       4.515  -7.505  -2.358  0.00  0.00    -0.000 C 
ENDBRANCH  35  37
ENDBRANCH  34  35
ENDBRANCH  33  34
ENDBRANCH  27  33
ENDBRANCH  24  30
BRANCH  26  38
ATOM     38  C   UNL     1      -6.354  -8.268  -0.131  0.00  0.00    +0.077 C 
ATOM     39  C   UNL     1      -6.679  -6.776  -0.236  0.00  0.00    +0.024 C 
ATOM     40  C   UNL     1      -6.807  -7.494   1.109  0.00  0.00    +0.024 C 
ENDBRANCH  26  38
ENDBRANCH  23  26
ENDBRANCH   1  23
TORSDOF 9
