REMARK  Name = ZINC09861023
REMARK  8 active torsions:
REMARK  status: ('A' for Active; 'I' for Inactive)
REMARK    1  A    between atoms: C_1  and  O_2
REMARK    2  A    between atoms: O_2  and  C_3
REMARK    3  A    between atoms: C_6  and  C_11
REMARK    4  A    between atoms: C_8  and  O_9
REMARK    5  A    between atoms: O_9  and  C_10
REMARK    6  A    between atoms: C_18  and  N_32
REMARK    7  A    between atoms: C_19  and  C_30
REMARK    8  A    between atoms: C_20  and  C_22
REMARK                            x       y       z     vdW  Elec       q    Type
REMARK                         _______ _______ _______ _____ _____    ______ ____
ROOT
ATOM      1  C   UNL     1      -5.441  -2.717  -0.110  0.00  0.00    +0.074 A 
ATOM      2  C   UNL     1      -6.281  -2.380   0.898  0.00  0.00    +0.054 A 
ATOM      3  C   UNL     1      -7.440  -3.172   0.786  0.00  0.00    +0.245 A 
ATOM      4  N   UNL     1      -7.304  -3.953  -0.248  0.00  0.00    -0.135 NA
ATOM      5  N   UNL     1      -6.059  -3.692  -0.842  0.00  0.00    -0.273 N 
ATOM      6  H   UNL     1      -5.700  -4.127  -1.631  0.00  0.00    +0.189 HD
ATOM      7  O   UNL     1      -8.474  -3.065   1.664  0.00  0.00    -0.421 OA
ATOM      8  C   UNL     1      -8.254  -2.378   2.802  0.00  0.00    +0.201 C 
ATOM      9  C   UNL     1      -7.188  -1.580   3.019  0.00  0.00    +0.098 C 
ATOM     10  C   UNL     1      -6.105  -1.359   1.993  0.00  0.00    +0.103 C 
ENDROOT
BRANCH  10  11
ATOM     11  C   UNL     1      -6.225   0.029   1.419  0.00  0.00    -0.016 A 
ATOM     12  C   UNL     1      -7.339   0.377   0.678  0.00  0.00    +0.007 A 
ATOM     13  C   UNL     1      -7.450   1.649   0.151  0.00  0.00    +0.020 A 
ATOM     14  C   UNL     1      -6.445   2.576   0.364  0.00  0.00    +0.042 A 
ATOM     15  C   UNL     1      -5.330   2.229   1.105  0.00  0.00    +0.040 A 
ATOM     16  C   UNL     1      -5.222   0.957   1.636  0.00  0.00    +0.046 A 
ATOM     17 CL   UNL     1      -3.825   0.522   2.571  0.00  0.00    -0.083 Cl
ATOM     18 CL   UNL     1      -6.584   4.175  -0.299  0.00  0.00    -0.083 Cl
ENDBRANCH  10  11
BRANCH   1  22
ATOM     19  C   UNL     1      -1.604  -1.044  -0.863  0.00  0.00    +0.162 A 
ATOM     20  C   UNL     1      -1.943  -1.452   0.418  0.00  0.00    +0.050 A 
ATOM     21  C   UNL     1      -3.187  -1.996   0.666  0.00  0.00    +0.014 A 
ATOM     22  C   UNL     1      -4.107  -2.134  -0.374  0.00  0.00    +0.004 A 
ATOM     23  C   UNL     1      -3.767  -1.722  -1.663  0.00  0.00    +0.059 A 
ATOM     24  C   UNL     1      -2.520  -1.174  -1.904  0.00  0.00    +0.162 A 
BRANCH  19  26
ATOM     25  C   UNL     1       0.513  -0.404   0.011  0.00  0.00    +0.277 C 
ATOM     26  O   UNL     1      -0.377  -0.509  -1.102  0.00  0.00    -0.491 OA
ENDBRANCH  19  26
BRANCH  24  27
ATOM     27  O   UNL     1      -2.187  -0.767  -3.158  0.00  0.00    -0.491 OA
ATOM     28  C   UNL     1      -3.175  -0.931  -4.177  0.00  0.00    +0.277 C 
ENDBRANCH  24  27
ENDBRANCH   1  22
BRANCH   8  29
ATOM     29  N   UNL     1      -9.178  -2.498   3.810  0.00  0.00    -0.328 N 
ATOM     30  H   UNL     1      -9.957  -3.063   3.689  0.00  0.00    +0.145 HD
ATOM     31  H   UNL     1      -9.052  -2.018   4.643  0.00  0.00    +0.145 HD
ENDBRANCH   8  29
BRANCH   9  32
ATOM     32  C   UNL     1      -7.079  -0.912   4.282  0.00  0.00    +0.101 C 
ATOM     33  N   UNL     1      -6.993  -0.383   5.283  0.00  0.00    -0.191 NA
ENDBRANCH   9  32
TORSDOF 6
