REMARK  Name = ZINC64348613
REMARK  6 active torsions:
REMARK  status: ('A' for Active; 'I' for Inactive)
REMARK    1  A    between atoms: C_8  and  C_12
REMARK    2  A    between atoms: N_14  and  C_15
REMARK    3  A    between atoms: C_15  and  C_17
REMARK    4  A    between atoms: C_15  and  C_27
REMARK    5  A    between atoms: C_17  and  C_18
REMARK    6  A    between atoms: N_29  and  C_30
REMARK                            x       y       z     vdW  Elec       q    Type
REMARK                         _______ _______ _______ _____ _____    ______ ____
ROOT
ATOM      1  C   UNL     1       2.022  -6.710   0.804  0.00  0.00    +0.163 C 
ENDROOT
BRANCH   1   4
ATOM      2  C   UNL     1       3.437  -4.766   1.200  0.00  0.00    +0.231 C 
ATOM      3  O   UNL     1       4.406  -5.493   1.137  0.00  0.00    -0.274 OA
ATOM      4  N   UNL     1       2.204  -5.269   0.994  0.00  0.00    -0.302 N 
ATOM      5  H   UNL     1       1.436  -4.676   0.971  0.00  0.00    +0.150 HD
BRANCH   2  13
ATOM      6  C   UNL     1       4.227   1.190  -0.270  0.00  0.00    +0.000 A 
ATOM      7  C   UNL     1       4.824   1.549   0.924  0.00  0.00    +0.000 A 
ATOM      8  C   UNL     1       5.045   0.594   1.896  0.00  0.00    +0.005 A 
ATOM      9  C   UNL     1       4.673  -0.725   1.681  0.00  0.00    -0.030 A 
ATOM     10  C   UNL     1       4.082  -1.083   0.489  0.00  0.00    -0.041 A 
ATOM     11  C   UNL     1       3.857  -0.123  -0.486  0.00  0.00    +0.004 A 
ATOM     12  C   UNL     1       3.672  -2.505   0.205  0.00  0.00    +0.063 C 
ATOM     13  C   UNL     1       3.612  -3.302   1.509  0.00  0.00    +0.145 C 
ATOM     14  N   UNL     1       4.872  -3.094   2.241  0.00  0.00    -0.301 NA
ATOM     15  C   UNL     1       4.930  -1.729   2.774  0.00  0.00    +0.117 C 
ATOM     16  H   UNL     1       4.978  -3.775   2.978  0.00  0.00    +0.123 HD
ENDBRANCH   2  13
ENDBRANCH   1   4
BRANCH   1  17
ATOM     17  C   UNL     1       1.804  -7.370   2.141  0.00  0.00    +0.238 C 
ATOM     18  O   UNL     1       1.800  -6.702   3.153  0.00  0.00    -0.273 OA
ATOM     19  N   UNL     1       1.613  -8.702   2.212  0.00  0.00    -0.284 N 
ATOM     20  H   UNL     1       1.690  -9.246   1.413  0.00  0.00    +0.155 HD
BRANCH  19  21
ATOM     21  C   UNL     1       1.303  -9.300   3.440  0.00  0.00    +0.037 A 
ATOM     22  C   UNL     1       1.780 -10.571   3.733  0.00  0.00    +0.027 A 
ATOM     23  C   UNL     1       1.474 -11.162   4.944  0.00  0.00    +0.051 A 
ATOM     24  C   UNL     1       0.690 -10.489   5.870  0.00  0.00    +0.162 A 
ATOM     25  C   UNL     1       0.213  -9.216   5.580  0.00  0.00    +0.164 A 
ATOM     26  C   UNL     1       0.524  -8.622   4.366  0.00  0.00    +0.072 A 
ATOM     27  O   UNL     1      -0.550  -8.537   6.479  0.00  0.00    -0.485 OA
ATOM     28  C   UNL     1      -1.146  -9.306   7.529  0.00  0.00    +0.270 C 
ATOM     29  C   UNL     1      -0.074 -10.240   8.108  0.00  0.00    +0.270 C 
ATOM     30  O   UNL     1       0.396 -11.089   7.056  0.00  0.00    -0.485 OA
ENDBRANCH  19  21
ENDBRANCH   1  17
BRANCH   1  31
ATOM     31  C   UNL     1       0.806  -6.957  -0.091  0.00  0.00    +0.065 C 
BRANCH  31  32
ATOM     32  C   UNL     1       1.048  -6.345  -1.447  0.00  0.00    -0.039 C 
ATOM     33  C   UNL     1       1.548  -6.964  -2.541  0.00  0.00    -0.001 A 
ATOM     34  C   UNL     1       1.999  -8.339  -2.787  0.00  0.00    +0.010 A 
ATOM     35  C   UNL     1       2.461  -8.669  -4.014  0.00  0.00    +0.001 A 
ATOM     36  C   UNL     1       2.519  -7.733  -5.056  0.00  0.00    +0.002 A 
ATOM     37  C   UNL     1       2.122  -6.451  -4.907  0.00  0.00    +0.026 A 
ATOM     38  C   UNL     1       1.619  -5.995  -3.658  0.00  0.00    +0.043 A 
ATOM     39  N   UNL     1       1.180  -4.822  -3.269  0.00  0.00    -0.380 N 
ATOM     40  C   UNL     1       0.775  -4.917  -1.862  0.00  0.00    +0.144 C 
ATOM     41  H   UNL     1       1.128  -4.026  -3.821  0.00  0.00    +0.160 HD
ENDBRANCH  31  32
ENDBRANCH   1  31
TORSDOF 6
