REMARK  Name = ZINC14754004
REMARK  8 active torsions:
REMARK  status: ('A' for Active; 'I' for Inactive)
REMARK    1  A    between atoms: C_1  and  N_2
REMARK    2  A    between atoms: C_4  and  C_7
REMARK    3  A    between atoms: C_7  and  N_57
REMARK    4  A    between atoms: N_15  and  C_20
REMARK    5  A    between atoms: N_18  and  C_19
REMARK    6  A    between atoms: C_20  and  C_21
REMARK    7  A    between atoms: C_21  and  C_22
REMARK    8  A    between atoms: C_22  and  C_23
REMARK                            x       y       z     vdW  Elec       q    Type
REMARK                         _______ _______ _______ _____ _____    ______ ____
ROOT
ATOM      1  C   UNL     1       2.687   4.297   0.978  0.00  0.00    -0.076 C 
ATOM      2  C   UNL     1       1.163   4.184   1.085  0.00  0.00    +0.017 C 
ATOM      3  C   UNL     1       0.634   3.366  -0.089  0.00  0.00    +0.112 C 
ATOM      4  C   UNL     1       1.070   3.989  -1.412  0.00  0.00    +0.017 C 
ATOM      5  C   UNL     1       2.597   4.108  -1.438  0.00  0.00    -0.076 C 
ATOM      6  C   UNL     1      -0.871   3.261  -0.025  0.00  0.00    +0.247 C 
ATOM      7  O   UNL     1      -1.673   4.170  -0.066  0.00  0.00    -0.273 OA
ATOM      8  N   UNL     1      -1.136   1.942   0.083  0.00  0.00    -0.224 N 
ATOM      9  C   UNL     1      -0.012   1.215   0.103  0.00  0.00    +0.312 C 
ATOM     10  O   UNL     1       0.007   0.003   0.197  0.00  0.00    -0.252 OA
ATOM     11  N   UNL     1       1.095   1.975   0.002  0.00  0.00    -0.274 N 
ATOM     12  C   UNL     1       2.483   1.508  -0.014  0.00  0.00    +0.134 C 
ATOM     13  N   UNL     1       3.029   4.952  -0.303  0.00  0.00    +0.383 N 
ATOM     14  H   UNL     1       2.543   5.855  -0.355  0.00  0.00    -0.081 HD
ENDROOT
BRANCH  13  15
ATOM     15  C   UNL     1       4.486   5.186  -0.376  0.00  0.00    -0.040 C 
BRANCH  15  19
ATOM     16  C   UNL     1       5.887   5.028  -5.186  0.00  0.00    +0.172 C 
ATOM     17  N   UNL     1       5.461   5.522  -3.874  0.00  0.00    -0.274 N 
ATOM     18  C   UNL     1       5.225   4.767  -2.780  0.00  0.00    +0.109 A 
ATOM     19  C   UNL     1       4.850   5.597  -1.779  0.00  0.00    -0.026 A 
ATOM     20  C   UNL     1       4.867   6.905  -2.276  0.00  0.00    +0.136 A 
ATOM     21  N   UNL     1       5.233   6.861  -3.531  0.00  0.00    -0.180 NA
ENDBRANCH  15  19
ENDBRANCH  13  15
BRANCH   8  22
ATOM     22  C   UNL     1      -2.484   1.377   0.171  0.00  0.00    +0.118 C 
BRANCH  22  23
ATOM     23  C   UNL     1      -2.908   1.293   1.638  0.00  0.00    +0.024 C 
BRANCH  23  24
ATOM     24  C   UNL     1      -4.316   0.703   1.730  0.00  0.00    +0.037 C 
BRANCH  24  25
ATOM     25  C   UNL     1      -4.733   0.620   3.175  0.00  0.00    -0.044 A 
ATOM     26  C   UNL     1      -4.472  -0.517   3.925  0.00  0.00    +0.023 A 
ATOM     27  C   UNL     1      -4.865  -0.555   5.250  0.00  0.00    +0.111 A 
ATOM     28  N   UNL     1      -5.491   0.469   5.797  0.00  0.00    -0.263 NA
ATOM     29  C   UNL     1      -5.761   1.563   5.113  0.00  0.00    +0.111 A 
ATOM     30  C   UNL     1      -5.393   1.676   3.786  0.00  0.00    +0.023 A 
ENDBRANCH  24  25
ENDBRANCH  23  24
ENDBRANCH  22  23
ENDBRANCH   8  22
TORSDOF 6
