REMARK  Name = ZINC28053728
REMARK  8 active torsions:
REMARK  status: ('A' for Active; 'I' for Inactive)
REMARK    1  A    between atoms: C_1  and  O_2
REMARK    2  A    between atoms: O_2  and  C_3
REMARK    3  A    between atoms: C_6  and  C_13
REMARK    4  A    between atoms: C_7  and  O_11
REMARK    5  A    between atoms: C_8  and  O_9
REMARK    6  A    between atoms: O_9  and  C_10
REMARK    7  A    between atoms: O_11  and  C_12
REMARK    8  A    between atoms: C_30  and  C_32
REMARK                            x       y       z     vdW  Elec       q    Type
REMARK                         _______ _______ _______ _____ _____    ______ ____
ROOT
ATOM      1  C   UNL     1       0.064  -2.857   2.488  0.00  0.00    +0.238 C 
ATOM      2  C   UNL     1       1.499  -3.091   2.904  0.00  0.00    +0.026 C 
ATOM      3  C   UNL     1       2.135  -4.178   2.463  0.00  0.00    +0.050 C 
ATOM      4  C   UNL     1       1.396  -5.125   1.595  0.00  0.00    +0.038 A 
ATOM      5  C   UNL     1       2.057  -6.077   0.829  0.00  0.00    +0.013 A 
ATOM      6  C   UNL     1       1.327  -6.939   0.034  0.00  0.00    +0.001 A 
ATOM      7  C   UNL     1      -0.055  -6.857   0.000  0.00  0.00    +0.004 A 
ATOM      8  C   UNL     1      -0.721  -5.912   0.759  0.00  0.00    +0.046 A 
ATOM      9  C   UNL     1      -0.002  -5.042   1.558  0.00  0.00    +0.131 A 
ATOM     10  O   UNL     1      -0.618  -4.099   2.316  0.00  0.00    -0.479 OA
ATOM     11  N   UNL     1       3.471  -4.445   2.786  0.00  0.00    -0.282 N 
ATOM     12  C   UNL     1       4.203  -3.418   3.360  0.00  0.00    +0.240 A 
ATOM     13  N   UNL     1       5.483  -3.282   3.556  0.00  0.00    -0.092 NA
ATOM     14  N   UNL     1       5.729  -2.150   4.122  0.00  0.00    -0.021 NA
ATOM     15  N   UNL     1       4.630  -1.498   4.324  0.00  0.00    -0.042 NA
ATOM     16  N   UNL     1       3.598  -2.300   3.839  0.00  0.00    -0.201 N 
ATOM     17  C   UNL     1       2.159  -2.080   3.809  0.00  0.00    +0.174 C 
ATOM     18  H   UNL     1       3.898  -5.438   2.583  0.00  0.00    +0.155 HD
ENDROOT
BRANCH   1  22
ATOM     19  C   UNL     1      -0.006  -0.694  -1.204  0.00  0.00    +0.165 A 
ATOM     20  C   UNL     1      -0.066  -2.080  -1.205  0.00  0.00    +0.050 A 
ATOM     21  C   UNL     1      -0.044  -2.775  -0.011  0.00  0.00    +0.015 A 
ATOM     22  C   UNL     1       0.041  -2.094   1.189  0.00  0.00    +0.042 A 
ATOM     23  C   UNL     1       0.107  -0.709   1.198  0.00  0.00    +0.172 A 
ATOM     24  C   UNL     1       0.086  -0.005  -0.000  0.00  0.00    +0.204 A 
BRANCH  19  26
ATOM     25  C   UNL     1      -0.128  -0.783  -3.577  0.00  0.00    +0.277 C 
ATOM     26  O   UNL     1      -0.033  -0.010  -2.379  0.00  0.00    -0.491 OA
ENDBRANCH  19  26
BRANCH  24  27
ATOM     27  O   UNL     1       0.150   1.354   0.005  0.00  0.00    -0.488 OA
ATOM     28  C   UNL     1       1.451   1.943  -0.050  0.00  0.00    +0.277 C 
ENDBRANCH  24  27
BRANCH  23  29
ATOM     29  O   UNL     1       0.192  -0.039   2.379  0.00  0.00    -0.491 OA
ATOM     30  C   UNL     1      -1.038   0.340   3.000  0.00  0.00    +0.277 C 
ENDBRANCH  23  29
ENDBRANCH   1  22
BRANCH  17  31
ATOM     31  C   UNL     1       1.603  -2.220   5.203  0.00  0.00    -0.019 A 
ATOM     32  C   UNL     1       1.730  -3.419   5.881  0.00  0.00    +0.006 A 
ATOM     33  C   UNL     1       1.225  -3.545   7.161  0.00  0.00    +0.000 A 
ATOM     34  C   UNL     1       0.583  -2.477   7.760  0.00  0.00    +0.000 A 
ATOM     35  C   UNL     1       0.452  -1.281   7.080  0.00  0.00    +0.000 A 
ATOM     36  C   UNL     1       0.962  -1.152   5.802  0.00  0.00    +0.006 A 
ENDBRANCH  17  31
TORSDOF 5
