REMARK  Name = ZINC12554424
REMARK  7 active torsions:
REMARK  status: ('A' for Active; 'I' for Inactive)
REMARK    1  A    between atoms: C_3  and  C_32
REMARK    2  A    between atoms: C_6  and  C_7
REMARK    3  A    between atoms: C_7  and  N_61
REMARK    4  A    between atoms: N_11  and  C_14
REMARK    5  A    between atoms: C_17  and  N_29
REMARK    6  A    between atoms: C_19  and  S_20
REMARK    7  A    between atoms: S_20  and  N_23
REMARK                            x       y       z     vdW  Elec       q    Type
REMARK                         _______ _______ _______ _____ _____    ______ ____
ROOT
ATOM      1  C   UNL     1      -1.188  -0.218  -0.263  0.00  0.00    +0.056 A 
ATOM      2  C   UNL     1      -2.125   0.171   0.685  0.00  0.00    +0.027 A 
ATOM      3  C   UNL     1      -3.469  -0.055   0.458  0.00  0.00    +0.034 A 
ATOM      4  C   UNL     1      -3.880  -0.678  -0.706  0.00  0.00    +0.128 A 
ATOM      5  C   UNL     1      -2.949  -1.072  -1.649  0.00  0.00    +0.063 A 
ATOM      6  C   UNL     1      -1.604  -0.844  -1.431  0.00  0.00    +0.129 A 
ENDROOT
BRANCH   1  10
ATOM      7  C   UNL     1       2.478   1.310   1.485  0.00  0.00    -0.077 C 
ATOM      8  C   UNL     1       1.953   1.669   0.119  0.00  0.00    +0.000 C 
ATOM      9  C   UNL     1       0.434   1.385   0.075  0.00  0.00    +0.103 C 
ATOM     10  N   UNL     1       0.172   0.014  -0.040  0.00  0.00    -0.330 N 
ATOM     11  C   UNL     1       0.670  -0.803   1.084  0.00  0.00    +0.086 C 
ATOM     12  C   UNL     1       2.138  -1.064   0.859  0.00  0.00    -0.059 C 
ATOM     13  N   UNL     1       2.998  -0.093   1.606  0.00  0.00    +0.383 N 
ATOM     14  H   UNL     1       3.000  -0.355   2.599  0.00  0.00    -0.081 HD
BRANCH  13  15
ATOM     15  C   UNL     1       4.378  -0.156   1.094  0.00  0.00    -0.043 C 
BRANCH  15  21
ATOM     16  C   UNL     1       5.616  -1.615   2.706  0.00  0.00    +0.003 A 
ATOM     17  C   UNL     1       6.154  -2.830   3.077  0.00  0.00    +0.019 A 
ATOM     18  C   UNL     1       6.052  -3.927   2.219  0.00  0.00    +0.052 A 
ATOM     19  C   UNL     1       5.401  -3.787   0.992  0.00  0.00    +0.019 A 
ATOM     20  C   UNL     1       4.864  -2.567   0.635  0.00  0.00    +0.003 A 
ATOM     21  C   UNL     1       4.968  -1.485   1.491  0.00  0.00    -0.064 A 
BRANCH  18  22
ATOM     22  C   UNL     1       6.613  -5.189   2.595  0.00  0.00    +0.099 C 
ATOM     23  N   UNL     1       7.058  -6.191   2.894  0.00  0.00    -0.191 NA
ENDBRANCH  18  22
ENDBRANCH  15  21
ENDBRANCH  13  15
ENDBRANCH   1  10
BRANCH   6  24
ATOM     24  S   UNL     1      -0.418  -1.346  -2.634  0.00  0.00    +0.063 S 
ATOM     25  O   UNL     1       0.412  -0.220  -2.881  0.00  0.00    -0.153 OA
ATOM     26  O   UNL     1       0.101  -2.594  -2.195  0.00  0.00    -0.153 OA
BRANCH  24  27
ATOM     27  N   UNL     1      -1.242  -1.644  -4.039  0.00  0.00    -0.172 NA
ATOM     28  C   UNL     1      -1.648  -3.010  -4.404  0.00  0.00    +0.137 C 
ATOM     29  C   UNL     1      -3.143  -2.987  -4.761  0.00  0.00    +0.177 C 
ATOM     30  O   UNL     1      -3.376  -1.973  -5.741  0.00  0.00    -0.377 OA
ATOM     31  C   UNL     1      -3.078  -0.648  -5.294  0.00  0.00    +0.177 C 
ATOM     32  C   UNL     1      -1.585  -0.551  -4.963  0.00  0.00    +0.137 C 
ENDBRANCH  24  27
ENDBRANCH   6  24
BRANCH   4  33
ATOM     33  N   UNL     1      -5.320  -0.923  -0.943  0.00  0.00    +0.056 N 
ATOM     34  O   UNL     1      -5.684  -1.472  -1.967  0.00  0.00    -0.126 OA
ATOM     35  O   UNL     1      -6.141  -0.577  -0.113  0.00  0.00    -0.126 OA
ENDBRANCH   4  33
TORSDOF 7
