REMARK  Name = ZINC49057002
REMARK  6 active torsions:
REMARK  status: ('A' for Active; 'I' for Inactive)
REMARK    1  A    between atoms: C_1  and  N_2
REMARK    2  A    between atoms: N_2  and  C_3
REMARK    3  A    between atoms: N_2  and  C_12
REMARK    4  A    between atoms: C_3  and  C_4
REMARK    5  A    between atoms: C_8  and  C_10
REMARK    6  A    between atoms: C_16  and  N_17
REMARK                            x       y       z     vdW  Elec       q    Type
REMARK                         _______ _______ _______ _____ _____    ______ ____
ROOT
ATOM      1  C   UNL     1      -0.018   1.461   0.010  0.00  0.00    +0.129 C 
ATOM      2  N   UNL     1       0.002  -0.004   0.002  0.00  0.00    -0.326 N 
ENDROOT
BRANCH   2   3
ATOM      3  C   UNL     1       0.000  -0.701  -1.221  0.00  0.00    +0.068 A 
ATOM      4  C   UNL     1       1.192  -1.039  -1.842  0.00  0.00    +0.033 A 
ATOM      5  C   UNL     1       1.152  -1.711  -3.019  0.00  0.00    +0.049 A 
ATOM      6  S   UNL     1      -0.604  -1.887  -3.287  0.00  0.00    -0.071 S 
ATOM      7  C   UNL     1      -1.171  -1.060  -1.810  0.00  0.00    +0.184 A 
BRANCH   7   8
ATOM      8  N   UNL     1      -2.558  -0.823  -1.349  0.00  0.00    +0.065 N 
ATOM      9  O   UNL     1      -2.757  -0.235  -0.311  0.00  0.00    -0.126 OA
ATOM     10  O   UNL     1      -3.490  -1.217  -2.009  0.00  0.00    -0.126 OA
ENDBRANCH   7   8
ENDBRANCH   2   3
BRANCH   2  11
ATOM     11  C   UNL     1       0.024  -0.743   1.267  0.00  0.00    +0.140 C 
BRANCH  11  12
ATOM     12  C   UNL     1      -1.389  -1.016   1.714  0.00  0.00    -0.029 A 
ATOM     13  C   UNL     1      -2.047  -0.103   2.519  0.00  0.00    +0.005 A 
ATOM     14  C   UNL     1      -3.344  -0.345   2.934  0.00  0.00    +0.002 A 
ATOM     15  C   UNL     1      -3.991  -1.501   2.547  0.00  0.00    +0.019 A 
ATOM     16  C   UNL     1      -3.334  -2.426   1.734  0.00  0.00    +0.052 A 
ATOM     17  C   UNL     1      -2.026  -2.173   1.315  0.00  0.00    +0.024 A 
BRANCH  16  18
ATOM     18  C   UNL     1      -3.999  -3.627   1.328  0.00  0.00    +0.099 C 
ATOM     19  N   UNL     1      -4.527  -4.580   1.005  0.00  0.00    -0.191 NA
ENDBRANCH  16  18
ENDBRANCH  11  12
ENDBRANCH   2  11
TORSDOF 5
