REMARK  Name = ZINC39851669
REMARK  13 active torsions:
REMARK  status: ('A' for Active; 'I' for Inactive)
REMARK    1  A    between atoms: C_1  and  C_2
REMARK    2  A    between atoms: C_2  and  C_3
REMARK    3  A    between atoms: C_3  and  N_4
REMARK    4  A    between atoms: C_5  and  N_26
REMARK    5  A    between atoms: C_6  and  C_14
REMARK    6  A    between atoms: C_7  and  C_13
REMARK    7  A    between atoms: C_8  and  C_11
REMARK    8  A    between atoms: N_18  and  C_22
REMARK    9  A    between atoms: C_22  and  C_23
REMARK   10  A    between atoms: C_23  and  C_24
REMARK   11  A    between atoms: C_23  and  C_25
REMARK   12  A    between atoms: N_26  and  C_27
REMARK   13  A    between atoms: C_27  and  C_28
REMARK                            x       y       z     vdW  Elec       q    Type
REMARK                         _______ _______ _______ _____ _____    ______ ____
ROOT
ATOM      1  N   UNL     1       0.676  -1.949  -1.235  0.00  0.00    -0.295 N 
ATOM      2  C   UNL     1       1.851  -2.345  -0.682  0.00  0.00    +0.109 A 
ATOM      3  C   UNL     1       2.113  -3.707  -0.463  0.00  0.00    +0.019 A 
ATOM      4  C   UNL     1       1.147  -4.663  -0.820  0.00  0.00    -0.017 A 
ATOM      5  C   UNL     1      -0.050  -4.231  -1.385  0.00  0.00    +0.120 A 
ATOM      6  C   UNL     1      -0.267  -2.843  -1.581  0.00  0.00    +0.270 A 
ATOM      7  O   UNL     1      -1.315  -2.459  -2.070  0.00  0.00    -0.266 OA
ATOM      8  C   UNL     1       1.402  -6.131  -0.596  0.00  0.00    +0.046 C 
ENDROOT
BRANCH   3   9
ATOM      9  C   UNL     1       3.382  -4.128   0.133  0.00  0.00    +0.032 C 
ATOM     10  C   UNL     1       4.277  -4.840  -0.605  0.00  0.00    +0.077 C 
ATOM     11  C   UNL     1       4.247  -5.178  -1.993  0.00  0.00    +0.258 C 
ATOM     12  O   UNL     1       3.325  -4.821  -2.704  0.00  0.00    -0.269 OA
ATOM     13  N   UNL     1       5.249  -5.888  -2.481  0.00  0.00    -0.255 N 
ATOM     14  C   UNL     1       6.271  -6.283  -1.690  0.00  0.00    +0.121 C 
ATOM     15  S   UNL     1       7.657  -7.199  -2.106  0.00  0.00    -0.027 S 
ATOM     16  S   UNL     1       5.815  -5.601  -0.103  0.00  0.00    -0.061 S 
BRANCH  13  17
ATOM     17  C   UNL     1       5.251  -6.252  -3.900  0.00  0.00    +0.118 C 
BRANCH  17  18
ATOM     18  C   UNL     1       5.962  -5.162  -4.705  0.00  0.00    +0.001 C 
ATOM     19  C   UNL     1       6.074  -5.600  -6.167  0.00  0.00    +0.009 C 
ATOM     20  C   UNL     1       5.160  -3.862  -4.622  0.00  0.00    +0.009 C 
ENDBRANCH  17  18
ENDBRANCH  13  17
ENDBRANCH   3   9
BRANCH   5  21
ATOM     21  C   UNL     1      -1.055  -5.179  -1.760  0.00  0.00    +0.105 C 
ATOM     22  N   UNL     1      -1.853  -5.932  -2.058  0.00  0.00    -0.191 NA
ENDBRANCH   5  21
BRANCH   2  23
ATOM     23  N   UNL     1       2.785  -1.412  -0.338  0.00  0.00    -0.326 N 
ATOM     24  H   UNL     1       2.736  -0.972   0.525  0.00  0.00    +0.148 HD
BRANCH  23  25
ATOM     25  C   UNL     1       3.863  -1.075  -1.271  0.00  0.00    +0.138 C 
BRANCH  25  26
ATOM     26  C   UNL     1       4.820  -0.118  -0.609  0.00  0.00    -0.027 A 
ATOM     27  C   UNL     1       4.613   1.245  -0.709  0.00  0.00    +0.009 A 
ATOM     28  C   UNL     1       5.488   2.127  -0.102  0.00  0.00    +0.050 A 
ATOM     29  C   UNL     1       6.577   1.645   0.607  0.00  0.00    +0.166 A 
ATOM     30  C   UNL     1       6.786   0.272   0.707  0.00  0.00    +0.167 A 
ATOM     31  C   UNL     1       5.901  -0.606   0.102  0.00  0.00    +0.054 A 
ATOM     32  O   UNL     1       7.911   0.055   1.448  0.00  0.00    -0.453 OA
ATOM     33  C   UNL     1       8.615   1.312   1.456  0.00  0.00    +0.466 C 
ATOM     34  O   UNL     1       7.571   2.289   1.285  0.00  0.00    -0.453 OA
ENDBRANCH  25  26
ENDBRANCH  23  25
ENDBRANCH   2  23
BRANCH   1  35
ATOM     35  C   UNL     1       0.428  -0.521  -1.454  0.00  0.00    +0.126 C 
BRANCH  35  37
ATOM     36  C   UNL     1      -0.281   1.611  -0.363  0.00  0.00    +0.005 C 
ATOM     37  C   UNL     1      -0.138   0.100  -0.176  0.00  0.00    +0.018 C 
ENDBRANCH  35  37
ENDBRANCH   1  35
TORSDOF 9
