REMARK  Name = ZINC10362063
REMARK  10 active torsions:
REMARK  status: ('A' for Active; 'I' for Inactive)
REMARK    1  A    between atoms: C_1  and  C_2
REMARK    2  A    between atoms: C_5  and  C_8
REMARK    3  A    between atoms: C_8  and  N_9
REMARK    4  A    between atoms: C_17  and  C_27
REMARK    5  A    between atoms: C_19  and  C_26
REMARK    6  A    between atoms: N_21  and  C_22
REMARK    7  A    between atoms: C_22  and  C_23
REMARK    8  A    between atoms: C_23  and  C_24
REMARK    9  A    between atoms: C_24  and  O_25
REMARK   10  A    between atoms: N_28  and  C_31
REMARK                            x       y       z     vdW  Elec       q    Type
REMARK                         _______ _______ _______ _____ _____    ______ ____
ROOT
ATOM      1  N   UNL     1      -1.728  -4.510   3.265  0.00  0.00    -0.255 N 
ATOM      2  C   UNL     1      -1.217  -3.299   2.933  0.00  0.00    +0.283 A 
ATOM      3  O   UNL     1      -1.021  -2.435   3.770  0.00  0.00    -0.265 OA
ATOM      4  C   UNL     1      -0.925  -3.091   1.570  0.00  0.00    +0.154 A 
ATOM      5  C   UNL     1      -1.164  -4.106   0.629  0.00  0.00    +0.170 A 
ATOM      6  N   UNL     1      -0.806  -3.649  -0.560  0.00  0.00    -0.195 NA
ATOM      7  C   UNL     1      -0.361  -2.420  -0.444  0.00  0.00    +0.221 A 
ATOM      8  N   UNL     1      -0.414  -2.034   0.871  0.00  0.00    -0.296 N 
ATOM      9  C   UNL     1       0.024  -0.715   1.327  0.00  0.00    +0.133 C 
ATOM     10  C   UNL     1       0.231   0.188   0.142  0.00  0.00    +0.057 C 
ATOM     11  N   UNL     1       0.261  -0.212  -1.062  0.00  0.00    -0.185 NA
ATOM     12  N   UNL     1       0.105  -1.561  -1.419  0.00  0.00    -0.193 N 
ATOM     13  C   UNL     1       0.408   1.662   0.401  0.00  0.00    +0.064 C 
ATOM     14  C   UNL     1      -1.042  -0.114   2.245  0.00  0.00    +0.037 C 
ATOM     15  N   UNL     1      -1.690  -5.324   1.039  0.00  0.00    -0.279 N 
ATOM     16  C   UNL     1      -1.951  -5.473   2.358  0.00  0.00    +0.334 A 
ATOM     17  O   UNL     1      -2.412  -6.532   2.740  0.00  0.00    -0.246 OA
ATOM     18  C   UNL     1      -1.950  -6.403   0.083  0.00  0.00    +0.155 C 
ENDROOT
BRANCH   1  19
ATOM     19  C   UNL     1      -2.050  -4.777   4.669  0.00  0.00    +0.165 C 
BRANCH  19  24
ATOM     20  C   UNL     1      -7.513  -3.220   5.726  0.00  0.00    +0.044 C 
ATOM     21  C   UNL     1      -6.088  -3.626   5.450  0.00  0.00    -0.050 A 
ATOM     22  C   UNL     1      -5.806  -4.912   5.029  0.00  0.00    +0.004 A 
ATOM     23  C   UNL     1      -4.499  -5.284   4.776  0.00  0.00    +0.005 A 
ATOM     24  C   UNL     1      -3.475  -4.371   4.944  0.00  0.00    -0.027 A 
ATOM     25  C   UNL     1      -3.757  -3.087   5.370  0.00  0.00    +0.005 A 
ATOM     26  C   UNL     1      -5.064  -2.712   5.618  0.00  0.00    +0.004 A 
ENDBRANCH  19  24
ENDBRANCH   1  19
BRANCH  12  27
ATOM     27  C   UNL     1       0.419  -2.036  -2.769  0.00  0.00    +0.137 C 
BRANCH  27  28
ATOM     28  C   UNL     1      -0.828  -1.931  -3.649  0.00  0.00    +0.049 C 
BRANCH  28  29
ATOM     29  C   UNL     1      -0.501  -2.427  -5.059  0.00  0.00    +0.157 C 
BRANCH  29  30
ATOM     30  O   UNL     1      -1.666  -2.329  -5.881  0.00  0.00    -0.395 OA
ATOM     31  H   UNL     1      -1.531  -2.627  -6.791  0.00  0.00    +0.209 HD
ENDBRANCH  29  30
ENDBRANCH  28  29
ENDBRANCH  27  28
ENDBRANCH  12  27
TORSDOF 6
