REMARK  Name = ZINC07595894
REMARK  5 active torsions:
REMARK  status: ('A' for Active; 'I' for Inactive)
REMARK    1  A    between atoms: C_1  and  C_2
REMARK    2  A    between atoms: C_5  and  C_23
REMARK    3  A    between atoms: C_6  and  C_8
REMARK    4  A    between atoms: C_8  and  N_9
REMARK    5  A    between atoms: C_14  and  C_16
REMARK                            x       y       z     vdW  Elec       q    Type
REMARK                         _______ _______ _______ _____ _____    ______ ____
ROOT
ATOM      1  N   UNL     1      -3.083   3.891   1.413  0.00  0.00    -0.225 N 
ATOM      2  C   UNL     1      -2.752   4.910   2.227  0.00  0.00    +0.268 A 
ATOM      3  O   UNL     1      -2.021   5.802   1.829  0.00  0.00    -0.266 OA
ATOM      4  C   UNL     1      -3.259   4.941   3.545  0.00  0.00    +0.074 A 
ATOM      5  C   UNL     1      -4.073   3.920   3.940  0.00  0.00    +0.035 A 
ATOM      6  C   UNL     1      -4.360   2.894   3.009  0.00  0.00    +0.092 A 
ATOM      7  N   UNL     1      -3.854   2.940   1.799  0.00  0.00    -0.168 NA
ENDROOT
BRANCH   6   8
ATOM      8  C   UNL     1      -5.241   1.767   3.400  0.00  0.00    +0.002 A 
ATOM      9  C   UNL     1      -5.781   1.714   4.684  0.00  0.00    +0.011 A 
ATOM     10  C   UNL     1      -6.603   0.665   5.041  0.00  0.00    +0.016 A 
ATOM     11  C   UNL     1      -6.885  -0.338   4.130  0.00  0.00    +0.018 A 
ATOM     12  C   UNL     1      -6.348  -0.293   2.855  0.00  0.00    +0.016 A 
ATOM     13  C   UNL     1      -5.528   0.754   2.486  0.00  0.00    +0.011 A 
ATOM     14 BR   UNL     1      -8.007  -1.776   4.629  0.00  0.00    -0.050 Br
ENDBRANCH   6   8
BRANCH   1  15
ATOM     15  C   UNL     1      -2.553   3.868   0.047  0.00  0.00    +0.182 C 
BRANCH  15  21
ATOM     16  C   UNL     1       2.451   3.937  -0.001  0.00  0.00    +0.044 C 
ATOM     17  C   UNL     1       1.156   3.166   0.008  0.00  0.00    -0.050 A 
ATOM     18  C   UNL     1       1.175   1.783   0.000  0.00  0.00    +0.003 A 
ATOM     19  C   UNL     1      -0.013   1.076   0.008  0.00  0.00    +0.004 A 
ATOM     20  C   UNL     1      -1.219   1.751   0.017  0.00  0.00    -0.046 A 
ATOM     21  C   UNL     1      -1.238   3.133   0.030  0.00  0.00    -0.023 A 
ATOM     22  C   UNL     1      -0.050   3.840   0.022  0.00  0.00    +0.009 A 
ATOM     23  C   UNL     1      -2.514   0.980   0.019  0.00  0.00    +0.044 C 
ENDBRANCH  15  21
ENDBRANCH   1  15
TORSDOF 3
