REMARK  Name = ZINC06442866
REMARK  10 active torsions:
REMARK  status: ('A' for Active; 'I' for Inactive)
REMARK    1  A    between atoms: C_1  and  C_2
REMARK    2  A    between atoms: C_6  and  N_9
REMARK    3  A    between atoms: C_7  and  C_8
REMARK    4  A    between atoms: C_14  and  C_16
REMARK    5  A    between atoms: C_14  and  C_30
REMARK    6  A    between atoms: C_14  and  N_76
REMARK    7  A    between atoms: C_19  and  C_29
REMARK    8  A    between atoms: C_21  and  C_28
REMARK    9  A    between atoms: N_34  and  C_35
REMARK   10  A    between atoms: C_35  and  C_36
REMARK                            x       y       z     vdW  Elec       q    Type
REMARK                         _______ _______ _______ _____ _____    ______ ____
ROOT
ATOM      1  C   UNL     1       5.393   1.387   3.509  0.00  0.00    +0.039 C 
ENDROOT
BRANCH   1   2
ATOM      2  C   UNL     1       5.331   0.348   4.599  0.00  0.00    +0.011 A 
ATOM      3  C   UNL     1       5.909  -0.864   4.411  0.00  0.00    +0.018 A 
ATOM      4  C   UNL     1       5.835  -1.849   5.491  0.00  0.00    +0.002 A 
ATOM      5  C   UNL     1       6.416  -3.115   5.358  0.00  0.00    -0.041 A 
ATOM      6  C   UNL     1       6.325  -4.013   6.383  0.00  0.00    +0.007 A 
ATOM      7  C   UNL     1       5.662  -3.682   7.556  0.00  0.00    -0.048 A 
ATOM      8  C   UNL     1       5.082  -2.441   7.710  0.00  0.00    +0.029 A 
ATOM      9  C   UNL     1       5.161  -1.510   6.680  0.00  0.00    +0.050 A 
ATOM     10  N   UNL     1       4.591  -0.261   6.807  0.00  0.00    -0.322 N 
ATOM     11  H   UNL     1       4.127  -0.029   7.626  0.00  0.00    +0.169 HD
ATOM     12  C   UNL     1       4.668   0.639   5.811  0.00  0.00    +0.251 A 
ATOM     13  O   UNL     1       4.152   1.733   5.958  0.00  0.00    -0.268 OA
ATOM     14  C   UNL     1       5.575  -4.689   8.674  0.00  0.00    +0.044 C 
ATOM     15  C   UNL     1       7.139  -3.485   4.088  0.00  0.00    +0.044 C 
ENDBRANCH   1   2
BRANCH   1  21
ATOM     16  N   UNL     1       1.860   2.001   1.276  0.00  0.00    -0.333 N 
ATOM     17  C   UNL     1       1.839   0.977   2.330  0.00  0.00    +0.086 C 
ATOM     18  C   UNL     1       3.275   0.568   2.668  0.00  0.00    -0.058 C 
ATOM     19  C   UNL     1       4.050   2.776   2.049  0.00  0.00    -0.058 C 
ATOM     20  C   UNL     1       2.615   3.185   1.711  0.00  0.00    +0.086 C 
ATOM     21  N   UNL     1       4.016   1.762   3.124  0.00  0.00    +0.391 N 
ATOM     22  H   UNL     1       3.538   2.159   3.942  0.00  0.00    -0.080 HD
BRANCH  16  28
ATOM     23  C   UNL     1      -1.617   2.172  -2.193  0.00  0.00    +0.044 C 
ATOM     24  C   UNL     1      -1.150   2.443  -0.786  0.00  0.00    -0.046 A 
ATOM     25  C   UNL     1      -2.005   3.036   0.124  0.00  0.00    +0.004 A 
ATOM     26  C   UNL     1      -1.578   3.292   1.414  0.00  0.00    +0.002 A 
ATOM     27  C   UNL     1      -0.297   2.949   1.800  0.00  0.00    +0.023 A 
ATOM     28  C   UNL     1       0.563   2.348   0.890  0.00  0.00    +0.033 A 
ATOM     29  C   UNL     1       0.131   2.093  -0.406  0.00  0.00    -0.027 A 
ATOM     30  C   UNL     1       1.061   1.442  -1.397  0.00  0.00    +0.046 C 
ENDBRANCH  16  28
ENDBRANCH   1  21
BRANCH   1  31
ATOM     31  C   UNL     1       6.137   0.827   2.324  0.00  0.00    +0.143 A 
ATOM     32  N   UNL     1       5.737  -0.139   1.533  0.00  0.00    -0.115 NA
ATOM     33  N   UNL     1       6.649  -0.326   0.642  0.00  0.00    -0.023 NA
ATOM     34  N   UNL     1       7.620   0.494   0.844  0.00  0.00    -0.044 NA
ATOM     35  N   UNL     1       7.340   1.226   1.869  0.00  0.00    -0.228 N 
BRANCH  35  36
ATOM     36  C   UNL     1       8.175   2.289   2.433  0.00  0.00    +0.178 C 
BRANCH  36  37
ATOM     37  C   UNL     1       9.104   1.698   3.495  0.00  0.00    +0.140 C 
ATOM     38  C   UNL     1       9.982   2.811   4.121  0.00  0.00    +0.035 C 
ATOM     39  C   UNL     1      10.313   2.183   5.503  0.00  0.00    +0.031 C 
ATOM     40  C   UNL     1       9.021   1.401   5.824  0.00  0.00    +0.160 C 
ATOM     41  O   UNL     1       8.338   1.166   4.588  0.00  0.00    -0.375 OA
ENDBRANCH  36  37
ENDBRANCH  35  36
ENDBRANCH   1  31
TORSDOF 6
