REMARK  Name = ZINC20611693
REMARK  6 active torsions:
REMARK  status: ('A' for Active; 'I' for Inactive)
REMARK    1  A    between atoms: C_1  and  C_2
REMARK    2  A    between atoms: C_2  and  C_3
REMARK    3  A    between atoms: C_2  and  C_4
REMARK    4  A    between atoms: C_4  and  C_5
REMARK    5  A    between atoms: N_13  and  C_16
REMARK    6  A    between atoms: C_16  and  C_17
REMARK                            x       y       z     vdW  Elec       q    Type
REMARK                         _______ _______ _______ _____ _____    ______ ____
ROOT
ATOM      1  C   UNL     1      -1.206  -2.167   0.079  0.00  0.00    +0.068 C 
ATOM      2  C   UNL     1      -2.657  -2.637  -0.158  0.00  0.00    +0.107 C 
ATOM      3  C   UNL     1      -3.213  -2.945   1.261  0.00  0.00    +0.122 C 
ATOM      4  C   UNL     1      -3.462  -4.436   1.220  0.00  0.00    +0.229 C 
ATOM      5  O   UNL     1      -3.910  -5.096   2.133  0.00  0.00    -0.275 OA
ATOM      6  N   UNL     1      -3.109  -4.914   0.021  0.00  0.00    -0.237 N 
ATOM      7  C   UNL     1      -2.641  -3.985  -0.843  0.00  0.00    +0.227 C 
ATOM      8  O   UNL     1      -2.267  -4.189  -1.978  0.00  0.00    -0.275 OA
ATOM      9  C   UNL     1      -2.050  -2.627   2.208  0.00  0.00    +0.136 C 
ATOM     10  N   UNL     1      -0.820  -2.755   1.389  0.00  0.00    -0.295 NA
ATOM     11  C   UNL     1      -2.016  -3.569   3.378  0.00  0.00    +0.003 A 
ATOM     12  C   UNL     1      -1.903  -4.937   3.491  0.00  0.00    +0.008 A 
ATOM     13  C   UNL     1      -1.900  -5.530   4.741  0.00  0.00    +0.000 A 
ATOM     14  C   UNL     1      -2.010  -4.746   5.875  0.00  0.00    +0.002 A 
ATOM     15  C   UNL     1      -2.123  -3.376   5.767  0.00  0.00    +0.023 A 
ATOM     16  C   UNL     1      -2.128  -2.770   4.513  0.00  0.00    +0.039 A 
ATOM     17  N   UNL     1      -2.231  -1.426   4.149  0.00  0.00    -0.283 N 
ATOM     18  C   UNL     1      -2.193  -1.257   2.813  0.00  0.00    +0.243 C 
ATOM     19  O   UNL     1      -2.261  -0.204   2.214  0.00  0.00    -0.273 OA
ATOM     20  H   UNL     1      -0.542  -3.719   1.285  0.00  0.00    +0.123 HD
ATOM     21  H   UNL     1      -2.319  -0.698   4.784  0.00  0.00    +0.155 HD
ENDROOT
BRANCH   1  22
ATOM     22  C   UNL     1      -1.145  -0.640   0.142  0.00  0.00    +0.022 C 
BRANCH  22  24
ATOM     23  C   UNL     1      -0.892   1.444  -1.213  0.00  0.00    +0.007 C 
ATOM     24  C   UNL     1      -0.830  -0.084  -1.249  0.00  0.00    -0.016 C 
ATOM     25  C   UNL     1       0.572  -0.528  -1.670  0.00  0.00    +0.007 C 
ENDBRANCH  22  24
ENDBRANCH   1  22
BRANCH   6  26
ATOM     26  C   UNL     1      -3.226  -6.330  -0.333  0.00  0.00    +0.153 C 
BRANCH  26  27
ATOM     27  C   UNL     1      -4.639  -6.625  -0.766  0.00  0.00    -0.011 A 
ATOM     28  C   UNL     1      -5.543  -7.152   0.138  0.00  0.00    +0.006 A 
ATOM     29  C   UNL     1      -6.839  -7.423  -0.260  0.00  0.00    +0.000 A 
ATOM     30  C   UNL     1      -7.232  -7.167  -1.560  0.00  0.00    +0.001 A 
ATOM     31  C   UNL     1      -6.329  -6.640  -2.464  0.00  0.00    +0.020 A 
ATOM     32  C   UNL     1      -5.033  -6.364  -2.066  0.00  0.00    +0.046 A 
ATOM     33 CL   UNL     1      -3.900  -5.696  -3.199  0.00  0.00    -0.083 Cl
ENDBRANCH  26  27
ENDBRANCH   6  26
TORSDOF 4
