REMARK  Name = ZINC36579876
REMARK  11 active torsions:
REMARK  status: ('A' for Active; 'I' for Inactive)
REMARK    1  A    between atoms: C_1  and  O_2
REMARK    2  A    between atoms: O_2  and  C_3
REMARK    3  A    between atoms: C_3  and  C_5
REMARK    4  A    between atoms: C_5  and  C_6
REMARK    5  A    between atoms: C_6  and  C_8
REMARK    6  A    between atoms: C_6  and  N_12
REMARK    7  A    between atoms: C_8  and  O_10
REMARK    8  A    between atoms: O_10  and  C_11
REMARK    9  A    between atoms: C_24  and  C_26
REMARK   10  A    between atoms: C_31  and  O_32
REMARK   11  A    between atoms: O_32  and  C_33
REMARK                            x       y       z     vdW  Elec       q    Type
REMARK                         _______ _______ _______ _____ _____    ______ ____
ROOT
ATOM      1  N   UNL     1       2.883  -2.055  -4.648  0.00  0.00    -0.286 N 
ATOM      2  C   UNL     1       3.482  -1.868  -3.455  0.00  0.00    +0.304 C 
ATOM      3  O   UNL     1       2.840  -1.974  -2.429  0.00  0.00    -0.253 OA
ATOM      4  N   UNL     1       4.794  -1.562  -3.401  0.00  0.00    -0.273 N 
ATOM      5  C   UNL     1       5.491  -1.464  -2.110  0.00  0.00    +0.116 C 
ATOM      6  C   UNL     1       6.562  -2.560  -2.033  0.00  0.00    +0.074 C 
ATOM      7  C   UNL     1       7.313  -2.596  -3.338  0.00  0.00    +0.040 A 
ATOM      8  C   UNL     1       6.877  -2.053  -4.495  0.00  0.00    +0.062 A 
ATOM      9  N   UNL     1       7.796  -2.282  -5.435  0.00  0.00    -0.348 N 
ATOM     10  C   UNL     1       8.792  -2.945  -4.906  0.00  0.00    +0.171 A 
ATOM     11  N   UNL     1       8.526  -3.159  -3.597  0.00  0.00    -0.349 N 
ATOM     12  H   UNL     1       9.093  -3.625  -2.962  0.00  0.00    +0.166 HD
ATOM     13  C   UNL     1       5.566  -1.325  -4.634  0.00  0.00    +0.160 C 
ATOM     14  H   UNL     1       3.376  -1.897  -5.468  0.00  0.00    +0.151 HD
ATOM     15  H   UNL     1       7.736  -2.002  -6.361  0.00  0.00    +0.167 HD
ENDROOT
BRANCH  13  16
ATOM     16  C   UNL     1       5.819   0.151  -4.803  0.00  0.00    +0.021 A 
ATOM     17  C   UNL     1       6.602   0.828  -3.888  0.00  0.00    +0.009 A 
ATOM     18  C   UNL     1       6.835   2.182  -4.042  0.00  0.00    +0.001 A 
ATOM     19  C   UNL     1       6.286   2.862  -5.114  0.00  0.00    +0.004 A 
ATOM     20  C   UNL     1       5.503   2.190  -6.032  0.00  0.00    +0.046 A 
ATOM     21  C   UNL     1       5.272   0.830  -5.882  0.00  0.00    +0.135 A 
BRANCH  21  22
ATOM     22  O   UNL     1       4.507   0.166  -6.787  0.00  0.00    -0.405 OA
BRANCH  22  23
ATOM     23  C   UNL     1       3.976   0.929  -7.873  0.00  0.00    +0.575 C 
ATOM     24  F   UNL     1       5.027   1.488  -8.607  0.00  0.00    -0.133 F 
ATOM     25  F   UNL     1       3.219   0.096  -8.703  0.00  0.00    -0.133 F 
ATOM     26  F   UNL     1       3.163   1.950  -7.371  0.00  0.00    -0.133 F 
ENDBRANCH  22  23
ENDBRANCH  21  22
ENDBRANCH  13  16
BRANCH   1  27
ATOM     27  C   UNL     1       1.488  -2.499  -4.705  0.00  0.00    +0.194 C 
BRANCH  27  28
ATOM     28  C   UNL     1       0.576  -1.304  -4.598  0.00  0.00    +0.328 C 
ATOM     29  O   UNL     1       1.044  -0.195  -4.485  0.00  0.00    -0.249 OA
BRANCH  28  30
ATOM     30  O   UNL     1      -0.755  -1.471  -4.628  0.00  0.00    -0.467 OA
ATOM     31  C   UNL     1      -1.559  -0.294  -4.521  0.00  0.00    +0.280 C 
ENDBRANCH  28  30
ENDBRANCH  27  28
BRANCH  27  32
ATOM     32  C   UNL     1       1.235  -3.216  -6.033  0.00  0.00    +0.154 C 
BRANCH  32  33
ATOM     33  C   UNL     1       2.057  -4.477  -6.088  0.00  0.00    +0.309 C 
ATOM     34  O   UNL     1       2.772  -4.773  -5.160  0.00  0.00    -0.251 OA
BRANCH  33  36
ATOM     35  C   UNL     1       2.801  -6.453  -7.151  0.00  0.00    +0.280 C 
ATOM     36  O   UNL     1       1.995  -5.273  -7.167  0.00  0.00    -0.468 OA
ENDBRANCH  33  36
ENDBRANCH  32  33
ENDBRANCH  27  32
ENDBRANCH   1  27
TORSDOF 9
