REMARK  Name = ZINC36214797
REMARK  13 active torsions:
REMARK  status: ('A' for Active; 'I' for Inactive)
REMARK    1  A    between atoms: C_1  and  C_2
REMARK    2  A    between atoms: C_2  and  C_4
REMARK    3  A    between atoms: C_2  and  N_7
REMARK    4  A    between atoms: C_4  and  C_5
REMARK    5  A    between atoms: C_4  and  C_6
REMARK    6  A    between atoms: C_8  and  C_10
REMARK    7  A    between atoms: C_10  and  C_12
REMARK    8  A    between atoms: C_10  and  N_29
REMARK    9  A    between atoms: N_15  and  S_18
REMARK   10  A    between atoms: S_18  and  C_21
REMARK   11  A    between atoms: C_24  and  O_27
REMARK   12  A    between atoms: O_27  and  C_28
REMARK   13  A    between atoms: C_30  and  C_32
REMARK                            x       y       z     vdW  Elec       q    Type
REMARK                         _______ _______ _______ _____ _____    ______ ____
ROOT
ATOM      1  C   UNL     1       2.783  -1.099   2.395  0.00  0.00    +0.162 C 
ENDROOT
BRANCH   1   2
ATOM      2  C   UNL     1       2.696  -2.626   2.452  0.00  0.00    +0.021 C 
ATOM      3  C   UNL     1       1.228  -3.050   2.523  0.00  0.00    +0.023 C 
ATOM      4  C   UNL     1       1.143  -4.580   2.545  0.00  0.00    +0.110 C 
ATOM      5  N   UNL     1       1.971  -5.083   3.649  0.00  0.00    -0.177 NA
ATOM      6  C   UNL     1       3.377  -4.663   3.727  0.00  0.00    +0.110 C 
ATOM      7  C   UNL     1       3.436  -3.132   3.692  0.00  0.00    +0.023 C 
BRANCH   5   8
ATOM      8  S   UNL     1       1.333  -6.105   4.785  0.00  0.00    +0.061 S 
ATOM      9  O   UNL     1       2.130  -5.963   5.953  0.00  0.00    -0.153 OA
ATOM     10  O   UNL     1      -0.071  -5.882   4.789  0.00  0.00    -0.153 OA
BRANCH   8  11
ATOM     11  C   UNL     1       1.579  -7.750   4.204  0.00  0.00    +0.106 A 
ATOM     12  C   UNL     1       0.620  -8.353   3.412  0.00  0.00    +0.032 A 
ATOM     13  C   UNL     1       0.810  -9.643   2.955  0.00  0.00    +0.047 A 
ATOM     14  C   UNL     1       1.966 -10.333   3.291  0.00  0.00    +0.120 A 
ATOM     15  C   UNL     1       2.927  -9.725   4.086  0.00  0.00    +0.047 A 
ATOM     16  C   UNL     1       2.734  -8.434   4.536  0.00  0.00    +0.032 A 
BRANCH  14  17
ATOM     17  O   UNL     1       2.155 -11.602   2.844  0.00  0.00    -0.495 OA
ATOM     18  C   UNL     1       3.368 -12.251   3.229  0.00  0.00    +0.277 C 
ENDBRANCH  14  17
ENDBRANCH   8  11
ENDBRANCH   5   8
ENDBRANCH   1   2
BRANCH   1  20
ATOM     19  N   UNL     1       0.711  -0.489   1.189  0.00  0.00    -0.311 N 
ATOM     20  C   UNL     1       2.054  -0.600   1.174  0.00  0.00    +0.234 C 
ATOM     21  O   UNL     1       2.676  -0.297   0.177  0.00  0.00    -0.274 OA
ATOM     22  H   UNL     1       0.213  -0.731   1.986  0.00  0.00    +0.149 HD
BRANCH  19  24
ATOM     23  C   UNL     1      -0.019   1.526   0.010  0.00  0.00    +0.028 C 
ATOM     24  C   UNL     1       0.002  -0.004   0.002  0.00  0.00    +0.072 C 
BRANCH  24  25
ATOM     25  C   UNL     1      -1.433  -0.534   0.013  0.00  0.00    +0.003 C 
ATOM     26  C   UNL     1      -2.187   0.060   1.205  0.00  0.00    +0.009 C 
ATOM     27  C   UNL     1      -2.135  -0.131  -1.286  0.00  0.00    +0.009 C 
ENDBRANCH  24  25
ENDBRANCH  19  24
ENDBRANCH   1  20
BRANCH   1  28
ATOM     28  N   UNL     1       4.188  -0.692   2.325  0.00  0.00    -0.299 N 
ATOM     29  C   UNL     1       4.958  -1.100   1.296  0.00  0.00    +0.251 C 
ATOM     30  O   UNL     1       4.485  -1.808   0.426  0.00  0.00    -0.270 OA
ATOM     31  H   UNL     1       4.565  -0.129   3.018  0.00  0.00    +0.150 HD
BRANCH  29  32
ATOM     32  C   UNL     1       6.364  -0.693   1.226  0.00  0.00    +0.074 A 
ATOM     33  C   UNL     1       7.315  -0.995   0.263  0.00  0.00    +0.021 A 
ATOM     34  C   UNL     1       8.565  -0.463   0.470  0.00  0.00    +0.008 A 
ATOM     35  C   UNL     1       8.782   0.299   1.570  0.00  0.00    +0.046 A 
ATOM     36  S   UNL     1       7.296   0.326   2.354  0.00  0.00    -0.092 S 
ENDBRANCH  29  32
ENDBRANCH   1  28
TORSDOF 9
