REMARK  Name = ZINC64733518
REMARK  5 active torsions:
REMARK  status: ('A' for Active; 'I' for Inactive)
REMARK    1  A    between atoms: C_7  and  C_10
REMARK    2  A    between atoms: C_10  and  C_11
REMARK    3  A    between atoms: N_13  and  C_14
REMARK    4  A    between atoms: N_18  and  C_19
REMARK    5  A    between atoms: C_19  and  C_20
REMARK                            x       y       z     vdW  Elec       q    Type
REMARK                         _______ _______ _______ _____ _____    ______ ____
ROOT
ATOM      1  C   UNL     1       0.460  -3.646  -1.440  0.00  0.00    +0.222 C 
ATOM      2  O   UNL     1       1.006  -3.075  -2.360  0.00  0.00    -0.275 OA
ATOM      3  N   UNL     1      -0.353  -4.693  -1.684  0.00  0.00    -0.270 N 
ATOM      4  H   UNL     1      -0.790  -5.150  -0.948  0.00  0.00    +0.156 HD
ENDROOT
BRANCH   3   5
ATOM      5  C   UNL     1      -0.566  -5.120  -2.995  0.00  0.00    +0.123 A 
ATOM      6  C   UNL     1      -0.017  -4.578  -4.116  0.00  0.00    +0.065 A 
ATOM      7  C   UNL     1      -0.489  -5.300  -5.216  0.00  0.00    +0.136 A 
ATOM      8  N   UNL     1      -1.290  -6.238  -4.779  0.00  0.00    -0.178 NA
ATOM      9  N   UNL     1      -1.352  -6.150  -3.382  0.00  0.00    -0.249 N 
BRANCH   9  10
ATOM     10  C   UNL     1      -2.133  -7.018  -2.498  0.00  0.00    +0.163 C 
BRANCH  10  11
ATOM     11  C   UNL     1      -3.529  -6.423  -2.300  0.00  0.00    +0.092 C 
ATOM     12  C   UNL     1      -4.361  -7.276  -1.359  0.00  0.00    +0.000 C 
ATOM     13  C   UNL     1      -5.271  -8.041  -1.858  0.00  0.00    +0.002 C 
ATOM     14  C   UNL     1      -5.468  -8.052  -3.364  0.00  0.00    +0.112 C 
ATOM     15  S   UNL     1      -4.527  -6.537  -3.848  0.00  0.00    -0.146 S 
ATOM     16 BR   UNL     1      -6.339  -9.127  -0.738  0.00  0.00    -0.054 Br
ENDBRANCH  10  11
ENDBRANCH   9  10
ENDBRANCH   3   5
BRANCH   1  17
ATOM     17  C   UNL     1       0.691  -3.186  -0.024  0.00  0.00    +0.129 C 
BRANCH  17  24
ATOM     18  C   UNL     1      -0.016   1.348   0.009  0.00  0.00    +0.001 A 
ATOM     19  C   UNL     1       1.166   2.101   0.002  0.00  0.00    +0.002 A 
ATOM     20  C   UNL     1       2.391   1.535  -0.013  0.00  0.00    +0.026 A 
ATOM     21  C   UNL     1       2.529   0.120  -0.022  0.00  0.00    +0.043 A 
ATOM     22  N   UNL     1       3.587  -0.654  -0.037  0.00  0.00    -0.380 N 
ATOM     23  C   UNL     1       3.143  -2.053  -0.041  0.00  0.00    +0.145 C 
ATOM     24  C   UNL     1       1.631  -2.008  -0.025  0.00  0.00    -0.033 C 
ATOM     25  C   UNL     1       1.295  -0.698  -0.014  0.00  0.00    -0.001 A 
ATOM     26  C   UNL     1       0.002  -0.004   0.002  0.00  0.00    +0.010 A 
ATOM     27  H   UNL     1       4.509  -0.353  -0.045  0.00  0.00    +0.160 HD
ENDBRANCH  17  24
ENDBRANCH   1  17
TORSDOF 5
