REMARK  Name = ZINC17358854
REMARK  6 active torsions:
REMARK  status: ('A' for Active; 'I' for Inactive)
REMARK    1  A    between atoms: C_1  and  C_2
REMARK    2  A    between atoms: N_5  and  C_8
REMARK    3  A    between atoms: C_11  and  C_17
REMARK    4  A    between atoms: C_13  and  N_14
REMARK    5  A    between atoms: N_19  and  N_20
REMARK    6  A    between atoms: C_21  and  C_23
REMARK                            x       y       z     vdW  Elec       q    Type
REMARK                         _______ _______ _______ _____ _____    ______ ____
ROOT
ATOM      1  C   UNL     1       1.190   1.797   0.010  0.00  0.00    +0.060 A 
ATOM      2  C   UNL     1       0.001   1.079   0.110  0.00  0.00    +0.026 A 
ATOM      3  C   UNL     1      -1.206   1.740   0.110  0.00  0.00    +0.015 A 
ATOM      4  C   UNL     1      -1.237   3.135   0.021  0.00  0.00    +0.040 A 
ATOM      5  C   UNL     1      -0.042   3.853  -0.079  0.00  0.00    +0.047 A 
ATOM      6  C   UNL     1       1.161   3.186  -0.084  0.00  0.00    +0.148 A 
ENDROOT
BRANCH   1  11
ATOM      7  C   UNL     1       5.598  -1.718   0.025  0.00  0.00    +0.007 C 
ATOM      8  C   UNL     1       4.175  -1.157   0.039  0.00  0.00    -0.011 C 
ATOM      9  C   UNL     1       3.935  -0.337  -1.231  0.00  0.00    +0.022 C 
ATOM     10  C   UNL     1       2.531   0.271  -1.183  0.00  0.00    +0.105 C 
ATOM     11  N   UNL     1       2.407   1.126   0.004  0.00  0.00    -0.328 N 
ATOM     12  C   UNL     1       2.587   0.351   1.238  0.00  0.00    +0.105 C 
ATOM     13  C   UNL     1       3.992  -0.254   1.262  0.00  0.00    +0.022 C 
ENDBRANCH   1  11
BRANCH   4  14
ATOM     14  C   UNL     1      -2.529   3.847   0.027  0.00  0.00    +0.260 C 
ATOM     15  O   UNL     1      -2.555   5.060  -0.054  0.00  0.00    -0.269 OA
ATOM     16  N   UNL     1      -3.681   3.153   0.124  0.00  0.00    -0.230 N 
ATOM     17  H   UNL     1      -3.660   2.186   0.189  0.00  0.00    +0.173 HD
BRANCH  16  18
ATOM     18  N   UNL     1      -4.908   3.830   0.130  0.00  0.00    -0.230 N 
ATOM     19  C   UNL     1      -6.059   3.136   0.226  0.00  0.00    +0.261 C 
ATOM     20  O   UNL     1      -6.033   1.923   0.308  0.00  0.00    -0.269 OA
ATOM     21  H   UNL     1      -4.928   4.797   0.064  0.00  0.00    +0.173 HD
BRANCH  19  22
ATOM     22  C   UNL     1      -7.353   3.849   0.232  0.00  0.00    +0.052 A 
ATOM     23  C   UNL     1      -7.387   5.242   0.144  0.00  0.00    +0.014 A 
ATOM     24  C   UNL     1      -8.598   5.902   0.146  0.00  0.00    +0.001 A 
ATOM     25  C   UNL     1      -9.779   5.187   0.245  0.00  0.00    +0.001 A 
ATOM     26  C   UNL     1      -9.754   3.807   0.337  0.00  0.00    +0.016 A 
ATOM     27  C   UNL     1      -8.548   3.133   0.332  0.00  0.00    +0.030 A 
ATOM     28 BR   UNL     1      -8.516   1.247   0.459  0.00  0.00    -0.050 Br
ENDBRANCH  19  22
ENDBRANCH  16  18
ENDBRANCH   4  14
BRANCH   6  29
ATOM     29  N   UNL     1       2.428   3.946  -0.189  0.00  0.00    +0.058 N 
ATOM     30  O   UNL     1       2.410   5.163  -0.172  0.00  0.00    -0.126 OA
ATOM     31  O   UNL     1       3.486   3.353  -0.293  0.00  0.00    -0.126 OA
ENDBRANCH   6  29
TORSDOF 5
