REMARK  Name = ZINC05438321
REMARK  8 active torsions:
REMARK  status: ('A' for Active; 'I' for Inactive)
REMARK    1  A    between atoms: C_1  and  O_2
REMARK    2  A    between atoms: O_2  and  C_3
REMARK    3  A    between atoms: C_13  and  O_36
REMARK    4  A    between atoms: C_16  and  O_17
REMARK    5  A    between atoms: C_18  and  O_35
REMARK    6  A    between atoms: C_21  and  C_23
REMARK    7  A    between atoms: C_21  and  O_34
REMARK    8  A    between atoms: C_26  and  C_28
REMARK                            x       y       z     vdW  Elec       q    Type
REMARK                         _______ _______ _______ _____ _____    ______ ____
ROOT
ATOM      1  C   UNL     1      10.329  -2.544  -1.472  0.00  0.00    +0.132 A 
ATOM      2  C   UNL     1      10.732  -3.765  -2.007  0.00  0.00    +0.046 A 
ATOM      3  C   UNL     1       9.874  -4.496  -2.803  0.00  0.00    +0.004 A 
ATOM      4  C   UNL     1       8.600  -4.027  -3.084  0.00  0.00    +0.012 A 
ATOM      5  C   UNL     1       8.178  -2.810  -2.562  0.00  0.00    +0.037 A 
ATOM      6  C   UNL     1       9.049  -2.059  -1.748  0.00  0.00    +0.075 A 
ATOM      7  C   UNL     1       8.599  -0.767  -1.194  0.00  0.00    +0.202 C 
ATOM      8  O   UNL     1       9.401   0.007  -0.708  0.00  0.00    -0.286 OA
ATOM      9  C   UNL     1       7.165  -0.426  -1.237  0.00  0.00    +0.078 A 
ATOM     10  C   UNL     1       6.292  -1.176  -2.053  0.00  0.00    +0.078 A 
ATOM     11  C   UNL     1       4.940  -0.848  -2.091  0.00  0.00    +0.132 A 
ATOM     12  C   UNL     1       4.445   0.216  -1.324  0.00  0.00    +0.007 A 
ATOM     13  C   UNL     1       5.292   0.941  -0.525  0.00  0.00    +0.030 A 
ATOM     14  C   UNL     1       6.657   0.626  -0.480  0.00  0.00    +0.134 A 
ATOM     15  C   UNL     1       4.818   2.089   0.329  0.00  0.00    +0.152 C 
ATOM     16  C   UNL     1       3.453   2.584  -0.142  0.00  0.00    +0.077 C 
ATOM     17  C   UNL     1       2.514   1.376  -0.252  0.00  0.00    +0.115 C 
ATOM     18  C   UNL     1       2.972   0.517  -1.428  0.00  0.00    +0.080 C 
ATOM     19  C   UNL     1       6.822  -2.296  -2.852  0.00  0.00    +0.198 C 
ATOM     20  O   UNL     1       6.153  -2.791  -3.738  0.00  0.00    -0.286 OA
ENDROOT
BRANCH  17  21
ATOM     21  C   UNL     1       1.103   1.850  -0.488  0.00  0.00    +0.081 A 
ATOM     22  C   UNL     1       0.079   0.954  -0.516  0.00  0.00    +0.073 A 
ATOM     23  S   UNL     1      -1.304   2.045  -0.827  0.00  0.00    -0.075 S 
ATOM     24  C   UNL     1      -0.372   3.570  -0.876  0.00  0.00    +0.109 A 
ATOM     25  N   UNL     1       0.859   3.126  -0.666  0.00  0.00    -0.241 NA
BRANCH  24  26
ATOM     26  C   UNL     1      -0.846   4.953  -1.097  0.00  0.00    +0.010 A 
ATOM     27  C   UNL     1       0.050   6.028  -1.100  0.00  0.00    +0.030 A 
ATOM     28  C   UNL     1      -0.436   7.302  -1.314  0.00  0.00    +0.111 A 
ATOM     29  N   UNL     1      -1.724   7.513  -1.505  0.00  0.00    -0.263 NA
ATOM     30  C   UNL     1      -2.602   6.528  -1.505  0.00  0.00    +0.111 A 
ATOM     31  C   UNL     1      -2.204   5.223  -1.303  0.00  0.00    +0.030 A 
ENDBRANCH  24  26
ENDBRANCH  17  21
BRANCH   1  33
ATOM     32  C   UNL     1      12.469  -2.389  -0.454  0.00  0.00    +0.277 C 
ATOM     33  O   UNL     1      11.176  -1.829  -0.691  0.00  0.00    -0.494 OA
ENDBRANCH   1  33
BRANCH  14  34
ATOM     34  O   UNL     1       7.490   1.351   0.307  0.00  0.00    -0.506 OA
ATOM     35  H   UNL     1       7.581   1.007   1.206  0.00  0.00    +0.292 HD
ENDBRANCH  14  34
BRANCH  17  36
ATOM     36  O   UNL     1       2.570   0.612   0.955  0.00  0.00    -0.382 OA
ATOM     37  H   UNL     1       2.004  -0.173   0.950  0.00  0.00    +0.211 HD
ENDBRANCH  17  36
BRANCH  15  38
ATOM     38  O   UNL     1       5.761   3.159   0.244  0.00  0.00    -0.387 OA
ATOM     39  H   UNL     1       5.577   3.894   0.845  0.00  0.00    +0.210 HD
ENDBRANCH  15  38
BRANCH  11  40
ATOM     40  O   UNL     1       4.095  -1.563  -2.875  0.00  0.00    -0.506 OA
ATOM     41  H   UNL     1       4.003  -1.216  -3.773  0.00  0.00    +0.292 HD
ENDBRANCH  11  40
TORSDOF 7
