REMARK  Name = ZINC63912831
REMARK  5 active torsions:
REMARK  status: ('A' for Active; 'I' for Inactive)
REMARK    1  A    between atoms: C_7  and  C_10
REMARK    2  A    between atoms: C_10  and  C_12
REMARK    3  A    between atoms: C_12  and  N_13
REMARK    4  A    between atoms: N_16  and  S_19
REMARK    5  A    between atoms: S_19  and  N_22
REMARK                            x       y       z     vdW  Elec       q    Type
REMARK                         _______ _______ _______ _____ _____    ______ ____
ROOT
ATOM      1  N   UNL     1       0.063  -5.492  -0.028  0.00  0.00    -0.293 NA
ATOM      2  C   UNL     1      -0.715  -5.393  -1.270  0.00  0.00    +0.102 C 
ATOM      3  C   UNL     1      -1.975  -6.257  -1.151  0.00  0.00    +0.126 C 
ATOM      4  N   UNL     1      -1.571  -7.622  -0.777  0.00  0.00    -0.164 NA
ATOM      5  C   UNL     1      -0.678  -7.791   0.378  0.00  0.00    +0.126 C 
ATOM      6  C   UNL     1       0.531  -6.866   0.199  0.00  0.00    +0.102 C 
ENDROOT
BRANCH   4   7
ATOM      7  S   UNL     1      -2.110  -8.932  -1.635  0.00  0.00    +0.100 S 
ATOM      8  O   UNL     1      -2.039 -10.048  -0.758  0.00  0.00    -0.141 OA
ATOM      9  O   UNL     1      -3.319  -8.535  -2.267  0.00  0.00    -0.141 OA
BRANCH   7  10
ATOM     10  N   UNL     1      -1.013  -9.210  -2.844  0.00  0.00    -0.162 NA
ATOM     11  C   UNL     1      -1.156  -8.565  -4.160  0.00  0.00    +0.138 C 
ATOM     12  C   UNL     1       0.180  -7.909  -4.524  0.00  0.00    +0.177 C 
ATOM     13  O   UNL     1       1.228  -8.873  -4.401  0.00  0.00    -0.377 OA
ATOM     14  C   UNL     1       1.407  -9.376  -3.074  0.00  0.00    +0.177 C 
ATOM     15  C   UNL     1       0.137 -10.103  -2.634  0.00  0.00    +0.138 C 
ENDBRANCH   7  10
ENDBRANCH   4   7
BRANCH   1  16
ATOM     16  C   UNL     1       1.187  -4.547  -0.033  0.00  0.00    +0.164 C 
BRANCH  16  17
ATOM     17  C   UNL     1       0.657  -3.136  -0.021  0.00  0.00    +0.175 C 
ATOM     18  O   UNL     1      -0.541  -2.938  -0.009  0.00  0.00    -0.291 OA
BRANCH  17  25
ATOM     19  C   UNL     1      -0.016   1.348   0.009  0.00  0.00    +0.001 A 
ATOM     20  C   UNL     1       1.158   2.117   0.002  0.00  0.00    +0.002 A 
ATOM     21  C   UNL     1       2.384   1.551  -0.012  0.00  0.00    +0.026 A 
ATOM     22  C   UNL     1       2.494   0.083  -0.021  0.00  0.00    +0.043 A 
ATOM     23  N   UNL     1       3.525  -0.712  -0.035  0.00  0.00    -0.380 N 
ATOM     24  C   UNL     1       3.065  -2.104  -0.039  0.00  0.00    +0.152 C 
ATOM     25  C   UNL     1       1.553  -2.046  -0.024  0.00  0.00    +0.024 C 
ATOM     26  C   UNL     1       1.234  -0.700  -0.013  0.00  0.00    +0.006 A 
ATOM     27  C   UNL     1       0.002  -0.004   0.002  0.00  0.00    +0.010 A 
ATOM     28  H   UNL     1       4.453  -0.428  -0.043  0.00  0.00    +0.160 HD
ENDBRANCH  17  25
ENDBRANCH  16  17
ENDBRANCH   1  16
TORSDOF 5
