REMARK  Name = ZINC14969910
REMARK  9 active torsions:
REMARK  status: ('A' for Active; 'I' for Inactive)
REMARK    1  A    between atoms: C_1  and  C_2
REMARK    2  A    between atoms: C_2  and  C_4
REMARK    3  A    between atoms: C_2  and  N_9
REMARK    4  A    between atoms: C_10  and  C_12
REMARK    5  A    between atoms: N_14  and  C_30
REMARK    6  A    between atoms: C_16  and  C_19
REMARK    7  A    between atoms: N_21  and  C_22
REMARK    8  A    between atoms: C_30  and  C_31
REMARK    9  A    between atoms: C_30  and  C_32
REMARK                            x       y       z     vdW  Elec       q    Type
REMARK                         _______ _______ _______ _____ _____    ______ ____
ROOT
ATOM      1  C   UNL     1       0.719  -0.970  -3.596  0.00  0.00    +0.100 A 
ATOM      2  C   UNL     1       0.057  -1.018  -4.804  0.00  0.00    +0.102 A 
ATOM      3  N   UNL     1       0.692  -1.363  -5.937  0.00  0.00    -0.349 N 
ATOM      4  C   UNL     1       1.995  -1.683  -5.984  0.00  0.00    +0.102 A 
ATOM      5  C   UNL     1       2.779  -1.677  -4.851  0.00  0.00    +0.100 A 
ATOM      6  C   UNL     1       2.153  -1.302  -3.572  0.00  0.00    +0.206 A 
ATOM      7  O   UNL     1       2.794  -1.273  -2.535  0.00  0.00    -0.286 OA
ENDROOT
BRANCH   1   9
ATOM      8  N   UNL     1       0.695  -0.439  -1.211  0.00  0.00    -0.302 N 
ATOM      9  C   UNL     1       0.010  -0.590  -2.362  0.00  0.00    +0.250 C 
ATOM     10  O   UNL     1      -1.193  -0.412  -2.382  0.00  0.00    -0.270 OA
ATOM     11  H   UNL     1       1.641  -0.653  -1.178  0.00  0.00    +0.150 HD
BRANCH   8  13
ATOM     12  C   UNL     1      -0.016   1.577  -0.023  0.00  0.00    +0.036 C 
ATOM     13  C   UNL     1       0.011   0.047  -0.010  0.00  0.00    +0.136 C 
BRANCH  13  14
ATOM     14  C   UNL     1       0.746  -0.432   1.215  0.00  0.00    +0.125 A 
ATOM     15  C   UNL     1       0.177  -0.879   2.349  0.00  0.00    +0.046 A 
ATOM     16  C   UNL     1       1.230  -1.221   3.228  0.00  0.00    +0.041 A 
ATOM     17  C   UNL     1       2.380  -0.963   2.579  0.00  0.00    +0.195 A 
ATOM     18  O   UNL     1       2.080  -0.491   1.358  0.00  0.00    -0.466 OA
ENDBRANCH  13  14
ENDBRANCH   8  13
ENDBRANCH   1   9
BRANCH   5  19
ATOM     19  C   UNL     1       4.207  -2.031  -4.918  0.00  0.00    +0.249 C 
ATOM     20  O   UNL     1       4.733  -2.233  -5.995  0.00  0.00    -0.270 OA
ATOM     21  N   UNL     1       4.930  -2.131  -3.785  0.00  0.00    -0.308 N 
ATOM     22  H   UNL     1       4.531  -1.898  -2.933  0.00  0.00    +0.149 HD
BRANCH  21  23
ATOM     23  C   UNL     1       6.320  -2.591  -3.842  0.00  0.00    +0.073 C 
ATOM     24  C   UNL     1       6.352  -4.120  -3.823  0.00  0.00    +0.022 C 
ATOM     25  C   UNL     1       7.730  -4.607  -4.275  0.00  0.00    +0.002 C 
ATOM     26  C   UNL     1       8.179  -3.805  -5.498  0.00  0.00    +0.000 C 
ATOM     27  C   UNL     1       9.384  -2.939  -5.126  0.00  0.00    +0.000 C 
ATOM     28  C   UNL     1       8.913  -1.735  -4.308  0.00  0.00    +0.000 C 
ATOM     29  C   UNL     1       8.590  -2.182  -2.881  0.00  0.00    +0.002 C 
ATOM     30  C   UNL     1       7.086  -2.050  -2.633  0.00  0.00    +0.022 C 
ENDBRANCH  21  23
ENDBRANCH   5  19
BRANCH   3  31
ATOM     31  C   UNL     1      -0.078  -1.393  -7.183  0.00  0.00    +0.081 C 
ATOM     32  C   UNL     1      -1.223  -2.399  -7.052  0.00  0.00    +0.030 C 
ATOM     33  C   UNL     1      -0.650  -0.002  -7.462  0.00  0.00    +0.030 C 
ENDBRANCH   3  31
TORSDOF 6
