REMARK  Name = ZINC07881327
REMARK  4 active torsions:
REMARK  status: ('A' for Active; 'I' for Inactive)
REMARK    1  A    between atoms: C_1  and  C_2
REMARK    2  A    between atoms: C_5  and  C_7
REMARK    3  A    between atoms: C_10  and  C_20
REMARK    4  A    between atoms: C_10  and  O_24
REMARK                            x       y       z     vdW  Elec       q    Type
REMARK                         _______ _______ _______ _____ _____    ______ ____
ROOT
ATOM      1  C   UNL     1       0.111  -0.547   4.266  0.00  0.00    +0.304 C 
ATOM      2  O   UNL     1       1.233  -0.315   4.678  0.00  0.00    -0.265 OA
ATOM      3  N   UNL     1      -0.372   0.134   3.208  0.00  0.00    -0.145 N 
ATOM      4  C   UNL     1       0.344   1.179   2.460  0.00  0.00    +0.259 C 
ATOM      5  C   UNL     1      -0.631   1.528   1.310  0.00  0.00    +0.096 C 
ATOM      6  C   UNL     1      -0.013   1.086   0.008  0.00  0.00    +0.014 C 
ATOM      7  C   UNL     1      -0.646   1.535  -1.258  0.00  0.00    +0.001 C 
ATOM      8  C   UNL     1      -2.140   1.606  -1.321  0.00  0.00    +0.000 C 
ATOM      9  C   UNL     1      -2.893   0.525  -0.612  0.00  0.00    +0.006 C 
ATOM     10  C   UNL     1      -3.144   0.801   0.855  0.00  0.00    +0.053 C 
ATOM     11  C   UNL     1      -1.860   0.704   1.638  0.00  0.00    +0.045 C 
ATOM     12  N   UNL     1      -1.632  -0.035   2.642  0.00  0.00    -0.183 NA
ENDROOT
BRANCH   1  17
ATOM     13  C   UNL     1      -3.760  -3.543   5.321  0.00  0.00    +0.086 C 
ATOM     14  C   UNL     1      -2.407  -2.882   5.388  0.00  0.00    +0.103 A 
ATOM     15  C   UNL     1      -1.438  -3.163   6.287  0.00  0.00    +0.045 A 
ATOM     16  C   UNL     1      -0.349  -2.325   5.996  0.00  0.00    +0.055 A 
ATOM     17  C   UNL     1      -0.714  -1.566   4.920  0.00  0.00    +0.191 A 
ATOM     18  O   UNL     1      -1.970  -1.915   4.570  0.00  0.00    -0.455 OA
ENDBRANCH   1  17
BRANCH   4  19
ATOM     19  C   UNL     1       0.598   2.402   3.344  0.00  0.00    +0.438 C 
ATOM     20  F   UNL     1      -0.612   2.838   3.893  0.00  0.00    -0.166 F 
ATOM     21  F   UNL     1       1.481   2.059   4.373  0.00  0.00    -0.166 F 
ATOM     22  F   UNL     1       1.156   3.427   2.572  0.00  0.00    -0.166 F 
ENDBRANCH   4  19
BRANCH   4  23
ATOM     23  O   UNL     1       1.575   0.671   1.940  0.00  0.00    -0.363 OA
ATOM     24  H   UNL     1       2.222   0.437   2.619  0.00  0.00    +0.212 HD
ENDBRANCH   4  23
TORSDOF 3
