REMARK  Name = ZINC52288491
REMARK  4 active torsions:
REMARK  status: ('A' for Active; 'I' for Inactive)
REMARK    1  A    between atoms: C_1  and  C_2
REMARK    2  A    between atoms: C_5  and  N_7
REMARK    3  A    between atoms: C_8  and  C_10
REMARK    4  A    between atoms: C_14  and  N_16
REMARK                            x       y       z     vdW  Elec       q    Type
REMARK                         _______ _______ _______ _____ _____    ______ ____
ROOT
ATOM      1  C   UNL     1      -0.225  -3.663   3.368  0.00  0.00    +0.039 A 
ATOM      2  C   UNL     1      -0.985  -4.451   2.501  0.00  0.00    +0.014 A 
ATOM      3  C   UNL     1      -1.517  -5.643   2.945  0.00  0.00    +0.018 A 
ATOM      4  C   UNL     1      -1.300  -6.059   4.248  0.00  0.00    +0.048 A 
ATOM      5  C   UNL     1      -0.548  -5.281   5.113  0.00  0.00    +0.141 A 
ATOM      6  C   UNL     1      -0.005  -4.090   4.678  0.00  0.00    +0.047 A 
ATOM      7 BR   UNL     1      -2.034  -7.694   4.850  0.00  0.00    -0.048 Br
ENDROOT
BRANCH   1   9
ATOM      8  N   UNL     1       0.135  -1.975   1.632  0.00  0.00    -0.308 N 
ATOM      9  C   UNL     1       0.348  -2.384   2.898  0.00  0.00    +0.244 C 
ATOM     10  O   UNL     1       1.013  -1.702   3.653  0.00  0.00    -0.270 OA
ATOM     11  H   UNL     1      -0.396  -2.519   1.029  0.00  0.00    +0.149 HD
BRANCH   8  15
ATOM     12  C   UNL     1      -0.019   1.526   0.010  0.00  0.00    +0.009 C 
ATOM     13  C   UNL     1       0.002  -0.004   0.002  0.00  0.00    +0.008 C 
ATOM     14  C   UNL     1       1.351  -0.691  -0.221  0.00  0.00    +0.027 C 
ATOM     15  C   UNL     1       0.703  -0.708   1.166  0.00  0.00    +0.076 C 
ENDBRANCH   8  15
ENDBRANCH   1   9
BRANCH   5  16
ATOM     16  N   UNL     1      -0.322  -5.732   6.505  0.00  0.00    +0.058 N 
ATOM     17  O   UNL     1       0.334  -5.054   7.261  0.00  0.00    -0.126 OA
ATOM     18  O   UNL     1      -0.793  -6.778   6.885  0.00  0.00    -0.126 OA
ENDBRANCH   5  16
TORSDOF 3
