REMARK  Name = ZINC19402779
REMARK  4 active torsions:
REMARK  status: ('A' for Active; 'I' for Inactive)
REMARK    1  A    between atoms: C_5  and  C_7
REMARK    2  A    between atoms: C_9  and  C_14
REMARK    3  A    between atoms: N_19  and  C_21
REMARK    4  A    between atoms: C_21  and  C_22
REMARK                            x       y       z     vdW  Elec       q    Type
REMARK                         _______ _______ _______ _____ _____    ______ ____
ROOT
ATOM      1  C   UNL     1      -1.387   3.906   2.566  0.00  0.00    +0.052 C 
ATOM      2  C   UNL     1      -0.942   3.175   3.836  0.00  0.00    +0.012 C 
ATOM      3  C   UNL     1      -1.078   1.665   3.620  0.00  0.00    +0.016 C 
ATOM      4  C   UNL     1      -0.241   1.250   2.408  0.00  0.00    +0.085 C 
ATOM      5  N   UNL     1      -0.706   1.976   1.219  0.00  0.00    -0.297 NA
ATOM      6  C   UNL     1      -0.541   3.426   1.384  0.00  0.00    +0.094 C 
ENDROOT
BRANCH   1   9
ATOM      7  C   UNL     1      -1.894   7.551   2.347  0.00  0.00    +0.159 A 
ATOM      8  N   UNL     1      -2.051   6.243   2.198  0.00  0.00    -0.232 NA
ATOM      9  C   UNL     1      -1.201   5.390   2.748  0.00  0.00    +0.053 A 
ATOM     10  C   UNL     1      -0.140   5.877   3.491  0.00  0.00    +0.093 A 
ATOM     11  C   UNL     1      -0.003   7.258   3.629  0.00  0.00    +0.252 A 
ATOM     12  N   UNL     1      -0.888   8.055   3.047  0.00  0.00    -0.306 N 
ATOM     13  O   UNL     1       1.024   7.777   4.345  0.00  0.00    -0.268 OA
ATOM     14  H   UNL     1      -0.781   9.145   3.149  0.00  0.00    +0.170 HD
BRANCH   7  19
ATOM     15  C   UNL     1      -3.634  10.697   1.267  0.00  0.00    +0.004 A 
ATOM     16  C   UNL     1      -4.676  10.140   0.541  0.00  0.00    +0.020 A 
ATOM     17  C   UNL     1      -4.768   8.763   0.434  0.00  0.00    +0.111 A 
ATOM     18  N   UNL     1      -3.881   7.980   1.011  0.00  0.00    -0.252 NA
ATOM     19  C   UNL     1      -2.870   8.473   1.714  0.00  0.00    +0.106 A 
ATOM     20  C   UNL     1      -2.719   9.849   1.868  0.00  0.00    +0.031 A 
ENDBRANCH   7  19
ENDBRANCH   1   9
BRANCH   5  21
ATOM     21  C   UNL     1      -0.018   1.503   0.010  0.00  0.00    +0.123 C 
BRANCH  21  22
ATOM     22  C   UNL     1       0.002  -0.004   0.002  0.00  0.00    +0.010 A 
ATOM     23  C   UNL     1       1.121  -0.685   0.390  0.00  0.00    +0.117 A 
ATOM     24  N   UNL     1       1.163  -2.008   0.392  0.00  0.00    -0.262 NA
ATOM     25  C   UNL     1       0.138  -2.746   0.022  0.00  0.00    +0.123 A 
ATOM     26  C   UNL     1      -1.048  -2.136  -0.391  0.00  0.00    +0.057 A 
ATOM     27  C   UNL     1      -1.123  -0.726  -0.397  0.00  0.00    +0.075 A 
ATOM     28  N   UNL     1      -2.376  -0.399  -0.828  0.00  0.00    -0.275 N 
ATOM     29  H   UNL     1      -2.668   0.658  -0.919  0.00  0.00    +0.189 HD
ATOM     30  N   UNL     1      -3.092  -1.572  -1.089  0.00  0.00    -0.161 NA
ATOM     31  C   UNL     1      -2.345  -2.615  -0.854  0.00  0.00    +0.160 A 
ATOM     32 CL   UNL     1      -2.818  -4.275  -1.038  0.00  0.00    -0.059 Cl
ENDBRANCH  21  22
ENDBRANCH   5  21
TORSDOF 4
