REMARK  Name = ZINC35642098
REMARK  15 active torsions:
REMARK  status: ('A' for Active; 'I' for Inactive)
REMARK    1  A    between atoms: C_1  and  C_2
REMARK    2  A    between atoms: C_2  and  C_3
REMARK    3  A    between atoms: N_9  and  C_12
REMARK    4  A    between atoms: C_12  and  C_13
REMARK    5  A    between atoms: C_14  and  C_33
REMARK    6  A    between atoms: C_15  and  C_23
REMARK    7  A    between atoms: N_20  and  C_21
REMARK    8  A    between atoms: C_21  and  C_22
REMARK    9  A    between atoms: C_25  and  O_31
REMARK   10  A    between atoms: C_27  and  O_29
REMARK   11  A    between atoms: O_29  and  C_30
REMARK   12  A    between atoms: O_31  and  C_32
REMARK   13  A    between atoms: C_33  and  O_35
REMARK   14  A    between atoms: O_35  and  C_36
REMARK   15  A    between atoms: C_36  and  C_37
REMARK                            x       y       z     vdW  Elec       q    Type
REMARK                         _______ _______ _______ _____ _____    ______ ____
ROOT
ATOM      1  C   UNL     1       5.515  -3.943   2.542  0.00  0.00    +0.010 C 
ATOM      2  C   UNL     1       6.150  -5.134   2.576  0.00  0.00    +0.076 C 
ATOM      3  C   UNL     1       6.664  -5.621   3.916  0.00  0.00    +0.144 C 
ATOM      4  N   UNL     1       6.427  -4.749   5.078  0.00  0.00    -0.288 N 
ATOM      5  C   UNL     1       5.775  -3.586   4.885  0.00  0.00    +0.307 C 
ATOM      6  O   UNL     1       5.574  -2.859   5.838  0.00  0.00    -0.252 OA
ATOM      7  N   UNL     1       5.347  -3.201   3.676  0.00  0.00    -0.261 N 
ATOM      8  H   UNL     1       6.732  -5.006   5.962  0.00  0.00    +0.151 HD
ENDROOT
BRANCH   3   9
ATOM      9  C   UNL     1       8.151  -5.836   3.793  0.00  0.00    -0.016 A 
ATOM     10  C   UNL     1       9.012  -4.759   3.876  0.00  0.00    +0.051 A 
ATOM     11  C   UNL     1      10.382  -4.954   3.764  0.00  0.00    +0.124 A 
ATOM     12  C   UNL     1      10.885  -6.230   3.567  0.00  0.00    +0.091 A 
ATOM     13  C   UNL     1      10.019  -7.309   3.483  0.00  0.00    +0.124 A 
ATOM     14  C   UNL     1       8.650  -7.110   3.602  0.00  0.00    +0.051 A 
BRANCH  13  15
ATOM     15  O   UNL     1      10.509  -8.562   3.290  0.00  0.00    -0.495 OA
ATOM     16  C   UNL     1      11.928  -8.693   3.182  0.00  0.00    +0.277 C 
ENDBRANCH  13  15
BRANCH  11  17
ATOM     17  O   UNL     1      11.229  -3.894   3.845  0.00  0.00    -0.495 OA
ATOM     18  C   UNL     1      12.625  -4.168   3.721  0.00  0.00    +0.277 C 
ENDBRANCH  11  17
ENDBRANCH   3   9
BRANCH   7  19
ATOM     19  C   UNL     1       4.653  -1.916   3.564  0.00  0.00    +0.111 C 
ATOM     20  C   UNL     1       3.170  -2.107   3.888  0.00  0.00    +0.025 C 
ENDBRANCH   7  19
BRANCH   2  21
ATOM     21  C   UNL     1       6.330  -5.902   1.401  0.00  0.00    +0.339 C 
ATOM     22  O   UNL     1       6.022  -5.438   0.319  0.00  0.00    -0.245 OA
BRANCH  21  23
ATOM     23  O   UNL     1       6.841  -7.148   1.481  0.00  0.00    -0.462 OA
BRANCH  23  24
ATOM     24  C   UNL     1       6.995  -7.865   0.255  0.00  0.00    +0.229 C 
ATOM     25  C   UNL     1       7.585  -9.247   0.543  0.00  0.00    +0.048 C 
ENDBRANCH  23  24
ENDBRANCH  21  23
ENDBRANCH   2  21
BRANCH   1  26
ATOM     26  C   UNL     1       4.988  -3.422   1.230  0.00  0.00    -0.026 C 
BRANCH  26  33
ATOM     27  C   UNL     1       8.432  -2.356  -2.440  0.00  0.00    +0.215 C 
ATOM     28  O   UNL     1       9.119  -3.338  -2.257  0.00  0.00    -0.276 OA
ATOM     29  N   UNL     1       7.936  -1.675  -1.387  0.00  0.00    -0.303 N 
ATOM     30  C   UNL     1       7.097  -0.486  -1.640  0.00  0.00    +0.106 C 
ATOM     31  C   UNL     1       5.891  -0.447  -0.684  0.00  0.00    +0.000 C 
ATOM     32  C   UNL     1       5.338  -1.845  -0.513  0.00  0.00    -0.077 C 
ATOM     33  N   UNL     1       5.945  -2.462   0.664  0.00  0.00    +0.384 N 
ATOM     34  C   UNL     1       7.162  -3.137   0.422  0.00  0.00    -0.059 C 
ATOM     35  C   UNL     1       8.239  -2.140  -0.050  0.00  0.00    +0.089 C 
ATOM     36  H   UNL     1       6.112  -1.742   1.351  0.00  0.00    -0.081 HD
BRANCH  27  38
ATOM     37  C   UNL     1       8.810  -2.835  -4.843  0.00  0.00    +0.013 C 
ATOM     38  C   UNL     1       8.133  -1.895  -3.843  0.00  0.00    +0.092 C 
ENDBRANCH  27  38
ENDBRANCH  26  33
ENDBRANCH   1  26
TORSDOF 10
