REMARK  Name = ZINC29500335
REMARK  9 active torsions:
REMARK  status: ('A' for Active; 'I' for Inactive)
REMARK    1  A    between atoms: C_1  and  C_2
REMARK    2  A    between atoms: C_5  and  N_9
REMARK    3  A    between atoms: C_6  and  C_8
REMARK    4  A    between atoms: C_13  and  C_15
REMARK    5  A    between atoms: C_15  and  C_17
REMARK    6  A    between atoms: C_15  and  S_18
REMARK    7  A    between atoms: S_18  and  C_19
REMARK    8  A    between atoms: C_22  and  C_30
REMARK    9  A    between atoms: N_23  and  C_24
REMARK                            x       y       z     vdW  Elec       q    Type
REMARK                         _______ _______ _______ _____ _____    ______ ____
ROOT
ATOM      1  C   UNL     1      -3.694   1.667   3.267  0.00  0.00    +0.137 C 
ATOM      2  C   UNL     1      -4.848   1.102   2.437  0.00  0.00    +0.029 C 
ENDROOT
BRANCH   1   7
ATOM      3  N   UNL     1      -5.565   1.748   7.694  0.00  0.00    -0.269 N 
ATOM      4  C   UNL     1      -4.707   1.199   6.812  0.00  0.00    +0.310 C 
ATOM      5  O   UNL     1      -3.998   0.271   7.150  0.00  0.00    -0.252 OA
ATOM      6  N   UNL     1      -4.634   1.679   5.555  0.00  0.00    -0.239 N 
ATOM      7  C   UNL     1      -3.776   1.131   4.673  0.00  0.00    +0.234 C 
ATOM      8  O   UNL     1      -3.069   0.205   5.010  0.00  0.00    -0.274 OA
ATOM      9  H   UNL     1      -6.139   2.645   7.418  0.00  0.00    +0.156 HD
ATOM     10  H   UNL     1      -5.275   2.519   5.249  0.00  0.00    +0.159 HD
BRANCH   3  15
ATOM     11  C   UNL     1      -6.219  -0.568  12.832  0.00  0.00    +0.044 C 
ATOM     12  C   UNL     1      -6.046   0.047  11.467  0.00  0.00    -0.050 A 
ATOM     13  C   UNL     1      -5.608  -0.730  10.410  0.00  0.00    +0.005 A 
ATOM     14  C   UNL     1      -5.448  -0.170   9.158  0.00  0.00    +0.024 A 
ATOM     15  C   UNL     1      -5.727   1.177   8.961  0.00  0.00    +0.038 A 
ATOM     16  C   UNL     1      -6.161   1.956  10.025  0.00  0.00    -0.029 A 
ATOM     17  C   UNL     1      -6.324   1.388  11.274  0.00  0.00    +0.008 A 
ATOM     18  C   UNL     1      -6.459   3.418   9.818  0.00  0.00    +0.045 C 
ENDBRANCH   3  15
ENDBRANCH   1   7
BRANCH   1  19
ATOM     19  S   UNL     1      -2.119   1.175   2.523  0.00  0.00    -0.073 S 
BRANCH  19  20
ATOM     20  C   UNL     1      -2.221   2.038   0.990  0.00  0.00    +0.197 A 
ATOM     21  N   UNL     1      -3.210   2.803   0.589  0.00  0.00    -0.122 NA
ATOM     22  N   UNL     1      -2.953   3.273  -0.579  0.00  0.00    -0.133 NA
ATOM     23  C   UNL     1      -1.793   2.846  -0.990  0.00  0.00    +0.142 A 
ATOM     24  N   UNL     1      -1.285   2.038  -0.007  0.00  0.00    -0.274 N 
BRANCH  24  25
ATOM     25  C   UNL     1      -0.059   1.357  -0.019  0.00  0.00    +0.050 A 
ATOM     26  C   UNL     1       1.132   2.069  -0.039  0.00  0.00    +0.026 A 
ATOM     27  C   UNL     1       2.338   1.396  -0.057  0.00  0.00    +0.002 A 
ATOM     28  C   UNL     1       2.359   0.013  -0.055  0.00  0.00    +0.000 A 
ATOM     29  C   UNL     1       1.174  -0.699  -0.036  0.00  0.00    +0.002 A 
ATOM     30  C   UNL     1      -0.035  -0.031  -0.018  0.00  0.00    +0.026 A 
ENDBRANCH  24  25
BRANCH  23  31
ATOM     31  C   UNL     1      -1.133   3.177  -2.304  0.00  0.00    +0.057 C 
ATOM     32  C   UNL     1      -1.782   4.261  -3.167  0.00  0.00    +0.012 C 
ATOM     33  C   UNL     1      -1.877   2.792  -3.584  0.00  0.00    +0.012 C 
ENDBRANCH  23  31
ENDBRANCH  19  20
ENDBRANCH   1  19
TORSDOF 6
