REMARK  Name = ZINC13641988
REMARK  15 active torsions:
REMARK  status: ('A' for Active; 'I' for Inactive)
REMARK    1  A    between atoms: C_1  and  C_2
REMARK    2  A    between atoms: C_2  and  N_72
REMARK    3  A    between atoms: C_3  and  C_4
REMARK    4  A    between atoms: C_3  and  N_72
REMARK    5  A    between atoms: C_5  and  C_6
REMARK    6  A    between atoms: C_5  and  N_72
REMARK    7  A    between atoms: C_6  and  N_7
REMARK    8  A    between atoms: C_8  and  C_10
REMARK    9  A    between atoms: C_23  and  C_26
REMARK   10  A    between atoms: C_28  and  O_36
REMARK   11  A    between atoms: C_29  and  O_34
REMARK   12  A    between atoms: C_30  and  O_32
REMARK   13  A    between atoms: O_32  and  C_33
REMARK   14  A    between atoms: O_34  and  C_35
REMARK   15  A    between atoms: O_36  and  C_37
REMARK                            x       y       z     vdW  Elec       q    Type
REMARK                         _______ _______ _______ _____ _____    ______ ____
ROOT
ATOM      1  C   UNL     1      -5.240   6.223  -0.938  0.00  0.00    +0.037 A 
ATOM      2  C   UNL     1      -4.446   6.044  -2.075  0.00  0.00    +0.015 A 
ATOM      3  C   UNL     1      -4.009   4.786  -2.416  0.00  0.00    +0.024 A 
ATOM      4  C   UNL     1      -4.352   3.682  -1.639  0.00  0.00    +0.031 A 
ATOM      5  C   UNL     1      -5.161   3.861  -0.507  0.00  0.00    -0.019 A 
ATOM      6  C   UNL     1      -5.592   5.118  -0.158  0.00  0.00    +0.019 A 
ATOM      7  C   UNL     1      -5.534   2.654   0.263  0.00  0.00    +0.049 C 
ATOM      8  C   UNL     1      -5.867   2.717   1.709  0.00  0.00    -0.023 C 
ATOM      9  C   UNL     1      -5.505   1.573   2.277  0.00  0.00    -0.030 C 
ATOM     10  C   UNL     1      -4.859   0.654   1.238  0.00  0.00    +0.033 C 
ATOM     11  C   UNL     1      -4.328   1.669   0.217  0.00  0.00    +0.029 C 
ATOM     12  C   UNL     1      -4.232   1.214  -1.228  0.00  0.00    +0.105 C 
ATOM     13  N   UNL     1      -3.879   2.422  -2.005  0.00  0.00    -0.336 N 
ATOM     14  H   UNL     1      -3.307   2.337  -2.783  0.00  0.00    +0.147 HD
ENDROOT
BRANCH  12  15
ATOM     15  C   UNL     1      -3.157   0.169  -1.375  0.00  0.00    -0.020 A 
ATOM     16  C   UNL     1      -1.827   0.544  -1.380  0.00  0.00    +0.055 A 
ATOM     17  C   UNL     1      -0.834  -0.414  -1.520  0.00  0.00    +0.165 A 
ATOM     18  C   UNL     1      -1.179  -1.754  -1.657  0.00  0.00    +0.204 A 
ATOM     19  C   UNL     1      -2.518  -2.127  -1.651  0.00  0.00    +0.165 A 
ATOM     20  C   UNL     1      -3.504  -1.163  -1.510  0.00  0.00    +0.055 A 
BRANCH  19  21
ATOM     21  O   UNL     1      -2.860  -3.437  -1.785  0.00  0.00    -0.491 OA
ATOM     22  C   UNL     1      -4.254  -3.747  -1.771  0.00  0.00    +0.277 C 
ENDBRANCH  19  21
BRANCH  18  23
ATOM     23  O   UNL     1      -0.208  -2.697  -1.796  0.00  0.00    -0.488 OA
ATOM     24  C   UNL     1       0.211  -3.006  -3.127  0.00  0.00    +0.277 C 
ENDBRANCH  18  23
BRANCH  17  25
ATOM     25  O   UNL     1       0.474  -0.044  -1.525  0.00  0.00    -0.491 OA
ATOM     26  C   UNL     1       0.754   1.350  -1.380  0.00  0.00    +0.277 C 
ENDBRANCH  17  25
ENDBRANCH  12  15
BRANCH   1  28
ATOM     27  N   UNL     1      -5.363   8.636  -1.317  0.00  0.00    -0.313 N 
ATOM     28  C   UNL     1      -5.704   7.572  -0.563  0.00  0.00    +0.244 C 
ATOM     29  O   UNL     1      -6.395   7.725   0.426  0.00  0.00    -0.270 OA
ATOM     30  H   UNL     1      -4.812   8.514  -2.106  0.00  0.00    +0.149 HD
BRANCH  27  31
ATOM     31  C   UNL     1      -5.824   9.976  -0.945  0.00  0.00    +0.086 C 
BRANCH  31  32
ATOM     32  C   UNL     1      -5.301  10.995  -1.959  0.00  0.00    -0.060 C 
BRANCH  32  33
ATOM     33  N   UNL     1      -5.791  12.338  -1.582  0.00  0.00    +0.380 N 
ATOM     34  H   UNL     1      -6.809  12.296  -1.452  0.00  0.00    -0.082 HD
BRANCH  33  36
ATOM     35  C   UNL     1      -3.640  12.818  -0.464  0.00  0.00    -0.017 C 
ATOM     36  C   UNL     1      -5.162  12.768  -0.316  0.00  0.00    -0.082 C 
ENDBRANCH  33  36
BRANCH  33  37
ATOM     37  C   UNL     1      -5.484  13.307  -2.655  0.00  0.00    -0.082 C 
ATOM     38  C   UNL     1      -6.305  14.577  -2.420  0.00  0.00    -0.017 C 
ENDBRANCH  33  37
ENDBRANCH  32  33
ENDBRANCH  31  32
ENDBRANCH  27  31
ENDBRANCH   1  28
TORSDOF 10
