REMARK  Name = ZINC02230870
REMARK  6 active torsions:
REMARK  status: ('A' for Active; 'I' for Inactive)
REMARK    1  A    between atoms: C_1  and  O_2
REMARK    2  A    between atoms: O_2  and  C_3
REMARK    3  A    between atoms: C_8  and  O_9
REMARK    4  A    between atoms: O_9  and  C_10
REMARK    5  A    between atoms: C_14  and  N_16
REMARK    6  A    between atoms: C_19  and  C_22
REMARK                            x       y       z     vdW  Elec       q    Type
REMARK                         _______ _______ _______ _____ _____    ______ ____
ROOT
ATOM      1  N   UNL     1       1.881  -2.642   5.478  0.00  0.00    -0.285 N 
ATOM      2  C   UNL     1       2.653  -2.704   6.627  0.00  0.00    +0.162 A 
ATOM      3  N   UNL     1       2.284  -2.580   7.888  0.00  0.00    -0.225 NA
ATOM      4  C   UNL     1       3.172  -2.668   8.877  0.00  0.00    +0.087 A 
ATOM      5  C   UNL     1       4.487  -2.891   8.576  0.00  0.00    +0.077 A 
ATOM      6  S   UNL     1       4.411  -2.980   6.792  0.00  0.00    -0.060 S 
ATOM      7  H   UNL     1       0.926  -2.484   5.544  0.00  0.00    +0.152 HD
ENDROOT
BRANCH   4   8
ATOM      8  C   UNL     1       2.740  -2.526  10.286  0.00  0.00    +0.086 A 
ATOM      9  C   UNL     1       1.423  -2.307  10.612  0.00  0.00    +0.028 A 
ATOM     10  C   UNL     1       1.091  -2.179  12.033  0.00  0.00    +0.018 A 
ATOM     11  C   UNL     1      -0.238  -2.222  12.468  0.00  0.00    +0.011 A 
ATOM     12  C   UNL     1      -0.520  -2.103  13.800  0.00  0.00    +0.001 A 
ATOM     13  C   UNL     1       0.501  -1.941  14.725  0.00  0.00    +0.004 A 
ATOM     14  C   UNL     1       1.819  -1.895  14.317  0.00  0.00    +0.047 A 
ATOM     15  C   UNL     1       2.128  -2.012  12.970  0.00  0.00    +0.139 A 
ATOM     16  O   UNL     1       3.414  -1.964  12.546  0.00  0.00    -0.422 OA
ATOM     17  C   UNL     1       3.704  -2.619  11.397  0.00  0.00    +0.347 A 
ATOM     18  O   UNL     1       4.730  -3.264  11.282  0.00  0.00    -0.244 OA
ENDBRANCH   4   8
BRANCH   1  28
ATOM     19  C   UNL     1       0.626  -0.619   1.042  0.00  0.00    +0.162 A 
ATOM     20  C   UNL     1       1.201   0.139   2.049  0.00  0.00    +0.050 A 
ATOM     21  C   UNL     1       1.839  -0.480   3.113  0.00  0.00    +0.013 A 
ATOM     22  C   UNL     1       1.905  -1.850   3.176  0.00  0.00    +0.029 A 
ATOM     23  C   UNL     1       1.330  -2.633   2.167  0.00  0.00    +0.112 A 
ATOM     24  C   UNL     1       0.681  -2.009   1.096  0.00  0.00    +0.176 A 
ATOM     25  C   UNL     1       1.562  -4.044   2.512  0.00  0.00    +0.345 C 
ATOM     26  O   UNL     1       1.193  -4.993   1.848  0.00  0.00    -0.245 OA
ATOM     27  O   UNL     1       2.241  -4.131   3.667  0.00  0.00    -0.435 OA
ATOM     28  C   UNL     1       2.505  -2.816   4.165  0.00  0.00    +0.298 C 
BRANCH  19  30
ATOM     29  C   UNL     1      -0.017   1.425   0.010  0.00  0.00    +0.277 C 
ATOM     30  O   UNL     1       0.002  -0.004   0.002  0.00  0.00    -0.491 OA
ENDBRANCH  19  30
BRANCH  24  31
ATOM     31  O   UNL     1       0.114  -2.753   0.113  0.00  0.00    -0.491 OA
ATOM     32  C   UNL     1       0.939  -3.091  -1.004  0.00  0.00    +0.277 C 
ENDBRANCH  24  31
ENDBRANCH   1  28
TORSDOF 4
