REMARK  Name = ZINC45947154
REMARK  12 active torsions:
REMARK  status: ('A' for Active; 'I' for Inactive)
REMARK    1  A    between atoms: C_1  and  C_2
REMARK    2  A    between atoms: C_2  and  N_3
REMARK    3  A    between atoms: N_3  and  C_4
REMARK    4  A    between atoms: N_3  and  S_6
REMARK    5  A    between atoms: C_4  and  C_5
REMARK    6  A    between atoms: S_6  and  C_9
REMARK    7  A    between atoms: C_13  and  C_15
REMARK    8  A    between atoms: N_17  and  C_18
REMARK    9  A    between atoms: C_18  and  C_19
REMARK   10  A    between atoms: N_27  and  C_28
REMARK   11  A    between atoms: C_28  and  C_29
REMARK   12  A    between atoms: C_32  and  C_35
REMARK                            x       y       z     vdW  Elec       q    Type
REMARK                         _______ _______ _______ _____ _____    ______ ____
ROOT
ATOM      1  C   UNL     1       2.399   3.796  -8.025  0.00  0.00    +0.200 C 
ENDROOT
BRANCH   1   2
ATOM      2  C   UNL     1       1.941   4.942  -8.889  0.00  0.00    +0.235 C 
ATOM      3  O   UNL     1       0.781   5.310  -8.849  0.00  0.00    -0.274 OA
ATOM      4  N   UNL     1       2.800   5.550  -9.693  0.00  0.00    -0.270 N 
ATOM      5  C   UNL     1       2.426   6.647 -10.369  0.00  0.00    +0.105 A 
ATOM      6  C   UNL     1       1.276   7.349  -9.986  0.00  0.00    +0.042 A 
ATOM      7  C   UNL     1       0.909   8.465 -10.686  0.00  0.00    +0.005 A 
ATOM      8  C   UNL     1       1.688   8.884 -11.770  0.00  0.00    +0.018 A 
ATOM      9  C   UNL     1       2.796   8.186 -12.121  0.00  0.00    +0.088 A 
ATOM     10  N   UNL     1       3.167   7.083 -11.427  0.00  0.00    -0.331 N 
ATOM     11  H   UNL     1       3.701   5.203  -9.792  0.00  0.00    +0.156 HD
BRANCH  10  12
ATOM     12  C   UNL     1       4.373   6.349 -11.821  0.00  0.00    +0.158 C 
BRANCH  12  13
ATOM     13  C   UNL     1       4.010   5.292 -12.832  0.00  0.00    -0.028 A 
ATOM     14  C   UNL     1       3.650   4.026 -12.409  0.00  0.00    +0.005 A 
ATOM     15  C   UNL     1       3.317   3.056 -13.336  0.00  0.00    +0.004 A 
ATOM     16  C   UNL     1       3.343   3.353 -14.686  0.00  0.00    -0.050 A 
ATOM     17  C   UNL     1       3.701   4.620 -15.109  0.00  0.00    +0.004 A 
ATOM     18  C   UNL     1       4.030   5.590 -14.181  0.00  0.00    +0.005 A 
ATOM     19  C   UNL     1       2.981   2.296 -15.697  0.00  0.00    +0.044 C 
ENDBRANCH  12  13
ENDBRANCH  10  12
ENDBRANCH   1   2
BRANCH   1  22
ATOM     20  C   UNL     1       1.444   2.268  -6.384  0.00  0.00    +0.245 C 
ATOM     21  O   UNL     1       2.539   1.751  -6.272  0.00  0.00    -0.270 OA
ATOM     22  N   UNL     1       1.270   3.299  -7.235  0.00  0.00    -0.303 N 
ATOM     23  H   UNL     1       0.396   3.712  -7.324  0.00  0.00    +0.150 HD
BRANCH  20  28
ATOM     24  C   UNL     1      -0.585   0.236  -3.964  0.00  0.00    +0.106 A 
ATOM     25  C   UNL     1      -1.829   0.827  -4.093  0.00  0.00    +0.028 A 
ATOM     26  C   UNL     1      -2.012   1.885  -4.965  0.00  0.00    +0.003 A 
ATOM     27  C   UNL     1      -0.953   2.358  -5.712  0.00  0.00    +0.013 A 
ATOM     28  C   UNL     1       0.305   1.767  -5.586  0.00  0.00    +0.039 A 
ATOM     29  C   UNL     1       0.484   0.703  -4.700  0.00  0.00    +0.041 A 
BRANCH  24  30
ATOM     30  S   UNL     1      -0.363  -1.111  -2.850  0.00  0.00    +0.061 S 
ATOM     31  O   UNL     1       0.768  -1.837  -3.311  0.00  0.00    -0.153 OA
ATOM     32  O   UNL     1      -1.639  -1.714  -2.683  0.00  0.00    -0.153 OA
BRANCH  30  33
ATOM     33  N   UNL     1       0.053  -0.469  -1.381  0.00  0.00    -0.177 NA
BRANCH  33  35
ATOM     34  C   UNL     1      -1.341   1.361  -0.550  0.00  0.00    +0.022 C 
ATOM     35  C   UNL     1      -0.989  -0.122  -0.412  0.00  0.00    +0.106 C 
ENDBRANCH  33  35
BRANCH  33  36
ATOM     36  C   UNL     1       1.463  -0.248  -1.052  0.00  0.00    +0.106 C 
ATOM     37  C   UNL     1       1.998  -1.448  -0.268  0.00  0.00    +0.022 C 
ENDBRANCH  33  36
ENDBRANCH  30  33
ENDBRANCH  24  30
ENDBRANCH  20  28
ENDBRANCH   1  22
TORSDOF 9
