REMARK  Name = ZINC20428902
REMARK  3 active torsions:
REMARK  status: ('A' for Active; 'I' for Inactive)
REMARK    1  A    between atoms: C_4  and  C_8
REMARK    2  A    between atoms: C_14  and  C_32
REMARK    3  A    between atoms: C_15  and  C_24
REMARK                            x       y       z     vdW  Elec       q    Type
REMARK                         _______ _______ _______ _____ _____    ______ ____
ROOT
ATOM      1  C   UNL     1      -2.402  -0.605  -0.006  0.00  0.00    +0.045 C 
ATOM      2  C   UNL     1      -1.108  -0.943   0.227  0.00  0.00    +0.138 A 
ATOM      3  C   UNL     1      -0.581  -2.276   0.543  0.00  0.00    +0.363 A 
ATOM      4  O   UNL     1      -1.221  -3.305   0.647  0.00  0.00    -0.243 OA
ATOM      5  O   UNL     1       0.749  -2.137   0.694  0.00  0.00    -0.403 OA
ATOM      6  C   UNL     1       1.106  -0.846   0.503  0.00  0.00    +0.222 A 
ATOM      7  C   UNL     1       2.358  -0.289   0.567  0.00  0.00    +0.088 C 
ATOM      8  C   UNL     1       2.499   1.196   0.312  0.00  0.00    +0.117 C 
ATOM      9  C   UNL     1       1.232   1.959   0.003  0.00  0.00    +0.119 A 
ATOM     10  C   UNL     1       0.068   1.284  -0.027  0.00  0.00    +0.235 A 
ATOM     11  O   UNL     1      -0.897   2.185  -0.327  0.00  0.00    -0.408 OA
ATOM     12  C   UNL     1      -0.310   3.386  -0.465  0.00  0.00    +0.287 A 
ATOM     13  N   UNL     1       0.978   3.250  -0.269  0.00  0.00    -0.197 NA
ATOM     14  N   UNL     1      -0.959   4.570  -0.770  0.00  0.00    -0.313 N 
ATOM     15  N   UNL     1       0.009  -0.089   0.218  0.00  0.00    -0.242 N 
ATOM     16  H   UNL     1      -0.385   5.504  -0.861  0.00  0.00    +0.147 HD
ATOM     17  H   UNL     1      -2.049   4.577  -0.921  0.00  0.00    +0.147 HD
ENDROOT
BRANCH   1  21
ATOM     18  C   UNL     1      -5.357  -3.630  -0.334  0.00  0.00    +0.004 A 
ATOM     19  C   UNL     1      -4.153  -3.771  -1.002  0.00  0.00    +0.039 A 
ATOM     20  C   UNL     1      -3.185  -2.792  -0.901  0.00  0.00    +0.132 A 
ATOM     21  C   UNL     1      -3.425  -1.652  -0.120  0.00  0.00    +0.031 A 
ATOM     22  C   UNL     1      -4.646  -1.522   0.555  0.00  0.00    +0.051 A 
ATOM     23  C   UNL     1      -5.603  -2.509   0.439  0.00  0.00    +0.021 A 
ATOM     24 CL   UNL     1      -4.955  -0.120   1.531  0.00  0.00    -0.083 Cl
ATOM     25  F   UNL     1      -2.010  -2.931  -1.553  0.00  0.00    -0.205 F 
ENDBRANCH   1  21
BRANCH   8  26
ATOM     26  C   UNL     1       3.447   1.381  -0.846  0.00  0.00    +0.020 A 
ATOM     27  C   UNL     1       4.619   2.098  -0.674  0.00  0.00    +0.129 A 
ATOM     28  C   UNL     1       5.488   2.267  -1.738  0.00  0.00    +0.039 A 
ATOM     29  C   UNL     1       5.186   1.721  -2.971  0.00  0.00    +0.004 A 
ATOM     30  C   UNL     1       4.016   1.005  -3.143  0.00  0.00    +0.020 A 
ATOM     31  C   UNL     1       3.148   0.831  -2.079  0.00  0.00    +0.048 A 
ATOM     32 CL   UNL     1       1.682  -0.074  -2.293  0.00  0.00    -0.083 Cl
ATOM     33  F   UNL     1       4.914   2.632   0.531  0.00  0.00    -0.205 F 
ENDBRANCH   8  26
BRANCH   7  34
ATOM     34  C   UNL     1       3.482  -1.078   0.861  0.00  0.00    +0.244 C 
ATOM     35  O   UNL     1       3.369  -2.288   0.957  0.00  0.00    -0.271 OA
ATOM     36  N   UNL     1       4.686  -0.498   1.038  0.00  0.00    -0.325 N 
ATOM     37  H   UNL     1       5.566  -1.116   1.268  0.00  0.00    +0.145 HD
ATOM     38  H   UNL     1       4.787   0.594   0.952  0.00  0.00    +0.145 HD
ENDBRANCH   7  34
TORSDOF 3
