REMARK  Name = ZINC08846798
REMARK  13 active torsions:
REMARK  status: ('A' for Active; 'I' for Inactive)
REMARK    1  A    between atoms: C_1  and  C_2
REMARK    2  A    between atoms: C_2  and  O_3
REMARK    3  A    between atoms: O_3  and  C_4
REMARK    4  A    between atoms: C_7  and  C_12
REMARK    5  A    between atoms: C_9  and  O_10
REMARK    6  A    between atoms: O_10  and  C_11
REMARK    7  A    between atoms: C_17  and  C_27
REMARK    8  A    between atoms: C_30  and  O_37
REMARK    9  A    between atoms: C_31  and  O_35
REMARK   10  A    between atoms: C_32  and  O_33
REMARK   11  A    between atoms: O_33  and  C_34
REMARK   12  A    between atoms: O_35  and  C_36
REMARK   13  A    between atoms: O_37  and  C_38
REMARK                            x       y       z     vdW  Elec       q    Type
REMARK                         _______ _______ _______ _____ _____    ______ ____
ROOT
ATOM      1  C   UNL     1      -1.185  -0.578  -4.090  0.00  0.00    +0.032 C 
ATOM      2  C   UNL     1      -0.065  -1.508  -3.625  0.00  0.00    +0.059 C 
ATOM      3  C   UNL     1       0.451  -1.062  -2.267  0.00  0.00    +0.017 C 
ATOM      4  C   UNL     1      -0.376  -0.480  -1.380  0.00  0.00    +0.037 C 
ATOM      5  C   UNL     1       0.002  -0.004   0.002  0.00  0.00    +0.140 C 
ATOM      6  N   UNL     1       1.303  -0.447   0.457  0.00  0.00    -0.331 N 
ATOM      7  C   UNL     1       2.467  -0.029  -0.184  0.00  0.00    +0.049 A 
ATOM      8  C   UNL     1       3.405   0.763   0.459  0.00  0.00    +0.025 A 
ATOM      9  C   UNL     1       4.523   1.193  -0.234  0.00  0.00    +0.002 A 
ATOM     10  C   UNL     1       4.704   0.840  -1.559  0.00  0.00    +0.002 A 
ATOM     11  C   UNL     1       3.778   0.034  -2.200  0.00  0.00    +0.025 A 
ATOM     12  C   UNL     1       2.671  -0.415  -1.501  0.00  0.00    +0.052 A 
ATOM     13  N   UNL     1       1.765  -1.318  -2.045  0.00  0.00    -0.316 N 
ATOM     14  C   UNL     1      -1.734  -0.261  -1.711  0.00  0.00    +0.163 C 
ATOM     15  O   UNL     1      -2.463   0.250  -0.884  0.00  0.00    -0.292 OA
ATOM     16  C   UNL     1      -2.305  -0.639  -3.045  0.00  0.00    +0.088 C 
ATOM     17  H   UNL     1       1.365  -1.044   1.219  0.00  0.00    +0.147 HD
ATOM     18  H   UNL     1       2.097  -2.197  -2.284  0.00  0.00    +0.152 HD
ENDROOT
BRANCH   1  22
ATOM     19  C   UNL     1      -2.670  -1.885  -7.881  0.00  0.00    +0.162 A 
ATOM     20  C   UNL     1      -2.733  -2.726  -6.782  0.00  0.00    +0.050 A 
ATOM     21  C   UNL     1      -2.247  -2.303  -5.559  0.00  0.00    +0.008 A 
ATOM     22  C   UNL     1      -1.707  -1.037  -5.427  0.00  0.00    -0.040 A 
ATOM     23  C   UNL     1      -1.641  -0.193  -6.519  0.00  0.00    +0.053 A 
ATOM     24  C   UNL     1      -2.122  -0.613  -7.750  0.00  0.00    +0.162 A 
BRANCH  24  25
ATOM     25  O   UNL     1      -2.057   0.216  -8.826  0.00  0.00    -0.491 OA
ATOM     26  C   UNL     1      -1.481   1.507  -8.616  0.00  0.00    +0.277 C 
ENDBRANCH  24  25
BRANCH  19  27
ATOM     27  O   UNL     1      -3.142  -2.302  -9.086  0.00  0.00    -0.489 OA
BRANCH  27  29
ATOM     28  C   UNL     1      -4.167  -3.909 -10.572  0.00  0.00    +0.048 C 
ATOM     29  C   UNL     1      -3.691  -3.620  -9.147  0.00  0.00    +0.226 C 
ENDBRANCH  27  29
ENDBRANCH  19  27
ENDBRANCH   1  22
BRANCH   5  30
ATOM     30  C   UNL     1      -0.018   1.503   0.010  0.00  0.00    +0.023 A 
ATOM     31  C   UNL     1       0.135   2.202  -1.173  0.00  0.00    +0.013 A 
ATOM     32  C   UNL     1       0.117   3.584  -1.170  0.00  0.00    +0.050 A 
ATOM     33  C   UNL     1      -0.056   4.275   0.020  0.00  0.00    +0.165 A 
ATOM     34  C   UNL     1      -0.211   3.576   1.211  0.00  0.00    +0.204 A 
ATOM     35  C   UNL     1      -0.197   2.186   1.203  0.00  0.00    +0.170 A 
BRANCH  35  36
ATOM     36  O   UNL     1      -0.353   1.498   2.366  0.00  0.00    -0.491 OA
ATOM     37  C   UNL     1       0.833   1.186   3.099  0.00  0.00    +0.277 C 
ENDBRANCH  35  36
BRANCH  34  38
ATOM     38  O   UNL     1      -0.381   4.251   2.380  0.00  0.00    -0.488 OA
ATOM     39  C   UNL     1      -1.723   4.556   2.764  0.00  0.00    +0.277 C 
ENDBRANCH  34  38
BRANCH  33  40
ATOM     40  O   UNL     1      -0.073   5.635   0.021  0.00  0.00    -0.491 OA
ATOM     41  C   UNL     1       0.093   6.287  -1.240  0.00  0.00    +0.277 C 
ENDBRANCH  33  40
ENDBRANCH   5  30
TORSDOF 8
