REMARK  Name = ZINC39444082
REMARK  10 active torsions:
REMARK  status: ('A' for Active; 'I' for Inactive)
REMARK    1  A    between atoms: C_1  and  C_2
REMARK    2  A    between atoms: C_2  and  C_3
REMARK    3  A    between atoms: N_17  and  N_18
REMARK    4  A    between atoms: C_19  and  C_20
REMARK    5  A    between atoms: C_22  and  O_30
REMARK    6  A    between atoms: C_23  and  O_28
REMARK    7  A    between atoms: C_24  and  O_26
REMARK    8  A    between atoms: O_26  and  C_27
REMARK    9  A    between atoms: O_28  and  C_29
REMARK   10  A    between atoms: O_30  and  C_31
REMARK                            x       y       z     vdW  Elec       q    Type
REMARK                         _______ _______ _______ _____ _____    ______ ____
ROOT
ATOM      1  C   UNL     1       0.731  -0.503   1.223  0.00  0.00    -0.047 A 
ATOM      2  C   UNL     1       2.116  -0.704   1.147  0.00  0.00    +0.005 A 
ATOM      3  C   UNL     1       2.831  -1.144   2.207  0.00  0.00    +0.026 A 
ATOM      4  C   UNL     1       2.141  -1.421   3.473  0.00  0.00    +0.046 A 
ATOM      5  N   UNL     1       2.575  -1.877   4.624  0.00  0.00    -0.358 N 
ATOM      6  C   UNL     1       1.484  -1.843   5.583  0.00  0.00    +0.253 C 
ATOM      7  C   UNL     1       0.233  -1.543   4.777  0.00  0.00    +0.115 C 
ATOM      8  C   UNL     1       0.672  -1.210   3.518  0.00  0.00    +0.025 A 
ATOM      9  C   UNL     1       0.025  -0.736   2.353  0.00  0.00    +0.015 A 
ATOM     10  N   UNL     1      -0.989  -1.747   5.274  0.00  0.00    -0.171 NA
ATOM     11  N   UNL     1      -1.075  -2.668   6.186  0.00  0.00    -0.247 N 
ATOM     12  C   UNL     1      -0.008  -3.415   6.558  0.00  0.00    +0.227 C 
ATOM     13  N   UNL     1       1.238  -3.106   6.279  0.00  0.00    -0.220 NA
ATOM     14  N   UNL     1      -0.242  -4.570   7.277  0.00  0.00    -0.206 N 
ATOM     15  H   UNL     1      -1.151  -4.825   7.502  0.00  0.00    +0.177 HD
ATOM     16  H   UNL     1      -1.930  -2.825   6.616  0.00  0.00    +0.192 HD
ATOM     17  H   UNL     1       3.477  -2.187   4.804  0.00  0.00    +0.162 HD
ENDROOT
BRANCH   1  19
ATOM     18  C   UNL     1      -0.019   1.526   0.010  0.00  0.00    +0.009 C 
ATOM     19  C   UNL     1       0.002  -0.004   0.002  0.00  0.00    +0.032 C 
ENDBRANCH   1  19
BRANCH  14  20
ATOM     20  N   UNL     1       0.831  -5.373   7.682  0.00  0.00    -0.188 NA
ATOM     21  C   UNL     1       0.610  -6.459   8.358  0.00  0.00    +0.138 C 
BRANCH  21  22
ATOM     22  C   UNL     1       1.740  -7.305   8.784  0.00  0.00    +0.002 A 
ATOM     23  C   UNL     1       3.050  -6.936   8.466  0.00  0.00    +0.059 A 
ATOM     24  C   UNL     1       4.108  -7.731   8.868  0.00  0.00    +0.166 A 
ATOM     25  C   UNL     1       3.869  -8.898   9.588  0.00  0.00    +0.204 A 
ATOM     26  C   UNL     1       2.566  -9.268   9.906  0.00  0.00    +0.166 A 
ATOM     27  C   UNL     1       1.504  -8.474   9.512  0.00  0.00    +0.059 A 
BRANCH  26  28
ATOM     28  O   UNL     1       2.336 -10.409  10.610  0.00  0.00    -0.491 OA
ATOM     29  C   UNL     1       0.974 -10.729  10.901  0.00  0.00    +0.277 C 
ENDBRANCH  26  28
BRANCH  25  30
ATOM     30  O   UNL     1       4.911  -9.678   9.982  0.00  0.00    -0.488 OA
ATOM     31  C   UNL     1       5.488  -9.394  11.258  0.00  0.00    +0.277 C 
ENDBRANCH  25  30
BRANCH  24  32
ATOM     32  O   UNL     1       5.383  -7.373   8.559  0.00  0.00    -0.491 OA
ATOM     33  C   UNL     1       5.555  -6.164   7.817  0.00  0.00    +0.277 C 
ENDBRANCH  24  32
ENDBRANCH  21  22
ENDBRANCH  14  20
TORSDOF 6
