REMARK  Name = ZINC62519269
REMARK  5 active torsions:
REMARK  status: ('A' for Active; 'I' for Inactive)
REMARK    1  A    between atoms: C_6  and  O_7
REMARK    2  A    between atoms: O_7  and  C_8
REMARK    3  A    between atoms: C_8  and  C_9
REMARK    4  A    between atoms: C_9  and  N_10
REMARK    5  A    between atoms: C_16  and  N_19
REMARK                            x       y       z     vdW  Elec       q    Type
REMARK                         _______ _______ _______ _____ _____    ______ ____
ROOT
ATOM      1  N   UNL     1      -3.167  -2.381  -1.231  0.00  0.00    -0.296 N 
ATOM      2  C   UNL     1      -4.427  -2.809  -1.444  0.00  0.00    +0.302 C 
ATOM      3  O   UNL     1      -4.957  -3.560  -0.648  0.00  0.00    -0.253 OA
ATOM      4  N   UNL     1      -5.099  -2.405  -2.540  0.00  0.00    -0.286 N 
ATOM      5  C   UNL     1      -4.435  -1.593  -3.569  0.00  0.00    +0.108 C 
ATOM      6  C   UNL     1      -5.266  -0.330  -3.813  0.00  0.00    +0.004 C 
ATOM      7  C   UNL     1      -6.704  -0.728  -4.157  0.00  0.00    -0.066 C 
ATOM      8  C   UNL     1      -7.319  -1.491  -2.982  0.00  0.00    +0.004 C 
ATOM      9  C   UNL     1      -6.509  -2.773  -2.732  0.00  0.00    +0.108 C 
ATOM     10  H   UNL     1      -2.718  -1.842  -1.901  0.00  0.00    +0.150 HD
ENDROOT
BRANCH   7  11
ATOM     11  N   UNL     1      -7.495   0.480  -4.425  0.00  0.00    +0.382 N 
ATOM     12  C   UNL     1      -6.965   1.187  -5.619  0.00  0.00    -0.079 C 
ATOM     13  C   UNL     1      -8.168   2.042  -6.089  0.00  0.00    -0.020 C 
ATOM     14  C   UNL     1      -9.376   1.113  -5.824  0.00  0.00    -0.020 C 
ATOM     15  C   UNL     1      -8.889   0.113  -4.760  0.00  0.00    -0.079 C 
ATOM     16  H   UNL     1      -7.480   1.091  -3.622  0.00  0.00    -0.081 HD
ENDBRANCH   7  11
BRANCH   1  17
ATOM     17  C   UNL     1      -2.476  -2.729   0.013  0.00  0.00    +0.146 C 
BRANCH  17  18
ATOM     18  C   UNL     1      -1.071  -2.124   0.003  0.00  0.00    +0.247 C 
BRANCH  18  19
ATOM     19  O   UNL     1      -1.167  -0.698   0.010  0.00  0.00    -0.490 OA
BRANCH  19  25
ATOM     20  C   UNL     1      -0.020   1.386   0.009  0.00  0.00    +0.047 A 
ATOM     21  C   UNL     1       1.167   2.093   0.002  0.00  0.00    +0.019 A 
ATOM     22  C   UNL     1       2.375   1.418  -0.012  0.00  0.00    +0.018 A 
ATOM     23  C   UNL     1       2.397   0.035  -0.019  0.00  0.00    +0.019 A 
ATOM     24  C   UNL     1       1.212  -0.676  -0.012  0.00  0.00    +0.047 A 
ATOM     25  C   UNL     1      -0.000  -0.001   0.003  0.00  0.00    +0.121 A 
ATOM     26 BR   UNL     1       3.998   2.388  -0.023  0.00  0.00    -0.050 Br
ENDBRANCH  19  25
ENDBRANCH  18  19
ENDBRANCH  17  18
ENDBRANCH   1  17
TORSDOF 5
