REMARK  Name = ZINC05596029
REMARK  4 active torsions:
REMARK  status: ('A' for Active; 'I' for Inactive)
REMARK    1  A    between atoms: N_9  and  C_12
REMARK    2  A    between atoms: C_12  and  C_13
REMARK    3  A    between atoms: C_13  and  C_15
REMARK    4  A    between atoms: C_15  and  C_25
REMARK                            x       y       z     vdW  Elec       q    Type
REMARK                         _______ _______ _______ _____ _____    ______ ____
ROOT
ATOM      1  C   UNL     1       3.955  -3.850  -1.479  0.00  0.00    +0.194 C 
ATOM      2  O   UNL     1       3.536  -3.170  -2.395  0.00  0.00    -0.290 OA
ENDROOT
BRANCH   1   3
ATOM      3  C   UNL     1       4.669  -5.030  -1.749  0.00  0.00    +0.131 C 
ATOM      4  C   UNL     1       4.899  -5.424  -3.079  0.00  0.00    +0.114 C 
ATOM      5  N   UNL     1       4.487  -4.746  -4.182  0.00  0.00    -0.300 N 
ATOM      6  C   UNL     1       4.903  -5.450  -5.307  0.00  0.00    +0.054 A 
ATOM      7  C   UNL     1       4.763  -5.228  -6.670  0.00  0.00    +0.025 A 
ATOM      8  C   UNL     1       5.297  -6.126  -7.571  0.00  0.00    +0.002 A 
ATOM      9  C   UNL     1       5.972  -7.249  -7.122  0.00  0.00    +0.002 A 
ATOM     10  C   UNL     1       6.118  -7.479  -5.769  0.00  0.00    +0.025 A 
ATOM     11  C   UNL     1       5.585  -6.582  -4.854  0.00  0.00    +0.054 A 
ATOM     12  N   UNL     1       5.572  -6.538  -3.465  0.00  0.00    -0.300 N 
ATOM     13  H   UNL     1       3.988  -3.915  -4.185  0.00  0.00    +0.153 HD
ATOM     14  H   UNL     1       5.973  -7.193  -2.872  0.00  0.00    +0.153 HD
BRANCH   3  15
ATOM     15  C   UNL     1       5.162  -5.831  -0.670  0.00  0.00    +0.106 C 
ATOM     16  N   UNL     1       5.554  -6.467   0.187  0.00  0.00    -0.191 NA
ENDBRANCH   3  15
ENDBRANCH   1   3
BRANCH   1  17
ATOM     17  C   UNL     1       3.709  -3.428  -0.053  0.00  0.00    +0.197 C 
BRANCH  17  26
ATOM     18  C   UNL     1      -0.017   1.382   0.010  0.00  0.00    +0.001 A 
ATOM     19  C   UNL     1       1.165   2.099   0.002  0.00  0.00    +0.001 A 
ATOM     20  C   UNL     1       2.385   1.442  -0.013  0.00  0.00    +0.014 A 
ATOM     21  C   UNL     1       2.420   0.056  -0.021  0.00  0.00    +0.049 A 
ATOM     22  C   UNL     1       1.215  -0.675  -0.013  0.00  0.00    +0.049 A 
ATOM     23  C   UNL     1       0.002  -0.004   0.002  0.00  0.00    +0.014 A 
ATOM     24  C   UNL     1       1.606  -2.100  -0.025  0.00  0.00    +0.254 C 
ATOM     25  O   UNL     1       0.843  -3.045  -0.023  0.00  0.00    -0.270 OA
ATOM     26  N   UNL     1       2.949  -2.175  -0.039  0.00  0.00    -0.226 N 
ATOM     27  C   UNL     1       3.503  -0.949  -0.038  0.00  0.00    +0.254 C 
ATOM     28  O   UNL     1       4.693  -0.709  -0.049  0.00  0.00    -0.270 OA
ENDBRANCH  17  26
ENDBRANCH   1  17
TORSDOF 4
