REMARK  Name = ZINC00137245
REMARK  3 active torsions:
REMARK  status: ('A' for Active; 'I' for Inactive)
REMARK    1  A    between atoms: C_8  and  C_10
REMARK    2  A    between atoms: N_12  and  C_13
REMARK    3  A    between atoms: C_14  and  C_22
REMARK                            x       y       z     vdW  Elec       q    Type
REMARK                         _______ _______ _______ _____ _____    ______ ____
ROOT
ATOM      1  C   UNL     1      -2.276   7.221  -2.923  0.00  0.00    +0.284 C 
ATOM      2  O   UNL     1      -2.258   6.336  -3.758  0.00  0.00    -0.266 OA
ATOM      3  N   UNL     1      -1.963   6.945  -1.641  0.00  0.00    -0.272 N 
ATOM      4  H   UNL     1      -1.977   7.651  -0.976  0.00  0.00    +0.156 HD
ENDROOT
BRANCH   1  12
ATOM      5  C   UNL     1      -3.829  12.679  -4.995  0.00  0.00    +0.001 A 
ATOM      6  C   UNL     1      -3.637  13.027  -3.665  0.00  0.00    +0.004 A 
ATOM      7  C   UNL     1      -3.254  12.082  -2.738  0.00  0.00    +0.047 A 
ATOM      8  C   UNL     1      -3.058  10.764  -3.134  0.00  0.00    +0.136 A 
ATOM      9  C   UNL     1      -3.254  10.416  -4.483  0.00  0.00    +0.021 A 
ATOM     10  C   UNL     1      -3.642  11.389  -5.407  0.00  0.00    +0.011 A 
ATOM     11  C   UNL     1      -2.972   8.984  -4.569  0.00  0.00    +0.063 A 
ATOM     12  C   UNL     1      -2.639   8.591  -3.312  0.00  0.00    +0.191 A 
ATOM     13  O   UNL     1      -2.699   9.646  -2.473  0.00  0.00    -0.450 OA
ENDBRANCH   1  12
BRANCH   3  14
ATOM     14  C   UNL     1      -1.620   5.653  -1.274  0.00  0.00    +0.090 A 
ATOM     15  C   UNL     1      -1.270   5.177  -0.019  0.00  0.00    +0.084 A 
ATOM     16  C   UNL     1      -0.951   3.765   0.100  0.00  0.00    -0.018 A 
ATOM     17  C   UNL     1      -1.032   3.059  -1.049  0.00  0.00    -0.004 A 
ATOM     18  S   UNL     1      -1.523   4.240  -2.273  0.00  0.00    -0.077 S 
ATOM     19  C   UNL     1      -0.761   1.597  -1.232  0.00  0.00    +0.043 C 
ATOM     20  C   UNL     1      -0.013   1.086   0.008  0.00  0.00    +0.005 C 
ATOM     21  C   UNL     1      -0.735   1.583   1.264  0.00  0.00    +0.005 C 
ATOM     22  C   UNL     1      -0.551   3.094   1.408  0.00  0.00    +0.037 C 
BRANCH  15  23
ATOM     23  C   UNL     1      -1.226   6.047   1.118  0.00  0.00    +0.102 C 
ATOM     24  N   UNL     1      -1.191   6.736   2.020  0.00  0.00    -0.191 NA
ENDBRANCH  15  23
ENDBRANCH   3  14
TORSDOF 3
