REMARK  Name = ZINC39979358
REMARK  5 active torsions:
REMARK  status: ('A' for Active; 'I' for Inactive)
REMARK    1  A    between atoms: C_1  and  O_2
REMARK    2  A    between atoms: O_2  and  C_3
REMARK    3  A    between atoms: C_6  and  C_9
REMARK    4  A    between atoms: C_12  and  C_15
REMARK    5  A    between atoms: C_18  and  C_20
REMARK                            x       y       z     vdW  Elec       q    Type
REMARK                         _______ _______ _______ _____ _____    ______ ____
ROOT
ATOM      1  C   UNL     1      -4.959  -2.618   0.035  0.00  0.00    +0.168 C 
ATOM      2  N   UNL     1      -6.103  -2.014   0.040  0.00  0.00    -0.066 NA
ATOM      3  O   UNL     1      -7.167  -2.947   0.048  0.00  0.00    -0.363 OA
ATOM      4  C   UNL     1      -6.567  -4.252   0.048  0.00  0.00    +0.339 C 
ATOM      5  N   UNL     1      -5.119  -3.992   0.035  0.00  0.00    -0.285 N 
ATOM      6  H   UNL     1      -4.412  -4.656   0.028  0.00  0.00    +0.151 HD
ENDROOT
BRANCH   1  10
ATOM      7  C   UNL     1      -1.200  -0.637   0.010  0.00  0.00    +0.120 A 
ATOM      8  C   UNL     1      -2.373   0.105   0.019  0.00  0.00    +0.046 A 
ATOM      9  C   UNL     1      -3.595  -0.534   0.028  0.00  0.00    +0.015 A 
ATOM     10  C   UNL     1      -3.651  -1.928   0.026  0.00  0.00    +0.018 A 
ATOM     11  C   UNL     1      -2.469  -2.671   0.016  0.00  0.00    +0.015 A 
ATOM     12  C   UNL     1      -1.251  -2.025   0.003  0.00  0.00    +0.046 A 
BRANCH   7  14
ATOM     13  C   UNL     1      -0.017   1.425   0.010  0.00  0.00    +0.277 C 
ATOM     14  O   UNL     1       0.002  -0.004   0.002  0.00  0.00    -0.495 OA
ENDBRANCH   7  14
ENDBRANCH   1  10
BRANCH   4  15
ATOM     15  C   UNL     1      -6.960  -5.011   1.289  0.00  0.00    +0.108 C 
ATOM     16  N   UNL     1      -6.219  -5.823   1.971  0.00  0.00    -0.152 NA
ATOM     17  N   UNL     1      -6.886  -6.362   3.067  0.00  0.00    -0.150 NA
ATOM     18  C   UNL     1      -8.116  -5.923   3.159  0.00  0.00    +0.111 C 
ATOM     19  C   UNL     1      -8.302  -4.972   1.993  0.00  0.00    +0.119 C 
BRANCH  18  20
ATOM     20  C   UNL     1      -9.073  -6.262   4.146  0.00  0.00    +0.151 A 
ATOM     21  C   UNL     1      -8.877  -7.122   5.206  0.00  0.00    +0.051 A 
ATOM     22  C   UNL     1     -10.085  -7.158   5.920  0.00  0.00    +0.042 A 
ATOM     23  C   UNL     1     -10.950  -6.339   5.284  0.00  0.00    +0.196 A 
ATOM     24  O   UNL     1     -10.337  -5.797   4.221  0.00  0.00    -0.462 OA
ENDBRANCH  18  20
ENDBRANCH   4  15
TORSDOF 4
