REMARK  Name = ZINC08862462
REMARK  6 active torsions:
REMARK  status: ('A' for Active; 'I' for Inactive)
REMARK    1  A    between atoms: C_1  and  C_2
REMARK    2  A    between atoms: C_15  and  C_17
REMARK    3  A    between atoms: C_17  and  S_18
REMARK    4  A    between atoms: S_18  and  C_19
REMARK    5  A    between atoms: N_24  and  C_25
REMARK    6  A    between atoms: C_25  and  C_26
REMARK                            x       y       z     vdW  Elec       q    Type
REMARK                         _______ _______ _______ _____ _____    ______ ____
ROOT
ATOM      1  C   UNL     1       6.955  -5.509   1.314  0.00  0.00    +0.029 C 
ATOM      2  C   UNL     1       6.617  -5.003  -0.089  0.00  0.00    +0.087 C 
ATOM      3  C   UNL     1       6.615  -6.179  -1.067  0.00  0.00    +0.118 C 
ATOM      4  C   UNL     1       5.914  -5.792  -2.343  0.00  0.00    +0.219 C 
ATOM      5  O   UNL     1       6.564  -5.559  -3.340  0.00  0.00    -0.275 OA
ATOM      6  N   UNL     1       4.566  -5.700  -2.385  0.00  0.00    -0.284 N 
ATOM      7  C   UNL     1       3.804  -5.877  -1.224  0.00  0.00    +0.055 A 
ATOM      8  C   UNL     1       2.706  -6.720  -1.215  0.00  0.00    +0.025 A 
ATOM      9  C   UNL     1       1.951  -6.854  -0.047  0.00  0.00    +0.002 A 
ATOM     10  C   UNL     1       2.294  -6.147   1.091  0.00  0.00    +0.002 A 
ATOM     11  C   UNL     1       3.397  -5.312   1.087  0.00  0.00    +0.025 A 
ATOM     12  C   UNL     1       4.160  -5.184  -0.061  0.00  0.00    +0.058 A 
ATOM     13  N   UNL     1       5.299  -4.368  -0.073  0.00  0.00    -0.266 N 
ATOM     14  C   UNL     1       5.183  -3.025  -0.065  0.00  0.00    +0.230 C 
ATOM     15  O   UNL     1       6.177  -2.330  -0.070  0.00  0.00    -0.274 OA
ATOM     16  H   UNL     1       4.123  -5.509  -3.226  0.00  0.00    +0.155 HD
ENDROOT
BRANCH  14  17
ATOM     17  C   UNL     1       3.818  -2.387  -0.048  0.00  0.00    +0.172 C 
BRANCH  17  18
ATOM     18  S   UNL     1       3.994  -0.582  -0.039  0.00  0.00    -0.088 S 
BRANCH  18  19
ATOM     19  C   UNL     1       2.334   0.009  -0.020  0.00  0.00    +0.160 A 
ATOM     20  N   UNL     1       1.204  -0.673  -0.013  0.00  0.00    -0.133 NA
ATOM     21  N   UNL     1       0.002  -0.004   0.002  0.00  0.00    -0.125 NA
ATOM     22  C   UNL     1      -0.016   1.314   0.009  0.00  0.00    +0.183 A 
ATOM     23  S   UNL     1       1.730   1.690  -0.005  0.00  0.00    -0.025 S 
ATOM     24  N   UNL     1      -1.103   2.180   0.019  0.00  0.00    -0.315 N 
ATOM     25  H   UNL     1      -0.959   3.140   0.024  0.00  0.00    +0.148 HD
BRANCH  24  26
ATOM     26  C   UNL     1      -2.466   1.645   0.024  0.00  0.00    +0.178 C 
BRANCH  26  27
ATOM     27  C   UNL     1      -3.454   2.783   0.035  0.00  0.00    +0.122 A 
ATOM     28  C   UNL     1      -3.975   3.383  -1.050  0.00  0.00    +0.046 A 
ATOM     29  C   UNL     1      -4.848   4.391  -0.582  0.00  0.00    +0.041 A 
ATOM     30  C   UNL     1      -4.809   4.347   0.762  0.00  0.00    +0.195 A 
ATOM     31  O   UNL     1      -3.967   3.367   1.130  0.00  0.00    -0.466 OA
ENDBRANCH  26  27
ENDBRANCH  24  26
ENDBRANCH  18  19
ENDBRANCH  17  18
ENDBRANCH  14  17
TORSDOF 5
