REMARK  Name = ZINC64024206
REMARK  6 active torsions:
REMARK  status: ('A' for Active; 'I' for Inactive)
REMARK    1  A    between atoms: C_1  and  O_2
REMARK    2  A    between atoms: O_2  and  C_3
REMARK    3  A    between atoms: C_8  and  C_9
REMARK    4  A    between atoms: C_9  and  N_10
REMARK    5  A    between atoms: C_23  and  C_25
REMARK    6  A    between atoms: C_29  and  O_31
REMARK                            x       y       z     vdW  Elec       q    Type
REMARK                         _______ _______ _______ _____ _____    ______ ____
ROOT
ATOM      1  N   UNL     1       0.953  -2.876  -1.154  0.00  0.00    -0.289 NA
ATOM      2  C   UNL     1       2.214  -3.540  -0.813  0.00  0.00    +0.090 C 
ATOM      3  C   UNL     1       3.239  -3.350  -1.946  0.00  0.00    +0.049 C 
ATOM      4  C   UNL     1       2.533  -3.742  -3.221  0.00  0.00    -0.035 C 
ATOM      5  C   UNL     1       2.871  -4.548  -4.217  0.00  0.00    -0.001 A 
ATOM      6  C   UNL     1       4.122  -5.261  -4.522  0.00  0.00    +0.010 A 
ATOM      7  C   UNL     1       4.113  -6.040  -5.636  0.00  0.00    +0.001 A 
ATOM      8  C   UNL     1       2.997  -6.179  -6.468  0.00  0.00    +0.002 A 
ATOM      9  C   UNL     1       1.810  -5.553  -6.269  0.00  0.00    +0.026 A 
ATOM     10  C   UNL     1       1.700  -4.698  -5.135  0.00  0.00    +0.043 A 
ATOM     11  N   UNL     1       0.706  -3.964  -4.728  0.00  0.00    -0.376 N 
ATOM     12  C   UNL     1       1.144  -3.208  -3.557  0.00  0.00    +0.128 C 
ATOM     13  C   UNL     1       0.279  -3.467  -2.321  0.00  0.00    +0.114 C 
ATOM     14  H   UNL     1      -0.174  -3.925  -5.132  0.00  0.00    +0.160 HD
ENDROOT
BRANCH  13  15
ATOM     15  C   UNL     1      -1.073  -2.829  -2.505  0.00  0.00    -0.025 A 
ATOM     16  C   UNL     1      -1.227  -1.468  -2.316  0.00  0.00    +0.005 A 
ATOM     17  C   UNL     1      -2.466  -0.879  -2.483  0.00  0.00    +0.004 A 
ATOM     18  C   UNL     1      -3.556  -1.650  -2.840  0.00  0.00    +0.045 A 
ATOM     19  C   UNL     1      -3.405  -3.016  -3.031  0.00  0.00    +0.117 A 
ATOM     20  C   UNL     1      -2.158  -3.603  -2.868  0.00  0.00    +0.050 A 
BRANCH  19  21
ATOM     21  O   UNL     1      -4.475  -3.776  -3.383  0.00  0.00    -0.507 OA
ATOM     22  H   UNL     1      -4.603  -3.857  -4.338  0.00  0.00    +0.292 HD
ENDBRANCH  19  21
ENDBRANCH  13  15
BRANCH   1  23
ATOM     23  C   UNL     1       0.052  -2.828   0.005  0.00  0.00    +0.124 C 
BRANCH  23  29
ATOM     24  C   UNL     1       0.626  -0.618   1.042  0.00  0.00    +0.124 A 
ATOM     25  C   UNL     1       1.202   0.139   2.051  0.00  0.00    +0.046 A 
ATOM     26  C   UNL     1       1.835  -0.488   3.107  0.00  0.00    +0.004 A 
ATOM     27  C   UNL     1       1.895  -1.869   3.158  0.00  0.00    +0.001 A 
ATOM     28  C   UNL     1       1.321  -2.625   2.153  0.00  0.00    +0.008 A 
ATOM     29  C   UNL     1       0.682  -2.003   1.097  0.00  0.00    +0.008 A 
BRANCH  24  31
ATOM     30  C   UNL     1      -0.017   1.425   0.010  0.00  0.00    +0.277 C 
ATOM     31  O   UNL     1       0.002  -0.004   0.002  0.00  0.00    -0.495 OA
ENDBRANCH  24  31
ENDBRANCH  23  29
ENDBRANCH   1  23
TORSDOF 5
