REMARK  Name = ZINC27497257
REMARK  8 active torsions:
REMARK  status: ('A' for Active; 'I' for Inactive)
REMARK    1  A    between atoms: C_1  and  C_2
REMARK    2  A    between atoms: C_3  and  C_16
REMARK    3  A    between atoms: N_5  and  C_7
REMARK    4  A    between atoms: C_7  and  C_8
REMARK    5  A    between atoms: N_18  and  C_19
REMARK    6  A    between atoms: C_19  and  C_20
REMARK    7  A    between atoms: C_20  and  C_22
REMARK    8  A    between atoms: C_20  and  N_27
REMARK                            x       y       z     vdW  Elec       q    Type
REMARK                         _______ _______ _______ _____ _____    ______ ____
ROOT
ATOM      1  C   UNL     1       1.464   5.744   5.807  0.00  0.00    +0.249 C 
ATOM      2  O   UNL     1       1.187   6.838   6.262  0.00  0.00    -0.270 OA
ATOM      3  N   UNL     1       0.914   4.634   6.338  0.00  0.00    -0.312 N 
ATOM      4  H   UNL     1       1.165   3.645   5.926  0.00  0.00    +0.149 HD
ENDROOT
BRANCH   1   7
ATOM      5  C   UNL     1       4.613   5.417   6.029  0.00  0.00    +0.068 C 
ATOM      6  C   UNL     1       3.804   5.487   4.759  0.00  0.00    +0.074 A 
ATOM      7  C   UNL     1       2.401   5.633   4.676  0.00  0.00    +0.096 A 
ATOM      8  C   UNL     1       2.074   5.658   3.333  0.00  0.00    +0.140 A 
ATOM      9  N   UNL     1       3.216   5.525   2.639  0.00  0.00    -0.248 N 
ATOM     10  N   UNL     1       4.277   5.424   3.546  0.00  0.00    -0.174 NA
ATOM     11 CL   UNL     1       0.479   5.826   2.666  0.00  0.00    -0.062 Cl
BRANCH   9  12
ATOM     12  C   UNL     1       3.333   5.498   1.179  0.00  0.00    +0.181 C 
BRANCH  12  13
ATOM     13  C   UNL     1       3.225   4.075   0.693  0.00  0.00    -0.008 A 
ATOM     14  C   UNL     1       2.029   3.609   0.179  0.00  0.00    +0.007 A 
ATOM     15  C   UNL     1       1.930   2.305  -0.267  0.00  0.00    +0.000 A 
ATOM     16  C   UNL     1       3.026   1.465  -0.199  0.00  0.00    +0.001 A 
ATOM     17  C   UNL     1       4.222   1.930   0.315  0.00  0.00    +0.020 A 
ATOM     18  C   UNL     1       4.322   3.236   0.761  0.00  0.00    +0.046 A 
ATOM     19 CL   UNL     1       5.824   3.820   1.407  0.00  0.00    -0.083 Cl
ENDBRANCH  12  13
ENDBRANCH   9  12
ENDBRANCH   1   7
BRANCH   3  20
ATOM     20  C   UNL     1      -0.018   4.745   7.463  0.00  0.00    +0.097 C 
BRANCH  20  21
ATOM     21  C   UNL     1      -0.584   3.362   7.793  0.00  0.00    +0.016 C 
BRANCH  21  22
ATOM     22  N   UNL     1       0.521   2.425   8.033  0.00  0.00    +0.387 N 
ATOM     23  C   UNL     1       0.016   1.066   8.268  0.00  0.00    -0.078 C 
ATOM     24  C   UNL     1       1.194   0.093   8.369  0.00  0.00    -0.019 C 
ATOM     25  C   UNL     1       2.108   0.524   9.519  0.00  0.00    -0.004 C 
ATOM     26  C   UNL     1       2.581   1.960   9.274  0.00  0.00    -0.019 C 
ATOM     27  C   UNL     1       1.363   2.878   9.147  0.00  0.00    -0.078 C 
ATOM     28  H   UNL     1       1.147   2.398   7.129  0.00  0.00    -0.081 HD
ENDBRANCH  21  22
BRANCH  21  29
ATOM     29  C   UNL     1      -1.443   3.453   9.028  0.00  0.00    +0.093 A 
ATOM     30  C   UNL     1      -2.784   3.360   9.062  0.00  0.00    +0.043 A 
ATOM     31  C   UNL     1      -3.170   3.498  10.416  0.00  0.00    +0.041 A 
ATOM     32  C   UNL     1      -2.042   3.675  11.126  0.00  0.00    +0.195 A 
ATOM     33  O   UNL     1      -0.999   3.648  10.281  0.00  0.00    -0.469 OA
ENDBRANCH  21  29
ENDBRANCH  20  21
ENDBRANCH   3  20
TORSDOF 7
