REMARK  Name = ZINC53906614
REMARK  9 active torsions:
REMARK  status: ('A' for Active; 'I' for Inactive)
REMARK    1  A    between atoms: C_1  and  C_2
REMARK    2  A    between atoms: C_2  and  C_4
REMARK    3  A    between atoms: C_2  and  N_13
REMARK    4  A    between atoms: C_8  and  N_10
REMARK    5  A    between atoms: N_13  and  C_14
REMARK    6  A    between atoms: N_13  and  C_15
REMARK    7  A    between atoms: C_15  and  C_16
REMARK    8  A    between atoms: C_16  and  C_17
REMARK    9  A    between atoms: C_16  and  C_18
REMARK                            x       y       z     vdW  Elec       q    Type
REMARK                         _______ _______ _______ _____ _____    ______ ____
ROOT
ATOM      1  C   UNL     1      -0.019   1.526   0.010  0.00  0.00    -0.008 C 
ATOM      2  C   UNL     1       0.002  -0.004   0.002  0.00  0.00    -0.041 C 
ENDROOT
BRANCH   2   3
ATOM      3  C   UNL     1       0.731  -0.503   1.223  0.00  0.00    -0.059 A 
ATOM      4  C   UNL     1       0.081  -0.558   2.442  0.00  0.00    +0.002 A 
ATOM      5  C   UNL     1       0.749  -1.016   3.562  0.00  0.00    +0.002 A 
ATOM      6  C   UNL     1       2.068  -1.420   3.463  0.00  0.00    +0.033 A 
ATOM      7  C   UNL     1       2.718  -1.365   2.244  0.00  0.00    +0.126 A 
ATOM      8  C   UNL     1       2.048  -0.911   1.123  0.00  0.00    +0.034 A 
BRANCH   7   9
ATOM      9  N   UNL     1       4.130  -1.796   2.138  0.00  0.00    +0.056 N 
ATOM     10  O   UNL     1       4.715  -2.196   3.118  0.00  0.00    -0.126 OA
ATOM     11  O   UNL     1       4.698  -1.749   1.072  0.00  0.00    -0.126 OA
ENDBRANCH   7   9
ENDBRANCH   2   3
BRANCH   2  12
ATOM     12  N   UNL     1      -1.376  -0.512   0.012  0.00  0.00    +0.382 N 
ATOM     13  C   UNL     1      -2.087  -0.026  -1.178  0.00  0.00    -0.095 C 
ATOM     14  H   UNL     1      -1.848  -0.187   0.843  0.00  0.00    -0.081 HD
BRANCH  12  15
ATOM     15  C   UNL     1      -1.356  -1.981   0.004  0.00  0.00    -0.075 C 
BRANCH  15  16
ATOM     16  C   UNL     1      -2.785  -2.512   0.141  0.00  0.00    -0.034 C 
ATOM     17  C   UNL     1      -2.778  -4.036   0.008  0.00  0.00    +0.005 C 
ATOM     18  C   UNL     1      -3.345  -2.122   1.510  0.00  0.00    +0.005 C 
ENDBRANCH  15  16
ENDBRANCH  12  15
ENDBRANCH   2  12
TORSDOF 5
