REMARK  Name = ZINC38975284
REMARK  8 active torsions:
REMARK  status: ('A' for Active; 'I' for Inactive)
REMARK    1  A    between atoms: C_1  and  C_2
REMARK    2  A    between atoms: C_2  and  N_3
REMARK    3  A    between atoms: N_3  and  C_4
REMARK    4  A    between atoms: C_4  and  C_5
REMARK    5  A    between atoms: C_17  and  C_19
REMARK    6  A    between atoms: C_19  and  C_20
REMARK    7  A    between atoms: C_19  and  C_21
REMARK    8  A    between atoms: C_19  and  C_22
REMARK                            x       y       z     vdW  Elec       q    Type
REMARK                         _______ _______ _______ _____ _____    ______ ____
ROOT
ATOM      1  C   UNL     1       2.644  -1.596  -1.691  0.00  0.00    +0.116 C 
ATOM      2  C   UNL     1       4.140  -1.708  -1.908  0.00  0.00    -0.003 C 
ATOM      3  C   UNL     1       4.588  -2.771  -2.634  0.00  0.00    -0.007 A 
ATOM      4  C   UNL     1       6.017  -2.956  -2.891  0.00  0.00    +0.009 A 
ATOM      5  C   UNL     1       6.418  -4.030  -3.620  0.00  0.00    +0.001 A 
ATOM      6  C   UNL     1       5.498  -4.950  -4.124  0.00  0.00    +0.002 A 
ATOM      7  C   UNL     1       4.159  -4.834  -3.921  0.00  0.00    +0.024 A 
ATOM      8  C   UNL     1       3.640  -3.759  -3.178  0.00  0.00    +0.040 A 
ATOM      9  N   UNL     1       2.325  -3.656  -2.985  0.00  0.00    -0.284 N 
ATOM     10  C   UNL     1       1.771  -2.671  -2.299  0.00  0.00    +0.226 C 
ATOM     11  O   UNL     1       0.564  -2.630  -2.157  0.00  0.00    -0.275 OA
ATOM     12  H   UNL     1       1.747  -4.336  -3.366  0.00  0.00    +0.155 HD
ENDROOT
BRANCH   1  13
ATOM     13  C   UNL     1       2.188  -0.248  -2.254  0.00  0.00    +0.124 C 
BRANCH  13  14
ATOM     14  N   UNL     1       0.792  -0.008  -1.879  0.00  0.00    -0.300 N 
ATOM     15  C   UNL     1      -0.203  -0.426  -2.685  0.00  0.00    +0.221 C 
ATOM     16  O   UNL     1       0.056  -1.010  -3.716  0.00  0.00    -0.275 OA
BRANCH  15  17
ATOM     17  C   UNL     1      -1.639  -0.167  -2.306  0.00  0.00    +0.039 C 
ATOM     18  C   UNL     1      -2.551  -0.539  -3.477  0.00  0.00    +0.020 C 
ATOM     19  C   UNL     1      -2.005  -1.014  -1.085  0.00  0.00    +0.020 C 
ATOM     20  C   UNL     1      -1.818   1.315  -1.970  0.00  0.00    +0.020 C 
ENDBRANCH  15  17
BRANCH  14  22
ATOM     21  C   UNL     1       0.592   2.197  -0.839  0.00  0.00    +0.024 C 
ATOM     22  C   UNL     1       0.479   0.686  -0.627  0.00  0.00    +0.104 C 
ENDBRANCH  14  22
ENDBRANCH  13  14
ENDBRANCH   1  13
TORSDOF 4
