REMARK  Name = ZINC21241314
REMARK  7 active torsions:
REMARK  status: ('A' for Active; 'I' for Inactive)
REMARK    1  A    between atoms: C_1  and  O_2
REMARK    2  A    between atoms: O_2  and  C_3
REMARK    3  A    between atoms: C_5  and  C_12
REMARK    4  A    between atoms: C_7  and  O_10
REMARK    5  A    between atoms: C_8  and  O_9
REMARK    6  A    between atoms: O_10  and  C_11
REMARK    7  A    between atoms: C_23  and  C_26
REMARK                            x       y       z     vdW  Elec       q    Type
REMARK                         _______ _______ _______ _____ _____    ______ ____
ROOT
ATOM      1  C   UNL     1      -0.755   1.594  -1.229  0.00  0.00    +0.063 C 
ATOM      2  C   UNL     1      -0.013   1.086   0.008  0.00  0.00    +0.109 C 
ATOM      3  C   UNL     1      -0.721   1.573   1.246  0.00  0.00    +0.218 C 
ATOM      4  O   UNL     1      -0.741   0.883   2.242  0.00  0.00    -0.275 OA
ATOM      5  N   UNL     1      -1.333   2.771   1.246  0.00  0.00    -0.289 N 
ATOM      6  C   UNL     1      -1.305   3.583   0.141  0.00  0.00    +0.018 C 
ATOM      7  C   UNL     1      -1.029   3.072  -1.077  0.00  0.00    +0.020 C 
ATOM      8  C   UNL     1      -0.989   3.887  -2.221  0.00  0.00    +0.162 C 
ATOM      9  O   UNL     1      -0.749   3.388  -3.303  0.00  0.00    -0.292 OA
ATOM     10  C   UNL     1      -1.237   5.369  -2.126  0.00  0.00    +0.088 C 
ATOM     11  C   UNL     1      -0.817   5.855  -0.736  0.00  0.00    +0.032 C 
ATOM     12  C   UNL     1      -1.589   5.054   0.316  0.00  0.00    +0.059 C 
ATOM     13  H   UNL     1      -1.868   3.115   2.143  0.00  0.00    +0.155 HD
ENDROOT
BRANCH  11  14
ATOM     14  C   UNL     1      -1.140   7.320  -0.593  0.00  0.00    -0.042 A 
ATOM     15  C   UNL     1      -2.446   7.755  -0.722  0.00  0.00    +0.005 A 
ATOM     16  C   UNL     1      -2.745   9.098  -0.587  0.00  0.00    +0.022 A 
ATOM     17  C   UNL     1      -1.735  10.009  -0.333  0.00  0.00    +0.059 A 
ATOM     18  C   UNL     1      -0.426   9.574  -0.210  0.00  0.00    +0.060 A 
ATOM     19  C   UNL     1      -0.130   8.229  -0.340  0.00  0.00    +0.025 A 
ATOM     20 CL   UNL     1       0.842  10.716   0.109  0.00  0.00    -0.082 Cl
ATOM     21 CL   UNL     1      -2.108  11.697  -0.171  0.00  0.00    -0.082 Cl
ENDBRANCH  11  14
BRANCH   1  24
ATOM     22  C   UNL     1      -3.508  -0.573  -2.646  0.00  0.00    +0.165 A 
ATOM     23  C   UNL     1      -2.309   0.110  -2.510  0.00  0.00    +0.054 A 
ATOM     24  C   UNL     1      -2.060   0.853  -1.372  0.00  0.00    -0.032 A 
ATOM     25  C   UNL     1      -3.001   0.914  -0.362  0.00  0.00    +0.054 A 
ATOM     26  C   UNL     1      -4.205   0.238  -0.492  0.00  0.00    +0.165 A 
ATOM     27  C   UNL     1      -4.460  -0.510  -1.635  0.00  0.00    +0.201 A 
BRANCH  22  29
ATOM     28  C   UNL     1      -2.730  -1.325  -4.763  0.00  0.00    +0.277 C 
ATOM     29  O   UNL     1      -3.753  -1.304  -3.766  0.00  0.00    -0.491 OA
ENDBRANCH  22  29
BRANCH  27  30
ATOM     30  O   UNL     1      -5.638  -1.179  -1.764  0.00  0.00    -0.501 OA
ATOM     31  H   UNL     1      -6.391  -1.127  -0.963  0.00  0.00    +0.292 HD
ENDBRANCH  27  30
BRANCH  26  32
ATOM     32  O   UNL     1      -5.133   0.303   0.501  0.00  0.00    -0.491 OA
ATOM     33  C   UNL     1      -4.804   1.090   1.647  0.00  0.00    +0.277 C 
ENDBRANCH  26  32
ENDBRANCH   1  24
TORSDOF 5
