REMARK  Name = ZINC16070321
REMARK  12 active torsions:
REMARK  status: ('A' for Active; 'I' for Inactive)
REMARK    1  A    between atoms: C_1  and  C_2
REMARK    2  A    between atoms: C_5  and  S_9
REMARK    3  A    between atoms: C_6  and  C_8
REMARK    4  A    between atoms: S_9  and  N_12
REMARK    5  A    between atoms: C_15  and  C_18
REMARK    6  A    between atoms: N_20  and  N_21
REMARK    7  A    between atoms: C_22  and  C_24
REMARK    8  A    between atoms: C_24  and  C_26
REMARK    9  A    between atoms: C_24  and  O_27
REMARK   10  A    between atoms: O_27  and  C_28
REMARK   11  A    between atoms: C_32  and  C_35
REMARK   12  A    between atoms: C_33  and  C_34
REMARK                            x       y       z     vdW  Elec       q    Type
REMARK                         _______ _______ _______ _____ _____    ______ ____
ROOT
ATOM      1  C   UNL     1       6.330   3.881   5.104  0.00  0.00    +0.232 C 
ATOM      2  O   UNL     1       6.030   3.844   6.279  0.00  0.00    -0.274 OA
ATOM      3  N   UNL     1       5.447   3.475   4.170  0.00  0.00    -0.234 N 
ATOM      4  H   UNL     1       5.688   3.505   3.231  0.00  0.00    +0.173 HD
ENDROOT
BRANCH   1   8
ATOM      5  N   UNL     1      10.518   4.312   4.658  0.00  0.00    -0.177 NA
ATOM      6  C   UNL     1       9.858   5.314   5.506  0.00  0.00    +0.110 C 
ATOM      7  C   UNL     1       8.489   4.775   5.934  0.00  0.00    +0.030 C 
ATOM      8  C   UNL     1       7.690   4.380   4.690  0.00  0.00    +0.079 C 
ATOM      9  C   UNL     1       8.431   3.274   3.935  0.00  0.00    +0.030 C 
ATOM     10  C   UNL     1       9.799   3.797   3.485  0.00  0.00    +0.110 C 
BRANCH   5  11
ATOM     11  S   UNL     1      12.042   3.773   5.018  0.00  0.00    +0.061 S 
ATOM     12  O   UNL     1      12.651   3.423   3.783  0.00  0.00    -0.153 OA
ATOM     13  O   UNL     1      12.611   4.727   5.904  0.00  0.00    -0.153 OA
BRANCH  11  18
ATOM     14  C   UNL     1      11.432  -1.345   8.154  0.00  0.00    +0.044 C 
ATOM     15  C   UNL     1      11.584  -0.067   7.370  0.00  0.00    -0.050 A 
ATOM     16  C   UNL     1      12.114  -0.097   6.094  0.00  0.00    +0.005 A 
ATOM     17  C   UNL     1      12.254   1.075   5.375  0.00  0.00    +0.029 A 
ATOM     18  C   UNL     1      11.863   2.279   5.933  0.00  0.00    +0.108 A 
ATOM     19  C   UNL     1      11.338   2.309   7.212  0.00  0.00    -0.024 A 
ATOM     20  C   UNL     1      11.194   1.136   7.928  0.00  0.00    +0.008 A 
ATOM     21  C   UNL     1      10.918   3.622   7.822  0.00  0.00    +0.046 C 
ENDBRANCH  11  18
ENDBRANCH   5  11
ENDBRANCH   1   8
BRANCH   3  22
ATOM     22  N   UNL     1       4.183   3.011   4.556  0.00  0.00    -0.231 N 
ATOM     23  C   UNL     1       3.300   2.605   3.621  0.00  0.00    +0.270 C 
ATOM     24  O   UNL     1       3.601   2.642   2.447  0.00  0.00    -0.270 OA
ATOM     25  H   UNL     1       3.943   2.982   5.495  0.00  0.00    +0.173 HD
BRANCH  23  26
ATOM     26  C   UNL     1       1.940   2.106   4.036  0.00  0.00    +0.257 C 
ATOM     27  C   UNL     1       2.101   0.887   4.947  0.00  0.00    +0.062 C 
BRANCH  26  28
ATOM     28  O   UNL     1       1.194   1.737   2.875  0.00  0.00    -0.480 OA
BRANCH  28  29
ATOM     29  C   UNL     1      -0.151   1.928   2.920  0.00  0.00    +0.125 A 
ATOM     30  C   UNL     1      -0.756   2.333   4.101  0.00  0.00    +0.046 A 
ATOM     31  C   UNL     1      -2.123   2.527   4.143  0.00  0.00    +0.004 A 
ATOM     32  C   UNL     1      -2.888   2.318   3.011  0.00  0.00    +0.004 A 
ATOM     33  C   UNL     1      -2.287   1.919   1.831  0.00  0.00    -0.044 A 
ATOM     34  C   UNL     1      -0.921   1.719   1.785  0.00  0.00    -0.006 A 
ATOM     35  C   UNL     1      -0.266   1.280   0.500  0.00  0.00    +0.048 C 
ATOM     36  C   UNL     1      -3.123   1.698   0.597  0.00  0.00    +0.044 C 
ENDBRANCH  28  29
ENDBRANCH  26  28
ENDBRANCH  23  26
ENDBRANCH   3  22
TORSDOF 7
