REMARK  Name = ZINC12550521
REMARK  3 active torsions:
REMARK  status: ('A' for Active; 'I' for Inactive)
REMARK    1  A    between atoms: C_10  and  S_12
REMARK    2  A    between atoms: S_12  and  C_13
REMARK    3  A    between atoms: C_13  and  C_14
REMARK                            x       y       z     vdW  Elec       q    Type
REMARK                         _______ _______ _______ _____ _____    ______ ____
ROOT
ATOM      1  C   UNL     1       8.095   2.840  -0.061  0.00  0.00    +0.227 C 
ATOM      2  O   UNL     1       8.669   1.949   0.530  0.00  0.00    -0.275 OA
ATOM      3  N   UNL     1       8.607   4.087  -0.059  0.00  0.00    -0.278 N 
ATOM      4  C   UNL     1       7.737   5.272  -0.147  0.00  0.00    +0.204 C 
ATOM      5  C   UNL     1       8.134   6.236   0.942  0.00  0.00    +0.237 C 
ATOM      6  O   UNL     1       7.322   7.037   1.352  0.00  0.00    -0.274 OA
ATOM      7  N   UNL     1       9.368   6.224   1.468  0.00  0.00    -0.253 N 
ATOM      8  C   UNL     1      10.312   5.343   1.107  0.00  0.00    +0.243 C 
ATOM      9  O   UNL     1      11.392   5.370   1.657  0.00  0.00    -0.273 OA
ATOM     10  C   UNL     1      10.056   4.320   0.038  0.00  0.00    +0.114 C 
ATOM     11  C   UNL     1      10.759   3.011   0.395  0.00  0.00    +0.035 C 
ATOM     12  C   UNL     1      10.485   1.972  -0.694  0.00  0.00    +0.003 C 
ATOM     13  C   UNL     1      11.012   2.488  -2.035  0.00  0.00    +0.000 C 
ATOM     14  C   UNL     1      10.304   3.797  -2.392  0.00  0.00    +0.003 C 
ATOM     15  C   UNL     1      10.578   4.837  -1.303  0.00  0.00    +0.035 C 
ATOM     16  H   UNL     1       9.588   6.886   2.142  0.00  0.00    +0.158 HD
ENDROOT
BRANCH   1  17
ATOM     17  C   UNL     1       6.812   2.553  -0.796  0.00  0.00    +0.173 C 
BRANCH  17  18
ATOM     18  S   UNL     1       6.389   0.799  -0.612  0.00  0.00    -0.079 S 
BRANCH  18  28
ATOM     19  C   UNL     1       1.101   0.931  -3.981  0.00  0.00    +0.022 A 
ATOM     20  C   UNL     1       2.147   1.699  -3.519  0.00  0.00    +0.031 A 
ATOM     21  C   UNL     1       3.146   1.113  -2.738  0.00  0.00    +0.090 A 
ATOM     22  C   UNL     1       3.072  -0.256  -2.432  0.00  0.00    +0.068 A 
ATOM     23  C   UNL     1       2.013  -1.015  -2.906  0.00  0.00    +0.047 A 
ATOM     24  C   UNL     1       1.032  -0.421  -3.676  0.00  0.00    +0.043 A 
ATOM     25 CL   UNL     1      -0.294  -1.372  -4.268  0.00  0.00    -0.083 Cl
ATOM     26  N   UNL     1       4.185  -0.539  -1.658  0.00  0.00    -0.333 N 
ATOM     27  H   UNL     1       4.423  -1.403  -1.286  0.00  0.00    +0.168 HD
ATOM     28  C   UNL     1       4.886   0.626  -1.515  0.00  0.00    +0.168 A 
ATOM     29  N   UNL     1       4.273   1.594  -2.150  0.00  0.00    -0.222 NA
ENDBRANCH  18  28
ENDBRANCH  17  18
ENDBRANCH   1  17
TORSDOF 3
