REMARK  Name = ZINC20242673
REMARK  9 active torsions:
REMARK  status: ('A' for Active; 'I' for Inactive)
REMARK    1  A    between atoms: C_1  and  C_2
REMARK    2  A    between atoms: C_2  and  N_3
REMARK    3  A    between atoms: C_7  and  C_9
REMARK    4  A    between atoms: C_9  and  N_10
REMARK    5  A    between atoms: C_11  and  C_13
REMARK    6  A    between atoms: N_19  and  C_30
REMARK    7  A    between atoms: C_30  and  C_31
REMARK    8  A    between atoms: C_33  and  C_38
REMARK    9  A    between atoms: C_36  and  C_37
REMARK                            x       y       z     vdW  Elec       q    Type
REMARK                         _______ _______ _______ _____ _____    ______ ____
ROOT
ATOM      1  C   UNL     1      -2.623  -0.853  -3.968  0.00  0.00    +0.039 A 
ATOM      2  C   UNL     1      -2.961   0.040  -2.949  0.00  0.00    +0.014 A 
ATOM      3  C   UNL     1      -4.229   0.580  -2.909  0.00  0.00    +0.020 A 
ATOM      4  C   UNL     1      -5.167   0.244  -3.871  0.00  0.00    +0.065 A 
ATOM      5  C   UNL     1      -4.846  -0.639  -4.890  0.00  0.00    +0.054 A 
ATOM      6  C   UNL     1      -3.564  -1.186  -4.938  0.00  0.00    +0.037 A 
ATOM      7  N   UNL     1      -5.750  -0.995  -5.875  0.00  0.00    -0.262 N 
ATOM      8  C   UNL     1      -7.008  -1.338  -5.790  0.00  0.00    +0.252 C 
ATOM      9  O   UNL     1      -7.544  -1.626  -6.843  0.00  0.00    -0.270 OA
ATOM     10  C   UNL     1      -7.860  -1.424  -4.602  0.00  0.00    +0.053 A 
ATOM     11  C   UNL     1      -8.718  -2.522  -4.452  0.00  0.00    +0.014 A 
ATOM     12  C   UNL     1      -9.524  -2.623  -3.340  0.00  0.00    +0.001 A 
ATOM     13  C   UNL     1      -9.492  -1.643  -2.363  0.00  0.00    +0.001 A 
ATOM     14  C   UNL     1      -8.649  -0.555  -2.503  0.00  0.00    +0.018 A 
ATOM     15  C   UNL     1      -7.839  -0.443  -3.614  0.00  0.00    +0.056 A 
ATOM     16  S   UNL     1      -6.778   0.953  -3.785  0.00  0.00    +0.088 S 
ATOM     17  O   UNL     1      -7.023   1.412  -5.107  0.00  0.00    -0.247 OA
ENDROOT
BRANCH   1  19
ATOM     18  N   UNL     1      -0.356  -1.115  -3.080  0.00  0.00    -0.313 N 
ATOM     19  C   UNL     1      -1.266  -1.439  -4.020  0.00  0.00    +0.244 C 
ATOM     20  O   UNL     1      -0.972  -2.212  -4.910  0.00  0.00    -0.270 OA
ATOM     21  H   UNL     1      -0.591  -0.498  -2.369  0.00  0.00    +0.149 HD
BRANCH  18  22
ATOM     22  C   UNL     1       0.988  -1.696  -3.132  0.00  0.00    +0.089 C 
BRANCH  22  27
ATOM     23  N   UNL     1       1.818   0.306  -1.969  0.00  0.00    +0.382 N 
ATOM     24  C   UNL     1       3.210   0.774  -2.136  0.00  0.00    -0.078 C 
ATOM     25  C   UNL     1       4.086  -0.393  -1.616  0.00  0.00    -0.020 C 
ATOM     26  C   UNL     1       3.283  -1.628  -2.103  0.00  0.00    -0.016 C 
ATOM     27  C   UNL     1       1.817  -1.168  -1.959  0.00  0.00    -0.051 C 
ATOM     28  H   UNL     1       1.254   0.641  -2.736  0.00  0.00    -0.081 HD
BRANCH  23  30
ATOM     29  C   UNL     1       1.163   2.334  -0.762  0.00  0.00    -0.017 C 
ATOM     30  C   UNL     1       1.276   0.809  -0.699  0.00  0.00    -0.082 C 
ENDBRANCH  23  30
ENDBRANCH  22  27
ENDBRANCH  18  22
ENDBRANCH   1  19
BRANCH   7  31
ATOM     31  C   UNL     1      -5.208  -0.984  -7.236  0.00  0.00    +0.149 C 
BRANCH  31  32
ATOM     32  C   UNL     1      -4.766  -2.374  -7.612  0.00  0.00    -0.027 A 
ATOM     33  C   UNL     1      -5.011  -3.432  -6.756  0.00  0.00    +0.008 A 
ATOM     34  C   UNL     1      -4.605  -4.708  -7.101  0.00  0.00    -0.050 A 
ATOM     35  C   UNL     1      -3.954  -4.926  -8.301  0.00  0.00    +0.003 A 
ATOM     36  C   UNL     1      -3.711  -3.868  -9.157  0.00  0.00    +0.004 A 
ATOM     37  C   UNL     1      -4.120  -2.593  -8.814  0.00  0.00    -0.046 A 
ATOM     38  C   UNL     1      -3.860  -1.441  -9.750  0.00  0.00    +0.044 C 
ATOM     39  C   UNL     1      -4.870  -5.861  -6.167  0.00  0.00    +0.044 C 
ENDBRANCH  31  32
ENDBRANCH   7  31
TORSDOF 6
