REMARK  Name = ZINC12379088
REMARK  8 active torsions:
REMARK  status: ('A' for Active; 'I' for Inactive)
REMARK    1  A    between atoms: C_2  and  C_3
REMARK    2  A    between atoms: C_3  and  O_4
REMARK    3  A    between atoms: O_4  and  C_5
REMARK    4  A    between atoms: C_8  and  C_11
REMARK    5  A    between atoms: C_13  and  C_25
REMARK    6  A    between atoms: C_15  and  C_20
REMARK    7  A    between atoms: C_15  and  O_24
REMARK    8  A    between atoms: C_25  and  C_27
REMARK                            x       y       z     vdW  Elec       q    Type
REMARK                         _______ _______ _______ _____ _____    ______ ____
ROOT
ATOM      1  C   UNL     1      -2.545  -0.094  -0.949  0.00  0.00    +0.120 C 
ATOM      2  C   UNL     1      -1.404  -1.013  -0.500  0.00  0.00    +0.145 C 
ATOM      3  C   UNL     1      -0.089  -0.473  -1.073  0.00  0.00    +0.243 C 
ATOM      4  N   UNL     1      -0.211  -0.351  -2.527  0.00  0.00    -0.264 N 
ATOM      5  C   UNL     1      -1.398  -0.117  -3.109  0.00  0.00    +0.302 C 
ATOM      6  O   UNL     1      -1.443  -0.013  -4.320  0.00  0.00    -0.253 OA
ATOM      7  N   UNL     1      -2.535   0.008  -2.409  0.00  0.00    -0.292 N 
ATOM      8  H   UNL     1       0.581  -0.442  -3.079  0.00  0.00    +0.153 HD
ATOM      9  H   UNL     1      -3.368   0.168  -2.880  0.00  0.00    +0.151 HD
ENDROOT
BRANCH   1  13
ATOM     10  C   UNL     1      -6.280  -1.716   0.348  0.00  0.00    +0.121 A 
ATOM     11  C   UNL     1      -5.613  -0.791   1.137  0.00  0.00    +0.046 A 
ATOM     12  C   UNL     1      -4.406  -0.268   0.716  0.00  0.00    +0.009 A 
ATOM     13  C   UNL     1      -3.862  -0.666  -0.491  0.00  0.00    -0.026 A 
ATOM     14  C   UNL     1      -4.528  -1.584  -1.283  0.00  0.00    +0.009 A 
ATOM     15  C   UNL     1      -5.733  -2.114  -0.863  0.00  0.00    +0.046 A 
BRANCH  10  16
ATOM     16  O   UNL     1      -7.468  -2.232   0.760  0.00  0.00    -0.488 OA
BRANCH  16  17
ATOM     17  C   UNL     1      -8.098  -3.180  -0.103  0.00  0.00    +0.256 C 
BRANCH  17  19
ATOM     18  C   UNL     1     -10.476  -3.721  -0.218  0.00  0.00    +0.007 C 
ATOM     19  C   UNL     1      -9.394  -3.639   0.514  0.00  0.00    +0.006 C 
ENDBRANCH  17  19
ENDBRANCH  16  17
ENDBRANCH  10  16
ENDBRANCH   1  13
BRANCH   3  20
ATOM     20  C   UNL     1       1.050  -1.437  -0.734  0.00  0.00    +0.436 C 
ATOM     21  F   UNL     1       1.163  -1.555   0.655  0.00  0.00    -0.166 F 
ATOM     22  F   UNL     1       0.778  -2.692  -1.288  0.00  0.00    -0.166 F 
ATOM     23  F   UNL     1       2.249  -0.944  -1.260  0.00  0.00    -0.166 F 
ENDBRANCH   3  20
BRANCH   3  24
ATOM     24  O   UNL     1       0.186   0.810  -0.508  0.00  0.00    -0.364 OA
ATOM     25  H   UNL     1       1.005   1.213  -0.828  0.00  0.00    +0.212 HD
ENDBRANCH   3  24
BRANCH   2  26
ATOM     26  C   UNL     1      -1.646  -2.408  -1.017  0.00  0.00    +0.179 C 
ATOM     27  O   UNL     1      -1.981  -2.579  -2.172  0.00  0.00    -0.291 OA
BRANCH  26  28
ATOM     28  C   UNL     1      -1.483  -3.517  -0.158  0.00  0.00    +0.055 A 
ATOM     29  C   UNL     1      -1.659  -4.870  -0.429  0.00  0.00    +0.019 A 
ATOM     30  C   UNL     1      -1.426  -5.747   0.598  0.00  0.00    +0.008 A 
ATOM     31  C   UNL     1      -1.052  -5.262   1.814  0.00  0.00    +0.046 A 
ATOM     32  S   UNL     1      -1.004  -3.548   1.561  0.00  0.00    -0.094 S 
ENDBRANCH  26  28
ENDBRANCH   2  26
TORSDOF 8
