REMARK  Name = ZINC65492822
REMARK  6 active torsions:
REMARK  status: ('A' for Active; 'I' for Inactive)
REMARK    1  A    between atoms: C_1  and  C_2
REMARK    2  A    between atoms: C_2  and  C_4
REMARK    3  A    between atoms: C_2  and  N_20
REMARK    4  A    between atoms: N_6  and  C_7
REMARK    5  A    between atoms: C_7  and  C_8
REMARK    6  A    between atoms: C_8  and  C_9
REMARK                            x       y       z     vdW  Elec       q    Type
REMARK                         _______ _______ _______ _____ _____    ______ ____
ROOT
ATOM      1  C   UNL     1      -3.630  -0.713  -0.978  0.00  0.00    +0.108 C 
ENDROOT
BRANCH   1   4
ATOM      2  C   UNL     1      -1.412  -0.526   0.013  0.00  0.00    +0.237 C 
ATOM      3  O   UNL     1      -1.790  -1.233   0.922  0.00  0.00    -0.273 OA
ATOM      4  N   UNL     1      -2.256  -0.206  -0.988  0.00  0.00    -0.313 N 
ATOM      5  H   UNL     1      -1.953   0.360  -1.716  0.00  0.00    +0.149 HD
BRANCH   2   7
ATOM      6  C   UNL     1      -0.019   1.526   0.010  0.00  0.00    +0.042 C 
ATOM      7  C   UNL     1       0.002  -0.004   0.002  0.00  0.00    +0.189 C 
BRANCH   7   8
ATOM      8  N   UNL     1       0.711  -0.489   1.189  0.00  0.00    -0.258 N 
ATOM      9  C   UNL     1       0.691   0.079   2.414  0.00  0.00    +0.129 A 
ATOM     10  C   UNL     1       1.470  -0.671   3.229  0.00  0.00    +0.078 A 
ATOM     11  C   UNL     1       1.982  -1.734   2.476  0.00  0.00    +0.154 A 
ATOM     12  N   UNL     1       1.523  -1.629   1.255  0.00  0.00    -0.177 NA
ATOM     13 CL   UNL     1       1.778  -0.367   4.910  0.00  0.00    -0.080 Cl
ENDBRANCH   7   8
ENDBRANCH   2   7
ENDBRANCH   1   4
BRANCH   1  14
ATOM     14  C   UNL     1      -4.370  -0.206  -2.217  0.00  0.00    +0.065 C 
BRANCH  14  15
ATOM     15  C   UNL     1      -5.805  -0.736  -2.207  0.00  0.00    +0.175 C 
ATOM     16  N   UNL     1      -5.802  -2.203  -2.267  0.00  0.00    -0.363 N 
ATOM     17  C   UNL     1      -6.431  -2.551  -3.352  0.00  0.00    +0.060 A 
ATOM     18  C   UNL     1      -6.747  -3.856  -3.948  0.00  0.00    +0.029 A 
ATOM     19  C   UNL     1      -7.429  -3.910  -5.109  0.00  0.00    +0.022 A 
ATOM     20  C   UNL     1      -7.862  -2.755  -5.789  0.00  0.00    +0.043 A 
ATOM     21  C   UNL     1      -7.624  -1.509  -5.328  0.00  0.00    +0.047 A 
ATOM     22  C   UNL     1      -6.888  -1.329  -4.071  0.00  0.00    +0.062 A 
ATOM     23  N   UNL     1      -6.522  -0.272  -3.401  0.00  0.00    -0.363 N 
ATOM     24 CL   UNL     1      -8.734  -2.942  -7.278  0.00  0.00    -0.083 Cl
ATOM     25  H   UNL     1      -5.403  -2.803  -1.618  0.00  0.00    +0.162 HD
ATOM     26  H   UNL     1      -6.693   0.650  -3.646  0.00  0.00    +0.162 HD
ENDBRANCH  14  15
ENDBRANCH   1  14
TORSDOF 5
