REMARK  Name = ZINC50784459
REMARK  6 active torsions:
REMARK  status: ('A' for Active; 'I' for Inactive)
REMARK    1  A    between atoms: C_1  and  N_2
REMARK    2  A    between atoms: N_2  and  C_3
REMARK    3  A    between atoms: N_2  and  C_15
REMARK    4  A    between atoms: C_3  and  C_4
REMARK    5  A    between atoms: N_20  and  C_23
REMARK    6  A    between atoms: C_27  and  N_29
REMARK                            x       y       z     vdW  Elec       q    Type
REMARK                         _______ _______ _______ _____ _____    ______ ____
ROOT
ATOM      1  C   UNL     1       0.732  -0.488   1.356  0.00  0.00    +0.029 C 
ATOM      2  C   UNL     1       2.161  -0.018   1.017  0.00  0.00    +0.090 C 
ATOM      3  C   UNL     1       2.942  -1.309   0.908  0.00  0.00    +0.225 C 
ATOM      4  O   UNL     1       4.124  -1.396   0.652  0.00  0.00    -0.275 OA
ATOM      5  N   UNL     1       2.122  -2.342   1.140  0.00  0.00    -0.212 N 
ATOM      6  C   UNL     1       0.852  -1.996   1.405  0.00  0.00    +0.213 C 
ATOM      7  O   UNL     1      -0.053  -2.765   1.645  0.00  0.00    -0.277 OA
ENDROOT
BRANCH   5   8
ATOM      8  C   UNL     1       2.553  -3.675   1.111  0.00  0.00    +0.046 A 
ATOM      9  C   UNL     1       3.432  -4.144   2.078  0.00  0.00    +0.024 A 
ATOM     10  C   UNL     1       3.856  -5.458   2.046  0.00  0.00    +0.004 A 
ATOM     11  C   UNL     1       3.405  -6.307   1.052  0.00  0.00    +0.033 A 
ATOM     12  C   UNL     1       2.530  -5.843   0.087  0.00  0.00    +0.128 A 
ATOM     13  C   UNL     1       2.098  -4.532   0.117  0.00  0.00    +0.056 A 
BRANCH  12  14
ATOM     14  N   UNL     1       2.050  -6.755  -0.975  0.00  0.00    +0.056 N 
ATOM     15  O   UNL     1       2.424  -7.905  -0.999  0.00  0.00    -0.126 OA
ATOM     16  O   UNL     1       1.286  -6.351  -1.820  0.00  0.00    -0.126 OA
ENDBRANCH  12  14
ENDBRANCH   5   8
BRANCH   1  18
ATOM     17  C   UNL     1      -0.244   1.387   0.221  0.00  0.00    -0.095 C 
ATOM     18  N   UNL     1      -0.210  -0.079   0.304  0.00  0.00    +0.388 N 
ATOM     19  H   UNL     1       0.089  -0.460  -0.581  0.00  0.00    -0.081 HD
BRANCH  18  20
ATOM     20  C   UNL     1      -1.552  -0.583   0.626  0.00  0.00    -0.030 C 
BRANCH  20  21
ATOM     21  C   UNL     1      -2.506  -0.265  -0.527  0.00  0.00    +0.195 C 
ATOM     22  C   UNL     1      -3.932  -0.690  -0.151  0.00  0.00    +0.271 C 
ATOM     23  O   UNL     1      -4.794  -0.392  -1.255  0.00  0.00    -0.485 OA
ATOM     24  C   UNL     1      -4.356  -0.761  -2.490  0.00  0.00    +0.162 A 
ATOM     25  C   UNL     1      -5.261  -0.841  -3.538  0.00  0.00    +0.049 A 
ATOM     26  C   UNL     1      -4.831  -1.211  -4.798  0.00  0.00    +0.004 A 
ATOM     27  C   UNL     1      -3.498  -1.503  -5.018  0.00  0.00    +0.004 A 
ATOM     28  C   UNL     1      -2.591  -1.427  -3.978  0.00  0.00    +0.049 A 
ATOM     29  C   UNL     1      -3.016  -1.058  -2.710  0.00  0.00    +0.162 A 
ATOM     30  O   UNL     1      -2.112  -0.996  -1.694  0.00  0.00    -0.484 OA
ENDBRANCH  20  21
ENDBRANCH  18  20
ENDBRANCH   1  18
TORSDOF 5
