REMARK  Name = ZINC39635947
REMARK  5 active torsions:
REMARK  status: ('A' for Active; 'I' for Inactive)
REMARK    1  A    between atoms: C_1  and  C_2
REMARK    2  A    between atoms: C_8  and  N_10
REMARK    3  A    between atoms: C_11  and  C_13
REMARK    4  A    between atoms: C_24  and  C_26
REMARK    5  A    between atoms: N_30  and  C_31
REMARK                            x       y       z     vdW  Elec       q    Type
REMARK                         _______ _______ _______ _____ _____    ______ ____
ROOT
ATOM      1  C   UNL     1       4.053  -0.394   2.290  0.00  0.00    +0.100 C 
ATOM      2  C   UNL     1       5.256  -1.179   1.720  0.00  0.00    +0.121 C 
ATOM      3  N   UNL     1       6.423  -0.684   2.487  0.00  0.00    -0.295 N 
ATOM      4  C   UNL     1       5.917  -0.531   3.872  0.00  0.00    +0.115 C 
ATOM      5  C   UNL     1       4.491   0.029   3.702  0.00  0.00    -0.004 C 
ATOM      6  C   UNL     1       4.505   1.550   3.817  0.00  0.00    -0.010 C 
ATOM      7  C   UNL     1       4.888   1.946   5.247  0.00  0.00    -0.082 C 
ATOM      8  N   UNL     1       3.921   1.372   6.190  0.00  0.00    +0.379 N 
ATOM      9  C   UNL     1       3.980  -0.094   6.139  0.00  0.00    -0.082 C 
ATOM     10  C   UNL     1       3.559  -0.576   4.748  0.00  0.00    -0.010 C 
ATOM     11  C   UNL     1       7.665  -0.430   2.029  0.00  0.00    +0.263 C 
ATOM     12  O   UNL     1       8.570  -0.213   2.813  0.00  0.00    -0.268 OA
ATOM     13  H   UNL     1       4.140   1.683   7.125  0.00  0.00    -0.086 HD
ATOM     14  H   UNL     1       2.991   1.678   5.946  0.00  0.00    -0.086 HD
ENDROOT
BRANCH  11  15
ATOM     15  C   UNL     1       7.926  -0.416   0.586  0.00  0.00    +0.104 A 
ATOM     16  C   UNL     1       6.982  -0.292  -0.412  0.00  0.00    +0.032 A 
ATOM     17  C   UNL     1       7.665  -0.326  -1.631  0.00  0.00    +0.020 A 
ATOM     18  C   UNL     1       8.986  -0.467  -1.363  0.00  0.00    +0.086 A 
ATOM     19  N   UNL     1       9.158  -0.517  -0.020  0.00  0.00    -0.346 N 
ATOM     20  C   UNL     1      10.441  -0.659   0.672  0.00  0.00    +0.149 C 
ENDBRANCH  11  15
BRANCH   1  22
ATOM     21  N   UNL     1       1.603  -0.734   2.314  0.00  0.00    -0.312 N 
ATOM     22  C   UNL     1       2.835  -1.278   2.361  0.00  0.00    +0.218 C 
ATOM     23  O   UNL     1       2.963  -2.480   2.459  0.00  0.00    -0.275 OA
ATOM     24  H   UNL     1       1.501   0.228   2.235  0.00  0.00    +0.149 HD
BRANCH  21  31
ATOM     25  C   UNL     1      -0.427  -0.272   4.327  0.00  0.00    +0.009 C 
ATOM     26  C   UNL     1      -0.763  -0.790   2.927  0.00  0.00    +0.006 C 
ATOM     27  C   UNL     1      -1.046   0.394   2.000  0.00  0.00    +0.005 C 
ATOM     28  C   UNL     1      -1.382  -0.124   0.600  0.00  0.00    +0.000 C 
ATOM     29  C   UNL     1      -0.200  -0.928   0.056  0.00  0.00    +0.002 C 
ATOM     30  C   UNL     1       0.083  -2.111   0.983  0.00  0.00    +0.022 C 
ATOM     31  C   UNL     1       0.419  -1.593   2.383  0.00  0.00    +0.076 C 
ENDBRANCH  21  31
ENDBRANCH   1  22
TORSDOF 3
