REMARK  Name = ZINC41543744
REMARK  12 active torsions:
REMARK  status: ('A' for Active; 'I' for Inactive)
REMARK    1  A    between atoms: C_1  and  C_2
REMARK    2  A    between atoms: C_3  and  C_37
REMARK    3  A    between atoms: C_6  and  C_36
REMARK    4  A    between atoms: C_7  and  C_8
REMARK    5  A    between atoms: C_8  and  C_10
REMARK    6  A    between atoms: N_14  and  C_27
REMARK    7  A    between atoms: C_15  and  C_17
REMARK    8  A    between atoms: C_20  and  C_23
REMARK    9  A    between atoms: C_23  and  O_25
REMARK   10  A    between atoms: O_25  and  C_26
REMARK   11  A    between atoms: C_27  and  C_28
REMARK   12  A    between atoms: C_28  and  N_29
REMARK                            x       y       z     vdW  Elec       q    Type
REMARK                         _______ _______ _______ _____ _____    ______ ____
ROOT
ATOM      1  C   UNL     1       0.058  -1.865   3.029  0.00  0.00    +0.076 C 
ATOM      2  C   UNL     1       0.152  -1.798   4.377  0.00  0.00    +0.249 C 
ATOM      3  C   UNL     1       0.195  -3.168   4.929  0.00  0.00    +0.288 C 
ATOM      4  O   UNL     1       0.278  -3.441   6.111  0.00  0.00    -0.266 OA
ATOM      5  N   UNL     1       0.127  -4.068   3.932  0.00  0.00    -0.285 N 
ATOM      6  C   UNL     1       0.030  -3.332   2.666  0.00  0.00    +0.145 C 
ATOM      7  O   UNL     1       0.200  -0.658   5.104  0.00  0.00    -0.282 OA
ENDROOT
BRANCH   6   8
ATOM      8  C   UNL     1       1.203  -3.669   1.782  0.00  0.00    -0.022 A 
ATOM      9  C   UNL     1       2.471  -3.761   2.327  0.00  0.00    +0.006 A 
ATOM     10  C   UNL     1       3.549  -4.069   1.523  0.00  0.00    +0.015 A 
ATOM     11  C   UNL     1       3.358  -4.289   0.158  0.00  0.00    +0.059 A 
ATOM     12  C   UNL     1       2.075  -4.194  -0.385  0.00  0.00    +0.015 A 
ATOM     13  C   UNL     1       1.005  -3.891   0.431  0.00  0.00    +0.006 A 
BRANCH  11  14
ATOM     14  C   UNL     1       4.508  -4.619  -0.709  0.00  0.00    +0.339 C 
ATOM     15  O   UNL     1       5.623  -4.700  -0.234  0.00  0.00    -0.245 OA
BRANCH  14  16
ATOM     16  O   UNL     1       4.320  -4.830  -2.026  0.00  0.00    -0.464 OA
ATOM     17  C   UNL     1       5.476  -5.146  -2.804  0.00  0.00    +0.280 C 
ENDBRANCH  14  16
ENDBRANCH  11  14
ENDBRANCH   6   8
BRANCH   1  18
ATOM     18  C   UNL     1      -0.011  -0.732   2.100  0.00  0.00    +0.197 C 
ATOM     19  O   UNL     1       1.012  -0.267   1.631  0.00  0.00    -0.287 OA
BRANCH  18  26
ATOM     20  C   UNL     1      -0.525   1.798   0.115  0.00  0.00    +0.046 C 
ATOM     21  C   UNL     1      -1.562   0.981   0.842  0.00  0.00    -0.019 A 
ATOM     22  C   UNL     1      -2.895   1.147   0.797  0.00  0.00    +0.017 A 
ATOM     23  N   UNL     1      -3.489   0.209   1.590  0.00  0.00    -0.361 N 
ATOM     24  H   UNL     1      -4.446   0.123   1.724  0.00  0.00    +0.165 HD
ATOM     25  C   UNL     1      -2.559  -0.578   2.162  0.00  0.00    +0.024 A 
ATOM     26  C   UNL     1      -1.317  -0.157   1.734  0.00  0.00    +0.045 A 
ATOM     27  C   UNL     1      -2.828  -1.724   3.103  0.00  0.00    +0.064 C 
ATOM     28  C   UNL     1      -3.618   2.201  -0.002  0.00  0.00    +0.063 C 
ENDBRANCH  18  26
ENDBRANCH   1  18
BRANCH   5  29
ATOM     29  C   UNL     1       0.142  -5.525   4.082  0.00  0.00    +0.090 C 
BRANCH  29  30
ATOM     30  C   UNL     1      -1.291  -6.037   4.236  0.00  0.00    -0.060 C 
BRANCH  30  31
ATOM     31  N   UNL     1      -1.276  -7.498   4.387  0.00  0.00    +0.381 N 
ATOM     32  C   UNL     1      -0.766  -8.111   3.154  0.00  0.00    -0.079 C 
ATOM     33  C   UNL     1      -0.671  -9.627   3.335  0.00  0.00    -0.019 C 
ATOM     34  C   UNL     1      -2.062 -10.187   3.647  0.00  0.00    -0.004 C 
ATOM     35  C   UNL     1      -2.616  -9.487   4.891  0.00  0.00    -0.019 C 
ATOM     36  C   UNL     1      -2.638  -7.976   4.653  0.00  0.00    -0.079 C 
ATOM     37  H   UNL     1      -0.676  -7.750   5.158  0.00  0.00    -0.082 HD
ENDBRANCH  30  31
ENDBRANCH  29  30
ENDBRANCH   5  29
TORSDOF 8
