REMARK  Name = ZINC10771746
REMARK  9 active torsions:
REMARK  status: ('A' for Active; 'I' for Inactive)
REMARK    1  A    between atoms: C_1  and  C_2
REMARK    2  A    between atoms: C_4  and  C_18
REMARK    3  A    between atoms: C_6  and  C_12
REMARK    4  A    between atoms: N_9  and  C_11
REMARK    5  A    between atoms: C_18  and  O_20
REMARK    6  A    between atoms: O_20  and  C_21
REMARK    7  A    between atoms: C_21  and  C_22
REMARK    8  A    between atoms: N_24  and  C_25
REMARK    9  A    between atoms: C_31  and  C_33
REMARK                            x       y       z     vdW  Elec       q    Type
REMARK                         _______ _______ _______ _____ _____    ______ ____
ROOT
ATOM      1  C   UNL     1      -5.442   5.235   0.199  0.00  0.00    +0.068 C 
ATOM      2  C   UNL     1      -4.909   3.826   0.164  0.00  0.00    +0.070 A 
ATOM      3  C   UNL     1      -3.553   3.457   0.284  0.00  0.00    +0.055 A 
ATOM      4  C   UNL     1      -2.352   4.184   0.459  0.00  0.00    +0.073 A 
ATOM      5  C   UNL     1      -1.163   3.468   0.540  0.00  0.00    +0.044 A 
ATOM      6  C   UNL     1      -1.196   2.074   0.446  0.00  0.00    +0.074 A 
ATOM      7  N   UNL     1      -2.334   1.421   0.277  0.00  0.00    -0.228 NA
ATOM      8  C   UNL     1      -3.497   2.050   0.199  0.00  0.00    +0.160 A 
ATOM      9  N   UNL     1      -4.789   1.622   0.034  0.00  0.00    -0.249 N 
ATOM     10  N   UNL     1      -5.623   2.747   0.018  0.00  0.00    -0.174 NA
ATOM     11  C   UNL     1      -5.222   0.229  -0.103  0.00  0.00    +0.174 C 
ENDROOT
BRANCH   6  12
ATOM     12  C   UNL     1       0.072   1.310   0.532  0.00  0.00    +0.000 A 
ATOM     13  C   UNL     1       1.282   1.981   0.698  0.00  0.00    +0.010 A 
ATOM     14  C   UNL     1       2.460   1.265   0.771  0.00  0.00    +0.001 A 
ATOM     15  C   UNL     1       2.441  -0.115   0.680  0.00  0.00    +0.000 A 
ATOM     16  C   UNL     1       1.243  -0.786   0.515  0.00  0.00    +0.001 A 
ATOM     17  C   UNL     1       0.059  -0.081   0.440  0.00  0.00    +0.010 A 
ENDBRANCH   6  12
BRANCH   4  18
ATOM     18  C   UNL     1      -2.362   5.659   0.554  0.00  0.00    +0.340 C 
ATOM     19  O   UNL     1      -3.390   6.273   0.352  0.00  0.00    -0.245 OA
BRANCH  18  20
ATOM     20  O   UNL     1      -1.231   6.321   0.865  0.00  0.00    -0.452 OA
BRANCH  20  21
ATOM     21  C   UNL     1      -1.315   7.769   0.941  0.00  0.00    +0.328 C 
BRANCH  21  22
ATOM     22  C   UNL     1       0.037   8.332   1.297  0.00  0.00    +0.251 C 
ATOM     23  O   UNL     1       0.978   7.587   1.470  0.00  0.00    -0.272 OA
ATOM     24  N   UNL     1       0.200   9.664   1.423  0.00  0.00    -0.309 N 
ATOM     25  H   UNL     1      -0.552  10.260   1.285  0.00  0.00    +0.149 HD
BRANCH  24  26
ATOM     26  C   UNL     1       1.514  10.211   1.770  0.00  0.00    +0.076 C 
ATOM     27  C   UNL     1       2.349  10.378   0.498  0.00  0.00    +0.022 C 
ATOM     28  C   UNL     1       1.634  11.333  -0.459  0.00  0.00    +0.002 C 
ATOM     29  C   UNL     1       1.457  12.695   0.216  0.00  0.00    +0.000 C 
ATOM     30  C   UNL     1       0.623  12.528   1.488  0.00  0.00    +0.005 C 
ATOM     31  C   UNL     1       1.337  11.573   2.446  0.00  0.00    +0.006 C 
ATOM     32  C   UNL     1       0.503  11.406   3.717  0.00  0.00    +0.009 C 
ENDBRANCH  24  26
ENDBRANCH  21  22
ENDBRANCH  20  21
ENDBRANCH  18  20
ENDBRANCH   4  18
TORSDOF 6
