REMARK  Name = ZINC36800740
REMARK  9 active torsions:
REMARK  status: ('A' for Active; 'I' for Inactive)
REMARK    1  A    between atoms: C_1  and  C_2
REMARK    2  A    between atoms: C_2  and  C_4
REMARK    3  A    between atoms: C_7  and  O_12
REMARK    4  A    between atoms: C_8  and  O_10
REMARK    5  A    between atoms: O_10  and  C_11
REMARK    6  A    between atoms: O_12  and  C_13
REMARK    7  A    between atoms: C_13  and  C_14
REMARK    8  A    between atoms: C_16  and  O_17
REMARK    9  A    between atoms: C_26  and  C_28
REMARK                            x       y       z     vdW  Elec       q    Type
REMARK                         _______ _______ _______ _____ _____    ______ ____
ROOT
ATOM      1  C   UNL     1      -7.281  -3.048   0.177  0.00  0.00    +0.007 A 
ATOM      2  C   UNL     1      -8.534  -2.531  -0.084  0.00  0.00    +0.095 A 
ATOM      3  C   UNL     1      -9.565  -3.376  -0.466  0.00  0.00    +0.285 A 
ATOM      4  O   UNL     1      -9.376  -4.694  -0.591  0.00  0.00    -0.425 OA
ATOM      5  C   UNL     1      -8.172  -5.252  -0.348  0.00  0.00    +0.141 A 
ATOM      6  C   UNL     1      -7.084  -4.439   0.040  0.00  0.00    +0.024 A 
ATOM      7  C   UNL     1      -5.826  -5.016   0.288  0.00  0.00    +0.014 A 
ATOM      8  C   UNL     1      -5.656  -6.357   0.151  0.00  0.00    +0.024 A 
ATOM      9  C   UNL     1      -6.731  -7.174  -0.240  0.00  0.00    +0.037 A 
ATOM     10  C   UNL     1      -7.989  -6.617  -0.480  0.00  0.00    +0.070 A 
ATOM     11  N   UNL     1      -6.548  -8.516  -0.374  0.00  0.00    -0.286 N 
ATOM     12  C   UNL     1      -7.435  -9.240  -1.029  0.00  0.00    +0.214 C 
ATOM     13  O   UNL     1      -8.352  -8.695  -1.617  0.00  0.00    -0.276 OA
ATOM     14  C   UNL     1      -7.314 -10.742  -1.049  0.00  0.00    +0.109 C 
ATOM     15  H   UNL     1      -5.766  -8.940   0.011  0.00  0.00    +0.155 HD
ENDROOT
BRANCH   3  16
ATOM     16  O   UNL     1     -10.783  -2.859  -0.718  0.00  0.00    -0.480 OA
ATOM     17  H   UNL     1     -11.443  -3.515  -0.978  0.00  0.00    +0.295 HD
ENDBRANCH   3  16
BRANCH   1  18
ATOM     18  C   UNL     1      -6.147  -2.147   0.594  0.00  0.00    +0.265 C 
BRANCH  18  19
ATOM     19  O   UNL     1      -6.535  -1.394   1.745  0.00  0.00    -0.484 OA
BRANCH  19  23
ATOM     20  C   UNL     1      -3.753   1.244   3.285  0.00  0.00    +0.021 A 
ATOM     21  C   UNL     1      -3.444   0.471   2.159  0.00  0.00    +0.015 A 
ATOM     22  C   UNL     1      -4.375  -0.406   1.651  0.00  0.00    +0.050 A 
ATOM     23  C   UNL     1      -5.621  -0.527   2.251  0.00  0.00    +0.162 A 
ATOM     24  C   UNL     1      -5.937   0.239   3.373  0.00  0.00    +0.162 A 
ATOM     25  C   UNL     1      -5.008   1.117   3.893  0.00  0.00    +0.060 A 
BRANCH  20  27
ATOM     26  C   UNL     1      -1.412   2.316   3.174  0.00  0.00    +0.091 C 
ATOM     27  C   UNL     1      -2.762   2.181   3.830  0.00  0.00    +0.160 C 
ATOM     28  O   UNL     1      -3.030   2.846   4.808  0.00  0.00    -0.292 OA
ENDBRANCH  20  27
BRANCH  24  29
ATOM     29  O   UNL     1      -7.159   0.117   3.958  0.00  0.00    -0.491 OA
ATOM     30  C   UNL     1      -7.415   0.932   5.103  0.00  0.00    +0.277 C 
ENDBRANCH  24  29
ENDBRANCH  19  23
ENDBRANCH  18  19
ENDBRANCH   1  18
TORSDOF 6
