REMARK  Name = ZINC39574379
REMARK  3 active torsions:
REMARK  status: ('A' for Active; 'I' for Inactive)
REMARK    1  A    between atoms: C_9  and  C_12
REMARK    2  A    between atoms: N_14  and  N_15
REMARK    3  A    between atoms: C_16  and  C_17
REMARK                            x       y       z     vdW  Elec       q    Type
REMARK                         _______ _______ _______ _____ _____    ______ ____
ROOT
ATOM      1  C   UNL     1       3.279  -3.841   0.263  0.00  0.00    +0.247 C 
ATOM      2  O   UNL     1       2.953  -4.014   1.418  0.00  0.00    -0.273 OA
ATOM      3  N   UNL     1       4.100  -4.720  -0.345  0.00  0.00    -0.206 N 
ATOM      4  H   UNL     1       4.361  -4.582  -1.269  0.00  0.00    +0.177 HD
ENDROOT
BRANCH   1  12
ATOM      5  C   UNL     1      -0.017   1.372   0.010  0.00  0.00    +0.000 A 
ATOM      6  C   UNL     1       1.161   2.097   0.002  0.00  0.00    +0.001 A 
ATOM      7  C   UNL     1       2.366   1.421  -0.021  0.00  0.00    +0.015 A 
ATOM      8  C   UNL     1       2.381   0.038  -0.034  0.00  0.00    +0.013 A 
ATOM      9  C   UNL     1       1.208  -0.710  -0.011  0.00  0.00    -0.015 A 
ATOM     10  C   UNL     1       0.002  -0.004   0.002  0.00  0.00    +0.006 A 
ATOM     11  C   UNL     1       1.372  -2.210   0.015  0.00  0.00    +0.133 C 
ATOM     12  C   UNL     1       2.765  -2.643  -0.494  0.00  0.00    +0.161 C 
ATOM     13  S   UNL     1       3.725  -1.127  -0.084  0.00  0.00    -0.110 S 
ATOM     14 CL   UNL     1       0.108  -2.959  -1.031  0.00  0.00    -0.115 Cl
ENDBRANCH   1  12
BRANCH   3  15
ATOM     15  N   UNL     1       4.578  -5.834   0.359  0.00  0.00    -0.190 NA
ATOM     16  C   UNL     1       5.358  -6.669  -0.218  0.00  0.00    +0.133 C 
BRANCH  16  17
ATOM     17  C   UNL     1       5.871  -7.867   0.538  0.00  0.00    +0.165 C 
ATOM     18  C   UNL     1       7.378  -7.805   0.652  0.00  0.00    +0.055 C 
ATOM     19  C   UNL     1       7.848  -8.912   0.023  0.00  0.00    +0.015 A 
ATOM     20  C   UNL     1       9.202  -9.424  -0.209  0.00  0.00    +0.011 A 
ATOM     21  C   UNL     1       9.358 -10.585  -0.885  0.00  0.00    +0.001 A 
ATOM     22  C   UNL     1       8.261 -11.309  -1.368  0.00  0.00    +0.002 A 
ATOM     23  C   UNL     1       6.985 -10.902  -1.192  0.00  0.00    +0.026 A 
ATOM     24  C   UNL     1       6.705  -9.695  -0.496  0.00  0.00    +0.044 A 
ATOM     25  N   UNL     1       5.572  -9.098  -0.201  0.00  0.00    -0.372 N 
ATOM     26 CL   UNL     1       8.317  -6.568   1.428  0.00  0.00    -0.085 Cl
ATOM     27  H   UNL     1       4.686  -9.417  -0.433  0.00  0.00    +0.161 HD
ENDBRANCH  16  17
ENDBRANCH   3  15
TORSDOF 3
