REMARK  Name = ZINC33826913
REMARK  11 active torsions:
REMARK  status: ('A' for Active; 'I' for Inactive)
REMARK    1  A    between atoms: C_1  and  C_2
REMARK    2  A    between atoms: C_2  and  N_3
REMARK    3  A    between atoms: N_3  and  C_4
REMARK    4  A    between atoms: C_4  and  C_6
REMARK    5  A    between atoms: C_4  and  C_13
REMARK    6  A    between atoms: N_15  and  C_16
REMARK    7  A    between atoms: C_17  and  C_23
REMARK    8  A    between atoms: C_21  and  C_22
REMARK    9  A    between atoms: C_24  and  C_26
REMARK   10  A    between atoms: C_26  and  C_28
REMARK   11  A    between atoms: C_26  and  N_29
REMARK                            x       y       z     vdW  Elec       q    Type
REMARK                         _______ _______ _______ _____ _____    ______ ____
ROOT
ATOM      1  C   UNL     1      -5.754  -4.522  -1.690  0.00  0.00    +0.194 C 
ENDROOT
BRANCH   1   2
ATOM      2  C   UNL     1      -7.261  -4.492  -1.667  0.00  0.00    +0.000 A 
ATOM      3  C   UNL     1      -7.982  -5.396  -2.425  0.00  0.00    +0.007 A 
ATOM      4  C   UNL     1      -9.364  -5.372  -2.401  0.00  0.00    +0.000 A 
ATOM      5  C   UNL     1     -10.026  -4.436  -1.627  0.00  0.00    +0.001 A 
ATOM      6  C   UNL     1      -9.306  -3.528  -0.874  0.00  0.00    +0.020 A 
ATOM      7  C   UNL     1      -7.923  -3.556  -0.893  0.00  0.00    +0.046 A 
ATOM      8 CL   UNL     1      -7.018  -2.415   0.052  0.00  0.00    -0.083 Cl
ENDBRANCH   1   2
BRANCH   1   9
ATOM      9  C   UNL     1      -5.286  -5.333  -2.871  0.00  0.00    +0.242 C 
ATOM     10  O   UNL     1      -4.740  -6.401  -2.695  0.00  0.00    -0.273 OA
ATOM     11  N   UNL     1      -5.473  -4.870  -4.123  0.00  0.00    -0.283 N 
ATOM     12  H   UNL     1      -5.926  -3.880  -4.281  0.00  0.00    +0.155 HD
BRANCH  11  13
ATOM     13  C   UNL     1      -5.091  -5.649  -5.221  0.00  0.00    +0.039 A 
ATOM     14  C   UNL     1      -3.772  -6.063  -5.355  0.00  0.00    -0.029 A 
ATOM     15  C   UNL     1      -3.399  -6.835  -6.438  0.00  0.00    +0.005 A 
ATOM     16  C   UNL     1      -4.335  -7.188  -7.392  0.00  0.00    +0.001 A 
ATOM     17  C   UNL     1      -5.648  -6.772  -7.264  0.00  0.00    +0.005 A 
ATOM     18  C   UNL     1      -6.029  -6.004  -6.182  0.00  0.00    -0.029 A 
ATOM     19  C   UNL     1      -7.459  -5.552  -6.043  0.00  0.00    +0.045 C 
ATOM     20  C   UNL     1      -2.750  -5.674  -4.318  0.00  0.00    +0.045 C 
ENDBRANCH  11  13
ENDBRANCH   1   9
BRANCH   1  21
ATOM     21  N   UNL     1      -5.260  -5.131  -0.453  0.00  0.00    -0.285 N 
ATOM     22  C   UNL     1      -5.702  -6.347  -0.076  0.00  0.00    +0.237 C 
ATOM     23  O   UNL     1      -6.411  -6.991  -0.820  0.00  0.00    -0.274 OA
BRANCH  21  25
ATOM     24  C   UNL     1      -2.878  -4.647  -0.182  0.00  0.00    +0.024 C 
ATOM     25  C   UNL     1      -4.284  -4.418   0.375  0.00  0.00    +0.105 C 
ENDBRANCH  21  25
BRANCH  22  26
ATOM     26  C   UNL     1      -5.317  -6.906   1.269  0.00  0.00    +0.167 C 
ATOM     27  C   UNL     1      -3.878  -7.424   1.213  0.00  0.00    +0.038 C 
BRANCH  26  28
ATOM     28  N   UNL     1      -6.218  -8.007   1.618  0.00  0.00    -0.222 N 
ATOM     29  C   UNL     1      -6.365  -9.130   0.891  0.00  0.00    +0.254 C 
ATOM     30  O   UNL     1      -5.779  -9.388  -0.141  0.00  0.00    -0.270 OA
ATOM     31  C   UNL     1      -7.357  -9.997   1.560  0.00  0.00    +0.049 A 
ATOM     32  C   UNL     1      -7.897 -11.243   1.283  0.00  0.00    +0.014 A 
ATOM     33  C   UNL     1      -8.836 -11.792   2.142  0.00  0.00    +0.001 A 
ATOM     34  C   UNL     1      -9.238 -11.105   3.272  0.00  0.00    +0.001 A 
ATOM     35  C   UNL     1      -8.707  -9.858   3.562  0.00  0.00    +0.014 A 
ATOM     36  C   UNL     1      -7.767  -9.297   2.713  0.00  0.00    +0.049 A 
ATOM     37  C   UNL     1      -7.009  -8.028   2.706  0.00  0.00    +0.254 C 
ATOM     38  O   UNL     1      -7.087  -7.151   3.542  0.00  0.00    -0.270 OA
ENDBRANCH  26  28
ENDBRANCH  22  26
ENDBRANCH   1  21
TORSDOF 7
