REMARK  Name = ZINC13799029
REMARK  11 active torsions:
REMARK  status: ('A' for Active; 'I' for Inactive)
REMARK    1  A    between atoms: C_1  and  C_2
REMARK    2  A    between atoms: C_7  and  C_10
REMARK    3  A    between atoms: C_16  and  C_17
REMARK    4  A    between atoms: N_19  and  C_34
REMARK    5  A    between atoms: C_21  and  C_22
REMARK    6  A    between atoms: C_25  and  O_28
REMARK    7  A    between atoms: O_28  and  C_29
REMARK    8  A    between atoms: C_29  and  C_30
REMARK    9  A    between atoms: C_30  and  C_31
REMARK   10  A    between atoms: C_31  and  C_32
REMARK   11  A    between atoms: C_31  and  C_33
REMARK                            x       y       z     vdW  Elec       q    Type
REMARK                         _______ _______ _______ _____ _____    ______ ____
ROOT
ATOM      1  C   UNL     1       4.921   3.859   0.194  0.00  0.00    +0.022 A 
ATOM      2  C   UNL     1       3.579   3.690   0.482  0.00  0.00    +0.123 A 
ATOM      3  N   UNL     1       3.348   2.370   0.606  0.00  0.00    -0.239 N 
ATOM      4  N   UNL     1       4.537   1.664   0.406  0.00  0.00    -0.166 NA
ATOM      5  C   UNL     1       5.507   2.514   0.150  0.00  0.00    +0.100 A 
ENDROOT
BRANCH   1  19
ATOM      6  C   UNL     1       1.749  11.007  -5.237  0.00  0.00    +0.039 C 
ATOM      7  C   UNL     1       3.016  10.535  -4.520  0.00  0.00    +0.133 C 
ATOM      8  C   UNL     1       2.636   9.885  -3.184  0.00  0.00    +0.138 C 
ATOM      9  N   UNL     1       3.872   9.611  -2.433  0.00  0.00    -0.307 N 
ATOM     10  C   UNL     1       4.839  10.708  -2.269  0.00  0.00    +0.138 C 
ATOM     11  C   UNL     1       5.114  11.316  -3.654  0.00  0.00    +0.133 C 
ATOM     12  O   UNL     1       3.870  11.654  -4.273  0.00  0.00    -0.371 OA
ATOM     13  C   UNL     1       5.858  10.301  -4.524  0.00  0.00    +0.039 C 
ATOM     14  C   UNL     1       4.112   8.373  -1.898  0.00  0.00    +0.154 C 
ATOM     15  N   UNL     1       3.350   7.293  -1.951  0.00  0.00    -0.154 NA
ATOM     16  C   UNL     1       3.699   6.155  -1.390  0.00  0.00    +0.276 C 
ATOM     17  O   UNL     1       2.986   5.165  -1.446  0.00  0.00    -0.267 OA
ATOM     18  C   UNL     1       5.001   6.140  -0.689  0.00  0.00    +0.080 C 
ATOM     19  C   UNL     1       5.620   5.129  -0.025  0.00  0.00    +0.032 C 
ATOM     20  S   UNL     1       5.527   7.829  -0.954  0.00  0.00    -0.052 S 
ENDBRANCH   1  19
BRANCH   5  21
ATOM     21  C   UNL     1       6.924   2.178  -0.124  0.00  0.00    +0.003 A 
ATOM     22  C   UNL     1       7.659   2.938  -1.032  0.00  0.00    +0.013 A 
ATOM     23  C   UNL     1       8.980   2.627  -1.280  0.00  0.00    +0.046 A 
ATOM     24  C   UNL     1       9.573   1.550  -0.635  0.00  0.00    +0.121 A 
ATOM     25  C   UNL     1       8.842   0.787   0.266  0.00  0.00    +0.046 A 
ATOM     26  C   UNL     1       7.523   1.097   0.523  0.00  0.00    +0.013 A 
BRANCH  24  27
ATOM     27  O   UNL     1      10.873   1.242  -0.885  0.00  0.00    -0.492 OA
BRANCH  27  28
ATOM     28  C   UNL     1      11.566   2.068  -1.823  0.00  0.00    +0.229 C 
BRANCH  28  29
ATOM     29  C   UNL     1      13.005   1.571  -1.974  0.00  0.00    +0.044 C 
BRANCH  29  30
ATOM     30  C   UNL     1      13.747   2.456  -2.978  0.00  0.00    -0.014 C 
ATOM     31  C   UNL     1      15.218   2.038  -3.036  0.00  0.00    +0.007 C 
ATOM     32  C   UNL     1      13.117   2.296  -4.362  0.00  0.00    +0.007 C 
ENDBRANCH  29  30
ENDBRANCH  28  29
ENDBRANCH  27  28
ENDBRANCH  24  27
ENDBRANCH   5  21
BRANCH   3  33
ATOM     33  C   UNL     1       2.106   1.792   0.897  0.00  0.00    +0.065 A 
ATOM     34  C   UNL     1       0.990   2.598   1.082  0.00  0.00    +0.028 A 
ATOM     35  C   UNL     1      -0.233   2.025   1.369  0.00  0.00    +0.002 A 
ATOM     36  C   UNL     1      -0.348   0.651   1.472  0.00  0.00    +0.000 A 
ATOM     37  C   UNL     1       0.761  -0.154   1.288  0.00  0.00    +0.002 A 
ATOM     38  C   UNL     1       1.988   0.413   1.001  0.00  0.00    +0.028 A 
ENDBRANCH   3  33
TORSDOF 7
