REMARK  Name = ZINC39991606
REMARK  14 active torsions:
REMARK  status: ('A' for Active; 'I' for Inactive)
REMARK    1  A    between atoms: C_1  and  C_2
REMARK    2  A    between atoms: C_5  and  S_8
REMARK    3  A    between atoms: S_8  and  C_9
REMARK    4  A    between atoms: C_11  and  C_37
REMARK    5  A    between atoms: C_12  and  C_14
REMARK    6  A    between atoms: C_14  and  C_16
REMARK    7  A    between atoms: N_20  and  C_30
REMARK    8  A    between atoms: C_21  and  C_23
REMARK    9  A    between atoms: C_26  and  O_29
REMARK   10  A    between atoms: C_30  and  C_31
REMARK   11  A    between atoms: C_31  and  C_32
REMARK   12  A    between atoms: C_32  and  N_33
REMARK   13  A    between atoms: N_33  and  C_34
REMARK   14  A    between atoms: N_33  and  C_35
REMARK                            x       y       z     vdW  Elec       q    Type
REMARK                         _______ _______ _______ _____ _____    ______ ____
ROOT
ATOM      1  C   UNL     1       0.548  -8.355   5.822  0.00  0.00    +0.077 C 
ATOM      2  C   UNL     1       0.761  -9.128   6.911  0.00  0.00    +0.249 C 
ATOM      3  C   UNL     1       0.891 -10.536   6.490  0.00  0.00    +0.288 C 
ATOM      4  O   UNL     1       1.088 -11.472   7.239  0.00  0.00    -0.266 OA
ATOM      5  N   UNL     1       0.760 -10.630   5.154  0.00  0.00    -0.284 N 
ATOM      6  C   UNL     1       0.528  -9.280   4.628  0.00  0.00    +0.145 C 
ATOM      7  O   UNL     1       0.842  -8.680   8.187  0.00  0.00    -0.282 OA
ENDROOT
BRANCH   6   8
ATOM      8  C   UNL     1      -0.811  -9.211   3.940  0.00  0.00    -0.022 A 
ATOM      9  C   UNL     1      -1.928  -9.752   4.548  0.00  0.00    +0.009 A 
ATOM     10  C   UNL     1      -3.157  -9.690   3.920  0.00  0.00    +0.046 A 
ATOM     11  C   UNL     1      -3.269  -9.084   2.677  0.00  0.00    +0.117 A 
ATOM     12  C   UNL     1      -2.146  -8.541   2.069  0.00  0.00    +0.046 A 
ATOM     13  C   UNL     1      -0.921  -8.601   2.704  0.00  0.00    +0.009 A 
BRANCH  11  14
ATOM     14  O   UNL     1      -4.476  -9.022   2.056  0.00  0.00    -0.507 OA
ATOM     15  H   UNL     1      -4.988  -8.230   2.269  0.00  0.00    +0.292 HD
ENDBRANCH  11  14
ENDBRANCH   6   8
BRANCH   1  16
ATOM     16  C   UNL     1       0.364  -6.898   5.805  0.00  0.00    +0.203 C 
ATOM     17  O   UNL     1      -0.614  -6.401   6.337  0.00  0.00    -0.286 OA
BRANCH  16  21
ATOM     18  C   UNL     1       3.304  -4.965   3.858  0.00  0.00    +0.140 A 
ATOM     19  N   UNL     1       2.413  -4.184   4.448  0.00  0.00    -0.237 NA
ATOM     20  C   UNL     1       1.405  -4.681   5.116  0.00  0.00    +0.058 A 
ATOM     21  C   UNL     1       1.324  -6.070   5.169  0.00  0.00    +0.083 A 
ATOM     22  S   UNL     1       2.761  -6.520   4.208  0.00  0.00    -0.057 S 
ATOM     23  C   UNL     1       0.387  -3.799   5.791  0.00  0.00    +0.067 C 
BRANCH  18  24
ATOM     24  S   UNL     1       4.718  -4.490   2.921  0.00  0.00    -0.063 S 
BRANCH  24  29
ATOM     25  C   UNL     1       4.874   1.520   3.452  0.00  0.00    +0.044 C 
ATOM     26  C   UNL     1       4.835   0.019   3.320  0.00  0.00    -0.050 A 
ATOM     27  C   UNL     1       5.412  -0.774   4.294  0.00  0.00    +0.004 A 
ATOM     28  C   UNL     1       5.378  -2.150   4.176  0.00  0.00    +0.015 A 
ATOM     29  C   UNL     1       4.763  -2.736   3.076  0.00  0.00    +0.015 A 
ATOM     30  C   UNL     1       4.184  -1.935   2.100  0.00  0.00    +0.015 A 
ATOM     31  C   UNL     1       4.216  -0.561   2.227  0.00  0.00    +0.004 A 
ENDBRANCH  24  29
ENDBRANCH  18  24
ENDBRANCH  16  21
ENDBRANCH   1  16
BRANCH   5  32
ATOM     32  C   UNL     1       0.830 -11.863   4.366  0.00  0.00    +0.107 C 
BRANCH  32  33
ATOM     33  C   UNL     1      -0.570 -12.470   4.243  0.00  0.00    +0.000 C 
BRANCH  33  34
ATOM     34  C   UNL     1      -0.497 -13.758   3.420  0.00  0.00    -0.078 C 
BRANCH  34  35
ATOM     35  N   UNL     1      -1.840 -14.340   3.302  0.00  0.00    +0.376 N 
ATOM     36  C   UNL     1      -2.701 -13.434   2.531  0.00  0.00    -0.097 C 
ATOM     37  C   UNL     1      -1.754 -15.636   2.615  0.00  0.00    -0.097 C 
ATOM     38  H   UNL     1      -2.231 -14.473   4.223  0.00  0.00    -0.083 HD
ENDBRANCH  34  35
ENDBRANCH  33  34
ENDBRANCH  32  33
ENDBRANCH   5  32
TORSDOF 10
