REMARK  Name = ZINC39664034
REMARK  10 active torsions:
REMARK  status: ('A' for Active; 'I' for Inactive)
REMARK    1  A    between atoms: C_1  and  O_2
REMARK    2  A    between atoms: O_2  and  C_3
REMARK    3  A    between atoms: C_6  and  C_9
REMARK    4  A    between atoms: C_9  and  C_11
REMARK    5  A    between atoms: C_9  and  N_35
REMARK    6  A    between atoms: C_11  and  N_12
REMARK    7  A    between atoms: C_13  and  C_15
REMARK    8  A    between atoms: C_26  and  C_28
REMARK    9  A    between atoms: C_28  and  C_29
REMARK   10  A    between atoms: C_29  and  C_30
REMARK                            x       y       z     vdW  Elec       q    Type
REMARK                         _______ _______ _______ _____ _____    ______ ____
ROOT
ATOM      1  C   UNL     1       2.190  -5.081   8.496  0.00  0.00    +0.100 C 
ATOM      2  C   UNL     1       3.336  -4.303   9.181  0.00  0.00    +0.121 C 
ATOM      3  N   UNL     1       2.687  -3.606  10.317  0.00  0.00    -0.300 N 
ATOM      4  C   UNL     1       1.714  -4.590  10.847  0.00  0.00    +0.115 C 
ATOM      5  C   UNL     1       1.130  -5.271   9.593  0.00  0.00    -0.004 C 
ATOM      6  C   UNL     1       0.902  -6.757   9.857  0.00  0.00    -0.010 C 
ATOM      7  C   UNL     1      -0.198  -6.921  10.909  0.00  0.00    -0.082 C 
ATOM      8  N   UNL     1      -1.435  -6.293  10.429  0.00  0.00    +0.379 N 
ATOM      9  C   UNL     1      -1.233  -4.848  10.268  0.00  0.00    -0.082 C 
ATOM     10  C   UNL     1      -0.177  -4.596   9.188  0.00  0.00    -0.010 C 
ATOM     11  C   UNL     1       2.928  -2.358  10.766  0.00  0.00    +0.216 C 
ATOM     12  O   UNL     1       2.310  -1.926  11.716  0.00  0.00    -0.276 OA
ATOM     13  H   UNL     1      -1.693  -6.697   9.541  0.00  0.00    -0.086 HD
ATOM     14  H   UNL     1      -2.174  -6.455  11.097  0.00  0.00    -0.086 HD
ENDROOT
BRANCH   1  16
ATOM     15  N   UNL     1       1.084  -4.912   6.290  0.00  0.00    -0.316 N 
ATOM     16  C   UNL     1       1.623  -4.281   7.351  0.00  0.00    +0.218 C 
ATOM     17  O   UNL     1       1.652  -3.069   7.386  0.00  0.00    -0.275 OA
ATOM     18  H   UNL     1       1.061  -5.882   6.262  0.00  0.00    +0.149 HD
BRANCH  15  19
ATOM     19  C   UNL     1       0.533  -4.134   5.177  0.00  0.00    +0.093 C 
BRANCH  19  20
ATOM     20  C   UNL     1       0.106  -5.082   4.054  0.00  0.00    -0.020 C 
BRANCH  20  24
ATOM     21  C   UNL     1       3.554  -7.026   2.443  0.00  0.00    +0.120 A 
ATOM     22  C   UNL     1       2.747  -7.688   3.356  0.00  0.00    +0.046 A 
ATOM     23  C   UNL     1       1.633  -7.057   3.876  0.00  0.00    +0.005 A 
ATOM     24  C   UNL     1       1.323  -5.767   3.486  0.00  0.00    -0.059 A 
ATOM     25  C   UNL     1       2.126  -5.106   2.576  0.00  0.00    +0.005 A 
ATOM     26  C   UNL     1       3.244  -5.730   2.058  0.00  0.00    +0.046 A 
BRANCH  21  28
ATOM     27  C   UNL     1       4.909  -8.978   2.373  0.00  0.00    +0.277 C 
ATOM     28  O   UNL     1       4.651  -7.644   1.931  0.00  0.00    -0.495 OA
ENDBRANCH  21  28
ENDBRANCH  20  24
BRANCH  20  29
ATOM     29  N   UNL     1      -0.563  -4.316   2.995  0.00  0.00    +0.385 N 
ATOM     30  C   UNL     1      -0.989  -5.222   1.898  0.00  0.00    -0.078 C 
ATOM     31  C   UNL     1      -2.114  -4.423   1.194  0.00  0.00    -0.020 C 
ATOM     32  C   UNL     1      -2.836  -3.732   2.373  0.00  0.00    -0.020 C 
ATOM     33  C   UNL     1      -1.804  -3.703   3.516  0.00  0.00    -0.078 C 
ATOM     34  H   UNL     1       0.054  -3.602   2.638  0.00  0.00    -0.081 HD
ENDBRANCH  20  29
ENDBRANCH  19  20
ENDBRANCH  15  19
ENDBRANCH   1  16
BRANCH  11  35
ATOM     35  C   UNL     1       3.966  -1.501  10.089  0.00  0.00    +0.096 C 
BRANCH  35  36
ATOM     36  C   UNL     1       4.042  -0.143  10.790  0.00  0.00    +0.013 C 
BRANCH  36  37
ATOM     37  C   UNL     1       5.096   0.728  10.102  0.00  0.00    -0.011 C 
ATOM     38  C   UNL     1       6.503   0.143  10.343  0.00  0.00    +0.003 C 
ATOM     39  C   UNL     1       7.407   1.389  10.514  0.00  0.00    +0.000 C 
ATOM     40  C   UNL     1       6.502   2.363  11.308  0.00  0.00    +0.000 C 
ATOM     41  C   UNL     1       5.095   2.139  10.716  0.00  0.00    +0.003 C 
ENDBRANCH  36  37
ENDBRANCH  35  36
ENDBRANCH  11  35
TORSDOF 9
