REMARK  Name = ZINC11455912
REMARK  6 active torsions:
REMARK  status: ('A' for Active; 'I' for Inactive)
REMARK    1  A    between atoms: C_6  and  C_7
REMARK    2  A    between atoms: C_9  and  C_12
REMARK    3  A    between atoms: C_12  and  S_13
REMARK    4  A    between atoms: S_13  and  C_14
REMARK    5  A    between atoms: N_18  and  C_19
REMARK    6  A    between atoms: C_19  and  C_20
REMARK                            x       y       z     vdW  Elec       q    Type
REMARK                         _______ _______ _______ _____ _____    ______ ____
ROOT
ATOM      1  C   UNL     1      -1.662   3.880   4.606  0.00  0.00    +0.193 A 
ATOM      2  N   UNL     1      -2.497   4.630   3.928  0.00  0.00    -0.121 NA
ATOM      3  N   UNL     1      -2.268   4.408   2.564  0.00  0.00    -0.112 NA
ATOM      4  C   UNL     1      -1.302   3.531   2.453  0.00  0.00    +0.220 A 
ATOM      5  N   UNL     1      -0.905   3.177   3.711  0.00  0.00    -0.288 N 
ATOM      6  N   UNL     1      -0.776   3.042   1.264  0.00  0.00    -0.300 N 
ATOM      7  C   UNL     1      -1.747   2.184   0.572  0.00  0.00    +0.108 C 
ATOM      8  C   UNL     1      -1.087   1.550  -0.654  0.00  0.00    +0.019 C 
ATOM      9  C   UNL     1      -0.594   2.655  -1.592  0.00  0.00    +0.003 C 
ATOM     10  C   UNL     1       0.379   3.562  -0.833  0.00  0.00    +0.019 C 
ATOM     11  C   UNL     1      -0.323   4.138   0.398  0.00  0.00    +0.108 C 
ENDROOT
BRANCH   1  12
ATOM     12  S   UNL     1      -1.541   3.791   6.361  0.00  0.00    -0.076 S 
BRANCH  12  13
ATOM     13  C   UNL     1      -2.810   4.947   6.948  0.00  0.00    +0.176 C 
BRANCH  13  16
ATOM     14  C   UNL     1      -2.433   5.417  10.492  0.00  0.00    +0.202 A 
ATOM     15  N   UNL     1      -2.104   5.754   9.224  0.00  0.00    -0.191 NA
ATOM     16  C   UNL     1      -2.813   4.966   8.455  0.00  0.00    +0.238 A 
ATOM     17  O   UNL     1      -3.537   4.179   9.258  0.00  0.00    -0.337 OA
ATOM     18  N   UNL     1      -3.309   4.448  10.418  0.00  0.00    -0.056 NA
BRANCH  14  24
ATOM     19  C   UNL     1      -0.957   7.054  11.658  0.00  0.00    +0.014 A 
ATOM     20  C   UNL     1      -0.465   7.622  12.814  0.00  0.00    +0.039 A 
ATOM     21  C   UNL     1      -0.895   7.165  14.050  0.00  0.00    +0.123 A 
ATOM     22  C   UNL     1      -1.824   6.141  14.130  0.00  0.00    +0.039 A 
ATOM     23  C   UNL     1      -2.326   5.571  12.978  0.00  0.00    +0.014 A 
ATOM     24  C   UNL     1      -1.896   6.027  11.733  0.00  0.00    +0.023 A 
ATOM     25  F   UNL     1      -0.406   7.721  15.181  0.00  0.00    -0.205 F 
ENDBRANCH  14  24
ENDBRANCH  13  16
ENDBRANCH  12  13
ENDBRANCH   1  12
BRANCH   5  26
ATOM     26  C   UNL     1       0.149   2.215   4.043  0.00  0.00    +0.158 C 
BRANCH  26  27
ATOM     27  C   UNL     1       1.464   2.961   4.279  0.00  0.00    +0.138 C 
ATOM     28  C   UNL     1       2.580   1.967   4.686  0.00  0.00    +0.035 C 
ATOM     29  C   UNL     1       3.847   2.749   4.244  0.00  0.00    +0.031 C 
ATOM     30  C   UNL     1       3.351   3.491   2.984  0.00  0.00    +0.160 C 
ATOM     31  O   UNL     1       1.922   3.561   3.058  0.00  0.00    -0.375 OA
ENDBRANCH  26  27
ENDBRANCH   5  26
TORSDOF 6
