REMARK  Name = ZINC67244504
REMARK  7 active torsions:
REMARK  status: ('A' for Active; 'I' for Inactive)
REMARK    1  A    between atoms: C_1  and  C_2
REMARK    2  A    between atoms: C_5  and  N_25
REMARK    3  A    between atoms: C_7  and  S_8
REMARK    4  A    between atoms: S_8  and  N_11
REMARK    5  A    between atoms: C_13  and  N_22
REMARK    6  A    between atoms: N_22  and  C_23
REMARK    7  A    between atoms: N_22  and  C_24
REMARK                            x       y       z     vdW  Elec       q    Type
REMARK                         _______ _______ _______ _____ _____    ______ ____
ROOT
ATOM      1  N   UNL     1       1.609   1.098   3.018  0.00  0.00    -0.204 N 
ATOM      2  C   UNL     1       2.755   0.310   3.491  0.00  0.00    +0.117 C 
ATOM      3  C   UNL     1       3.979   0.718   2.662  0.00  0.00    -0.046 C 
ATOM      4  C   UNL     1       4.284   2.193   2.923  0.00  0.00    +0.023 C 
ATOM      5  C   UNL     1       3.045   3.029   2.735  0.00  0.00    -0.026 A 
ATOM      6  C   UNL     1       1.779   2.467   2.784  0.00  0.00    +0.054 A 
ATOM      7  C   UNL     1       0.657   3.268   2.604  0.00  0.00    +0.025 A 
ATOM      8  C   UNL     1       0.804   4.620   2.368  0.00  0.00    +0.002 A 
ATOM      9  C   UNL     1       2.068   5.177   2.312  0.00  0.00    +0.000 A 
ATOM     10  C   UNL     1       3.181   4.387   2.502  0.00  0.00    +0.005 A 
ENDROOT
BRANCH   3  11
ATOM     11  N   UNL     1       5.134  -0.102   3.052  0.00  0.00    +0.379 N 
ATOM     12  C   UNL     1       4.832  -1.519   2.812  0.00  0.00    -0.096 C 
ATOM     13  C   UNL     1       6.305   0.291   2.256  0.00  0.00    -0.096 C 
ATOM     14  H   UNL     1       5.331   0.039   4.031  0.00  0.00    -0.082 HD
ENDBRANCH   3  11
BRANCH   1  15
ATOM     15  S   UNL     1       0.141   0.376   2.759  0.00  0.00    +0.075 S 
ATOM     16  O   UNL     1       0.376  -1.025   2.738  0.00  0.00    -0.150 OA
ATOM     17  O   UNL     1      -0.463   1.063   1.672  0.00  0.00    -0.150 OA
BRANCH  15  24
ATOM     18  C   UNL     1       0.755  -0.648   5.538  0.00  0.00    +0.046 C 
ATOM     19  C   UNL     1      -0.493   0.187   5.407  0.00  0.00    -0.024 A 
ATOM     20  C   UNL     1      -1.272   0.445   6.520  0.00  0.00    +0.007 A 
ATOM     21  C   UNL     1      -2.416   1.211   6.399  0.00  0.00    +0.033 A 
ATOM     22  C   UNL     1      -2.782   1.719   5.167  0.00  0.00    +0.128 A 
ATOM     23  C   UNL     1      -2.003   1.461   4.054  0.00  0.00    +0.061 A 
ATOM     24  C   UNL     1      -0.856   0.699   4.176  0.00  0.00    +0.114 A 
BRANCH  22  25
ATOM     25  N   UNL     1      -4.008   2.538   5.038  0.00  0.00    +0.056 N 
ATOM     26  O   UNL     1      -4.690   2.762   6.011  0.00  0.00    -0.126 OA
ATOM     27  O   UNL     1      -4.328   2.982   3.960  0.00  0.00    -0.126 OA
ENDBRANCH  22  25
ENDBRANCH  15  24
ENDBRANCH   1  15
TORSDOF 4
