REMARK  Name = ZINC48862207
REMARK  1 active torsions:
REMARK  status: ('A' for Active; 'I' for Inactive)
REMARK    1  A    between atoms: C_5  and  C_6
REMARK                            x       y       z     vdW  Elec       q    Type
REMARK                         _______ _______ _______ _____ _____    ______ ____
ROOT
ATOM      1  C   UNL     1      -1.257  -0.778   0.010  0.00  0.00    +0.134 A 
ATOM      2  N   UNL     1      -2.517  -0.359   0.019  0.00  0.00    -0.140 NA
ATOM      3  N   UNL     1      -3.487  -1.165   0.026  0.00  0.00    -0.125 NA
ATOM      4  C   UNL     1      -3.308  -2.478   0.024  0.00  0.00    +0.189 A 
ATOM      5  S   UNL     1      -1.519  -2.550   0.004  0.00  0.00    -0.030 S 
ATOM      6  N   UNL     1      -4.244  -3.507   0.030  0.00  0.00    -0.247 N 
ATOM      7  C   UNL     1      -5.561  -3.221   0.038  0.00  0.00    +0.308 C 
ATOM      8  O   UNL     1      -5.931  -2.062   0.041  0.00  0.00    -0.252 OA
ATOM      9  N   UNL     1      -6.467  -4.218   0.044  0.00  0.00    -0.282 N 
ATOM     10  C   UNL     1      -6.183  -5.668   0.049  0.00  0.00    +0.113 C 
ATOM     11  C   UNL     1      -7.582  -6.360   0.078  0.00  0.00    +0.008 C 
ATOM     12  C   UNL     1      -8.158  -6.105  -1.350  0.00  0.00    +0.007 C 
ATOM     13  C   UNL     1      -8.389  -4.576  -1.396  0.00  0.00    +0.023 C 
ATOM     14  C   UNL     1      -7.951  -4.072   0.054  0.00  0.00    +0.078 C 
ATOM     15  C   UNL     1      -8.375  -5.301   0.926  0.00  0.00    +0.027 C 
ATOM     16  H   UNL     1      -3.948  -4.431   0.028  0.00  0.00    +0.158 HD
ENDROOT
BRANCH   1  21
ATOM     17  C   UNL     1      -0.017   1.389   0.010  0.00  0.00    +0.018 A 
ATOM     18  C   UNL     1       1.156   2.061   0.002  0.00  0.00    +0.046 A 
ATOM     19  S   UNL     1       2.352   0.737  -0.016  0.00  0.00    -0.104 S 
ATOM     20  C   UNL     1       1.215  -0.639  -0.013  0.00  0.00    +0.055 A 
ATOM     21  C   UNL     1       0.002  -0.004   0.002  0.00  0.00    +0.016 A 
ENDBRANCH   1  21
TORSDOF 1
