REMARK  Name = ZINC40964157
REMARK  3 active torsions:
REMARK  status: ('A' for Active; 'I' for Inactive)
REMARK    1  A    between atoms: C_3  and  N_21
REMARK    2  A    between atoms: C_6  and  C_7
REMARK    3  A    between atoms: C_13  and  C_15
REMARK                            x       y       z     vdW  Elec       q    Type
REMARK                         _______ _______ _______ _____ _____    ______ ____
ROOT
ATOM      1  C   UNL     1      -1.271  -0.766   0.011  0.00  0.00    +0.092 A 
ATOM      2  C   UNL     1      -1.391  -2.117   0.010  0.00  0.00    +0.143 A 
ATOM      3  N   UNL     1      -2.745  -2.419   0.021  0.00  0.00    -0.213 N 
ATOM      4  C   UNL     1      -3.380  -1.204   0.027  0.00  0.00    +0.196 A 
ATOM      5  N   UNL     1      -2.511  -0.236   0.026  0.00  0.00    -0.220 NA
ATOM      6  S   UNL     1      -5.095  -1.672   0.040  0.00  0.00    -0.030 S 
ATOM      7  C   UNL     1      -4.857  -3.442   0.036  0.00  0.00    +0.131 A 
ATOM      8  N   UNL     1      -3.562  -3.544   0.025  0.00  0.00    -0.160 NA
ENDROOT
BRANCH   1  14
ATOM      9  C   UNL     1      -0.017   1.389   0.010  0.00  0.00    +0.012 A 
ATOM     10  C   UNL     1       1.170   2.093   0.002  0.00  0.00    +0.033 A 
ATOM     11  C   UNL     1       2.377   1.418  -0.013  0.00  0.00    +0.126 A 
ATOM     12  C   UNL     1       2.402   0.035  -0.021  0.00  0.00    +0.033 A 
ATOM     13  C   UNL     1       1.221  -0.679  -0.013  0.00  0.00    +0.012 A 
ATOM     14  C   UNL     1       0.002  -0.004   0.002  0.00  0.00    +0.002 A 
BRANCH  11  15
ATOM     15  N   UNL     1       3.648   2.178  -0.022  0.00  0.00    +0.056 N 
ATOM     16  O   UNL     1       3.629   3.387  -0.015  0.00  0.00    -0.126 OA
ATOM     17  O   UNL     1       4.704   1.590  -0.035  0.00  0.00    -0.126 OA
ENDBRANCH  11  15
ENDBRANCH   1  14
BRANCH   7  18
ATOM     18  C   UNL     1      -5.893  -4.537   0.043  0.00  0.00    +0.175 C 
ATOM     19  C   UNL     1      -6.870  -4.341  -1.136  0.00  0.00    +0.041 C 
ATOM     20  C   UNL     1      -8.234  -4.724  -0.501  0.00  0.00    +0.031 C 
ATOM     21  C   UNL     1      -8.037  -4.216   0.949  0.00  0.00    +0.161 C 
ATOM     22  O   UNL     1      -6.656  -4.476   1.254  0.00  0.00    -0.370 OA
ENDBRANCH   7  18
TORSDOF 3
