REMARK  Name = ZINC13063925
REMARK  12 active torsions:
REMARK  status: ('A' for Active; 'I' for Inactive)
REMARK    1  A    between atoms: C_1  and  C_2
REMARK    2  A    between atoms: C_2  and  C_3
REMARK    3  A    between atoms: C_3  and  C_5
REMARK    4  A    between atoms: C_3  and  N_69
REMARK    5  A    between atoms: N_9  and  C_10
REMARK    6  A    between atoms: C_10  and  C_11
REMARK    7  A    between atoms: C_18  and  C_19
REMARK    8  A    between atoms: C_18  and  N_69
REMARK    9  A    between atoms: C_22  and  C_25
REMARK   10  A    between atoms: C_26  and  C_27
REMARK   11  A    between atoms: C_26  and  N_69
REMARK   12  A    between atoms: C_32  and  C_39
REMARK                            x       y       z     vdW  Elec       q    Type
REMARK                         _______ _______ _______ _____ _____    ______ ____
ROOT
ATOM      1  N   UNL     1       0.861   4.147  -1.166  0.00  0.00    +0.392 N 
ATOM      2  H   UNL     1      -0.044   4.578  -0.947  0.00  0.00    -0.080 HD
ENDROOT
BRANCH   1   3
ATOM      3  C   UNL     1       1.108   3.040  -0.218  0.00  0.00    +0.003 C 
BRANCH   3   4
ATOM      4  C   UNL     1       0.139   1.921  -0.503  0.00  0.00    +0.138 A 
ATOM      5  N   UNL     1      -1.143   2.040  -0.748  0.00  0.00    -0.115 NA
ATOM      6  N   UNL     1      -1.622   0.860  -0.942  0.00  0.00    -0.023 NA
ATOM      7  N   UNL     1      -0.679  -0.009  -0.828  0.00  0.00    -0.044 NA
ATOM      8  N   UNL     1       0.423   0.607  -0.557  0.00  0.00    -0.226 N 
BRANCH   8   9
ATOM      9  C   UNL     1       1.735  -0.010  -0.350  0.00  0.00    +0.182 C 
BRANCH   9  10
ATOM     10  C   UNL     1       2.460  -0.104  -1.667  0.00  0.00    -0.026 A 
ATOM     11  C   UNL     1       2.318  -1.232  -2.454  0.00  0.00    +0.008 A 
ATOM     12  C   UNL     1       2.979  -1.318  -3.665  0.00  0.00    +0.038 A 
ATOM     13  C   UNL     1       3.791  -0.278  -4.085  0.00  0.00    +0.123 A 
ATOM     14  C   UNL     1       3.937   0.849  -3.294  0.00  0.00    +0.038 A 
ATOM     15  C   UNL     1       3.271   0.934  -2.086  0.00  0.00    +0.008 A 
ATOM     16  F   UNL     1       4.441  -0.363  -5.267  0.00  0.00    -0.205 F 
ENDBRANCH   9  10
ENDBRANCH   8   9
ENDBRANCH   3   4
BRANCH   3  18
ATOM     17  C   UNL     1       1.250   2.452   2.206  0.00  0.00    +0.002 C 
ATOM     18  C   UNL     1       0.890   3.553   1.206  0.00  0.00    -0.011 C 
ENDBRANCH   3  18
ENDBRANCH   1   3
BRANCH   1  19
ATOM     19  C   UNL     1       0.824   3.628  -2.550  0.00  0.00    -0.042 C 
BRANCH  19  20
ATOM     20  C   UNL     1       0.150   4.649  -3.430  0.00  0.00    -0.064 A 
ATOM     21  C   UNL     1      -1.229   4.699  -3.500  0.00  0.00    +0.002 A 
ATOM     22  C   UNL     1      -1.847   5.638  -4.304  0.00  0.00    +0.003 A 
ATOM     23  C   UNL     1      -1.086   6.521  -5.046  0.00  0.00    -0.050 A 
ATOM     24  C   UNL     1       0.294   6.468  -4.980  0.00  0.00    +0.003 A 
ATOM     25  C   UNL     1       0.912   5.532  -4.173  0.00  0.00    +0.002 A 
ATOM     26  C   UNL     1      -1.760   7.542  -5.927  0.00  0.00    +0.044 C 
ENDBRANCH  19  20
ENDBRANCH   1  19
BRANCH   1  27
ATOM     27  C   UNL     1       1.923   5.168  -1.038  0.00  0.00    -0.036 C 
BRANCH  27  28
ATOM     28  C   UNL     1       3.279   4.552  -1.267  0.00  0.00    +0.001 A 
ATOM     29  C   UNL     1       3.835   4.583  -2.503  0.00  0.00    +0.017 A 
ATOM     30  C   UNL     1       5.154   3.976  -2.692  0.00  0.00    -0.001 A 
ATOM     31  C   UNL     1       5.778   3.977  -3.944  0.00  0.00    +0.010 A 
ATOM     32  C   UNL     1       7.009   3.403  -4.087  0.00  0.00    +0.004 A 
ATOM     33  C   UNL     1       7.646   2.817  -3.002  0.00  0.00    -0.048 A 
ATOM     34  C   UNL     1       7.050   2.804  -1.759  0.00  0.00    +0.029 A 
ATOM     35  C   UNL     1       5.796   3.383  -1.589  0.00  0.00    +0.049 A 
ATOM     36  N   UNL     1       5.177   3.385  -0.357  0.00  0.00    -0.322 N 
ATOM     37  H   UNL     1       5.621   2.976   0.402  0.00  0.00    +0.169 HD
ATOM     38  C   UNL     1       3.968   3.950  -0.192  0.00  0.00    +0.251 A 
ATOM     39  O   UNL     1       3.452   3.937   0.912  0.00  0.00    -0.268 OA
ATOM     40  C   UNL     1       9.004   2.189  -3.183  0.00  0.00    +0.044 C 
ENDBRANCH  27  28
ENDBRANCH   1  27
TORSDOF 9
