REMARK  Name = ZINC08961356
REMARK  9 active torsions:
REMARK  status: ('A' for Active; 'I' for Inactive)
REMARK    1  A    between atoms: C_1  and  C_2
REMARK    2  A    between atoms: C_13  and  N_18
REMARK    3  A    between atoms: N_18  and  S_19
REMARK    4  A    between atoms: S_19  and  C_22
REMARK    5  A    between atoms: C_22  and  C_23
REMARK    6  A    between atoms: C_25  and  O_31
REMARK    7  A    between atoms: C_27  and  O_29
REMARK    8  A    between atoms: O_29  and  C_30
REMARK    9  A    between atoms: O_31  and  C_32
REMARK                            x       y       z     vdW  Elec       q    Type
REMARK                         _______ _______ _______ _____ _____    ______ ____
ROOT
ATOM      1  C   UNL     1      -2.252   7.978  -4.605  0.00  0.00    +0.044 C 
ATOM      2  C   UNL     1      -1.672   7.336  -3.371  0.00  0.00    -0.048 A 
ATOM      3  C   UNL     1      -0.329   7.487  -3.080  0.00  0.00    +0.007 A 
ATOM      4  C   UNL     1       0.207   6.886  -1.957  0.00  0.00    +0.048 A 
ATOM      5  C   UNL     1      -0.599   6.132  -1.115  0.00  0.00    +0.150 A 
ATOM      6  C   UNL     1      -1.954   6.004  -1.390  0.00  0.00    +0.077 A 
ATOM      7  C   UNL     1      -2.483   6.598  -2.531  0.00  0.00    +0.030 A 
ATOM      8  N   UNL     1      -2.808   5.308  -0.534  0.00  0.00    -0.278 N 
ATOM      9  C   UNL     1      -2.528   4.179   0.103  0.00  0.00    +0.252 C 
ATOM     10  O   UNL     1      -3.402   3.695   0.796  0.00  0.00    -0.270 OA
ATOM     11  C   UNL     1      -1.244   3.468   0.037  0.00  0.00    +0.081 A 
ATOM     12  C   UNL     1      -1.225   2.070   0.019  0.00  0.00    +0.041 A 
ATOM     13  C   UNL     1      -0.017   1.395   0.010  0.00  0.00    +0.049 A 
ATOM     14  C   UNL     1       1.179   2.106   0.002  0.00  0.00    +0.028 A 
ATOM     15  C   UNL     1       1.167   3.486  -0.004  0.00  0.00    +0.049 A 
ATOM     16  C   UNL     1      -0.038   4.176   0.008  0.00  0.00    +0.141 A 
ATOM     17  O   UNL     1      -0.036   5.528  -0.040  0.00  0.00    -0.453 OA
ATOM     18  H   UNL     1      -3.690   5.686  -0.392  0.00  0.00    +0.155 HD
ENDROOT
BRANCH  13  19
ATOM     19  N   UNL     1       0.002  -0.004   0.002  0.00  0.00    -0.220 N 
ATOM     20  H   UNL     1      -0.591  -0.494  -0.589  0.00  0.00    +0.173 HD
BRANCH  19  21
ATOM     21  S   UNL     1       1.037  -0.824   1.002  0.00  0.00    +0.047 S 
ATOM     22  O   UNL     1       0.807  -2.196   0.716  0.00  0.00    -0.155 OA
ATOM     23  O   UNL     1       2.310  -0.238   0.765  0.00  0.00    -0.155 OA
BRANCH  21  24
ATOM     24  C   UNL     1       0.471  -0.432   2.680  0.00  0.00    +0.224 C 
BRANCH  24  25
ATOM     25  C   UNL     1       1.351  -1.133   3.683  0.00  0.00    -0.018 A 
ATOM     26  C   UNL     1       1.022  -2.401   4.122  0.00  0.00    +0.051 A 
ATOM     27  C   UNL     1       1.834  -3.050   5.042  0.00  0.00    +0.124 A 
ATOM     28  C   UNL     1       2.970  -2.422   5.527  0.00  0.00    +0.091 A 
ATOM     29  C   UNL     1       3.295  -1.147   5.090  0.00  0.00    +0.124 A 
ATOM     30  C   UNL     1       2.483  -0.504   4.166  0.00  0.00    +0.051 A 
BRANCH  29  31
ATOM     31  O   UNL     1       4.408  -0.528   5.564  0.00  0.00    -0.495 OA
ATOM     32  C   UNL     1       5.197  -1.250   6.511  0.00  0.00    +0.277 C 
ENDBRANCH  29  31
BRANCH  27  33
ATOM     33  O   UNL     1       1.513  -4.300   5.469  0.00  0.00    -0.495 OA
ATOM     34  C   UNL     1       2.391  -4.906   6.419  0.00  0.00    +0.277 C 
ENDBRANCH  27  33
ENDBRANCH  24  25
ENDBRANCH  21  24
ENDBRANCH  19  21
ENDBRANCH  13  19
TORSDOF 6
