REMARK  Name = ZINC30825627
REMARK  7 active torsions:
REMARK  status: ('A' for Active; 'I' for Inactive)
REMARK    1  A    between atoms: C_1  and  C_2
REMARK    2  A    between atoms: C_5  and  C_11
REMARK    3  A    between atoms: C_7  and  N_8
REMARK    4  A    between atoms: N_13  and  C_14
REMARK    5  A    between atoms: N_13  and  C_25
REMARK    6  A    between atoms: C_14  and  C_15
REMARK    7  A    between atoms: C_25  and  C_26
REMARK                            x       y       z     vdW  Elec       q    Type
REMARK                         _______ _______ _______ _____ _____    ______ ____
ROOT
ATOM      1  C   UNL     1      -2.911   4.009  -0.172  0.00  0.00    +0.247 C 
ATOM      2  O   UNL     1      -3.152   5.182  -0.379  0.00  0.00    -0.270 OA
ATOM      3  N   UNL     1      -3.876   3.195   0.302  0.00  0.00    -0.289 N 
ENDROOT
BRANCH   1   8
ATOM      4  C   UNL     1       2.353   1.928  -1.212  0.00  0.00    +0.046 C 
ATOM      5  C   UNL     1       0.974   2.473  -0.939  0.00  0.00    -0.020 A 
ATOM      6  C   UNL     1       0.168   1.865   0.007  0.00  0.00    +0.006 A 
ATOM      7  C   UNL     1      -1.097   2.355   0.257  0.00  0.00    +0.013 A 
ATOM      8  C   UNL     1      -1.559   3.474  -0.439  0.00  0.00    +0.039 A 
ATOM      9  C   UNL     1      -0.740   4.082  -1.392  0.00  0.00    +0.046 A 
ATOM     10  C   UNL     1       0.521   3.578  -1.637  0.00  0.00    +0.130 A 
BRANCH  10  11
ATOM     11  N   UNL     1       1.390   4.221  -2.647  0.00  0.00    +0.057 N 
ATOM     12  O   UNL     1       1.047   5.268  -3.167  0.00  0.00    -0.126 OA
ATOM     13  O   UNL     1       2.448   3.704  -2.958  0.00  0.00    -0.126 OA
ENDBRANCH  10  11
ENDBRANCH   1   8
BRANCH   3  14
ATOM     14  C   UNL     1      -5.232   3.710   0.507  0.00  0.00    +0.144 C 
BRANCH  14  15
ATOM     15  C   UNL     1      -6.038   3.517  -0.751  0.00  0.00    -0.021 A 
ATOM     16  C   UNL     1      -6.228   4.563  -1.611  0.00  0.00    +0.006 A 
ATOM     17  C   UNL     1      -6.968   4.395  -2.772  0.00  0.00    +0.002 A 
ATOM     18  C   UNL     1      -7.525   3.173  -3.080  0.00  0.00    +0.026 A 
ATOM     19  C   UNL     1      -7.345   2.095  -2.220  0.00  0.00    +0.047 A 
ATOM     20  C   UNL     1      -6.589   2.269  -1.046  0.00  0.00    +0.004 A 
ATOM     21  C   UNL     1      -6.591   0.971  -0.367  0.00  0.00    +0.028 A 
ATOM     22  C   UNL     1      -7.303   0.129  -1.133  0.00  0.00    +0.083 A 
ATOM     23  N   UNL     1      -7.761   0.783  -2.244  0.00  0.00    -0.361 N 
ATOM     24  H   UNL     1      -8.371   0.414  -3.082  0.00  0.00    +0.165 HD
ENDBRANCH  14  15
ENDBRANCH   3  14
BRANCH   3  25
ATOM     25  C   UNL     1      -3.568   1.797   0.611  0.00  0.00    +0.144 C 
BRANCH  25  26
ATOM     26  C   UNL     1      -3.465   1.623   2.104  0.00  0.00    -0.021 A 
ATOM     27  C   UNL     1      -2.242   1.478   2.695  0.00  0.00    +0.006 A 
ATOM     28  C   UNL     1      -2.137   1.318   4.070  0.00  0.00    +0.002 A 
ATOM     29  C   UNL     1      -3.264   1.304   4.864  0.00  0.00    +0.026 A 
ATOM     30  C   UNL     1      -4.519   1.451   4.284  0.00  0.00    +0.047 A 
ATOM     31  C   UNL     1      -4.619   1.617   2.890  0.00  0.00    +0.004 A 
ATOM     32  C   UNL     1      -6.050   1.738   2.599  0.00  0.00    +0.028 A 
ATOM     33  C   UNL     1      -6.698   1.651   3.771  0.00  0.00    +0.083 A 
ATOM     34  N   UNL     1      -5.800   1.479   4.789  0.00  0.00    -0.361 N 
ATOM     35  H   UNL     1      -5.967   1.370   5.871  0.00  0.00    +0.165 HD
ENDBRANCH  25  26
ENDBRANCH   3  25
TORSDOF 6
