REMARK  Name = ZINC36502217
REMARK  14 active torsions:
REMARK  status: ('A' for Active; 'I' for Inactive)
REMARK    1  A    between atoms: C_1  and  C_2
REMARK    2  A    between atoms: C_7  and  C_8
REMARK    3  A    between atoms: C_8  and  C_10
REMARK    4  A    between atoms: C_8  and  N_17
REMARK    5  A    between atoms: N_12  and  C_13
REMARK    6  A    between atoms: C_13  and  C_14
REMARK    7  A    between atoms: C_13  and  C_15
REMARK    8  A    between atoms: C_13  and  C_16
REMARK    9  A    between atoms: N_17  and  C_18
REMARK   10  A    between atoms: C_18  and  C_19
REMARK   11  A    between atoms: C_24  and  C_26
REMARK   12  A    between atoms: C_26  and  C_27
REMARK   13  A    between atoms: C_26  and  C_33
REMARK   14  A    between atoms: C_26  and  O_39
REMARK                            x       y       z     vdW  Elec       q    Type
REMARK                         _______ _______ _______ _____ _____    ______ ____
ROOT
ATOM      1  N   UNL     1      -0.122  -0.299   3.902  0.00  0.00    -0.276 N 
ATOM      2  C   UNL     1      -1.368  -0.400   4.406  0.00  0.00    +0.258 C 
ATOM      3  O   UNL     1      -2.216   0.408   4.091  0.00  0.00    -0.272 OA
ENDROOT
BRANCH   1   4
ATOM      4  C   UNL     1       0.249   0.863   3.092  0.00  0.00    +0.193 C 
BRANCH   4  11
ATOM      5  C   UNL     1      -1.550  -0.120   1.056  0.00  0.00    +0.044 C 
ATOM      6  C   UNL     1      -0.067  -0.073   0.792  0.00  0.00    -0.045 A 
ATOM      7  C   UNL     1       0.432  -0.494  -0.426  0.00  0.00    +0.004 A 
ATOM      8  C   UNL     1       1.792  -0.451  -0.669  0.00  0.00    +0.000 A 
ATOM      9  C   UNL     1       2.653   0.015   0.307  0.00  0.00    +0.000 A 
ATOM     10  C   UNL     1       2.155   0.437   1.525  0.00  0.00    +0.006 A 
ATOM     11  C   UNL     1       0.794   0.398   1.766  0.00  0.00    -0.015 A 
ENDBRANCH   4  11
BRANCH   4  12
ATOM     12  C   UNL     1       1.302   1.664   3.814  0.00  0.00    +0.239 C 
ATOM     13  O   UNL     1       1.816   1.223   4.819  0.00  0.00    -0.273 OA
ATOM     14  N   UNL     1       1.672   2.872   3.342  0.00  0.00    -0.309 N 
ATOM     15  H   UNL     1       1.211   3.256   2.580  0.00  0.00    +0.149 HD
BRANCH  14  16
ATOM     16  C   UNL     1       2.769   3.602   3.980  0.00  0.00    +0.026 C 
ATOM     17  C   UNL     1       4.050   2.768   3.904  0.00  0.00    +0.031 C 
ATOM     18  C   UNL     1       2.985   4.933   3.256  0.00  0.00    +0.031 C 
ATOM     19  C   UNL     1       2.421   3.869   5.445  0.00  0.00    +0.031 C 
ENDBRANCH  14  16
ENDBRANCH   4  12
ENDBRANCH   1   4
BRANCH   1  20
ATOM     20  C   UNL     1       0.862  -1.352   4.167  0.00  0.00    +0.183 C 
BRANCH  20  21
ATOM     21  C   UNL     1       0.888  -2.317   3.009  0.00  0.00    +0.122 A 
ATOM     22  C   UNL     1       1.759  -2.292   1.984  0.00  0.00    +0.046 A 
ATOM     23  C   UNL     1       1.421  -3.370   1.134  0.00  0.00    +0.041 A 
ATOM     24  C   UNL     1       0.365  -3.989   1.691  0.00  0.00    +0.195 A 
ATOM     25  O   UNL     1       0.050  -3.350   2.829  0.00  0.00    -0.466 OA
ENDBRANCH  20  21
ENDBRANCH   1  20
BRANCH   2  26
ATOM     26  C   UNL     1      -1.708  -1.517   5.359  0.00  0.00    +0.192 C 
BRANCH  26  27
ATOM     27  C   UNL     1      -2.953  -1.159   6.128  0.00  0.00    -0.003 A 
ATOM     28  C   UNL     1      -4.094  -0.765   5.454  0.00  0.00    +0.007 A 
ATOM     29  C   UNL     1      -5.236  -0.437   6.160  0.00  0.00    +0.000 A 
ATOM     30  C   UNL     1      -5.237  -0.502   7.541  0.00  0.00    +0.000 A 
ATOM     31  C   UNL     1      -4.097  -0.896   8.216  0.00  0.00    +0.000 A 
ATOM     32  C   UNL     1      -2.956  -1.229   7.509  0.00  0.00    +0.007 A 
ENDBRANCH  26  27
BRANCH  26  33
ATOM     33  C   UNL     1      -1.946  -2.785   4.581  0.00  0.00    -0.003 A 
ATOM     34  C   UNL     1      -2.440  -2.724   3.292  0.00  0.00    +0.007 A 
ATOM     35  C   UNL     1      -2.658  -3.887   2.578  0.00  0.00    +0.000 A 
ATOM     36  C   UNL     1      -2.382  -5.113   3.154  0.00  0.00    +0.000 A 
ATOM     37  C   UNL     1      -1.886  -5.175   4.443  0.00  0.00    +0.000 A 
ATOM     38  C   UNL     1      -1.664  -4.011   5.155  0.00  0.00    +0.007 A 
ENDBRANCH  26  33
BRANCH  26  39
ATOM     39  O   UNL     1      -0.624  -1.712   6.269  0.00  0.00    -0.371 OA
ATOM     40  H   UNL     1      -0.462  -0.960   6.854  0.00  0.00    +0.212 HD
ENDBRANCH  26  39
ENDBRANCH   2  26
TORSDOF 10
