REMARK  Name = ZINC60221078
REMARK  7 active torsions:
REMARK  status: ('A' for Active; 'I' for Inactive)
REMARK    1  A    between atoms: C_1  and  C_2
REMARK    2  A    between atoms: N_11  and  C_15
REMARK    3  A    between atoms: C_15  and  C_16
REMARK    4  A    between atoms: N_18  and  C_19
REMARK    5  A    between atoms: C_22  and  C_25
REMARK    6  A    between atoms: C_25  and  C_26
REMARK    7  A    between atoms: C_26  and  N_27
REMARK                            x       y       z     vdW  Elec       q    Type
REMARK                         _______ _______ _______ _____ _____    ______ ____
ROOT
ATOM      1  C   UNL     1       3.187   2.889   2.194  0.00  0.00    +0.235 C 
ATOM      2  O   UNL     1       2.341   3.213   1.389  0.00  0.00    -0.274 OA
ATOM      3  N   UNL     1       4.144   3.767   2.557  0.00  0.00    -0.284 N 
ATOM      4  H   UNL     1       4.780   3.532   3.250  0.00  0.00    +0.155 HD
ENDROOT
BRANCH   3   5
ATOM      5  C   UNL     1       4.219   5.017   1.933  0.00  0.00    +0.033 A 
ATOM      6  C   UNL     1       5.455   5.603   1.696  0.00  0.00    +0.023 A 
ATOM      7  C   UNL     1       5.526   6.837   1.079  0.00  0.00    +0.005 A 
ATOM      8  C   UNL     1       4.368   7.489   0.698  0.00  0.00    -0.049 A 
ATOM      9  C   UNL     1       3.135   6.908   0.933  0.00  0.00    +0.005 A 
ATOM     10  C   UNL     1       3.058   5.672   1.544  0.00  0.00    +0.023 A 
BRANCH   8  11
ATOM     11  C   UNL     1       4.449   8.835   0.026  0.00  0.00    +0.016 C 
BRANCH  11  12
ATOM     12  C   UNL     1       4.536   8.644  -1.489  0.00  0.00    -0.074 C 
BRANCH  12  13
ATOM     13  N   UNL     1       4.701   9.952  -2.139  0.00  0.00    +0.381 N 
ATOM     14  C   UNL     1       4.583   9.785  -3.589  0.00  0.00    -0.068 C 
ATOM     15  C   UNL     1       4.378  11.151  -4.255  0.00  0.00    +0.050 C 
ATOM     16  S   UNL     1       5.846  12.174  -3.921  0.00  0.00    -0.164 S 
ATOM     17  C   UNL     1       6.051  12.000  -2.120  0.00  0.00    +0.050 C 
ATOM     18  C   UNL     1       6.006  10.508  -1.774  0.00  0.00    -0.068 C 
ATOM     19  H   UNL     1       3.975  10.574  -1.818  0.00  0.00    -0.082 HD
ENDBRANCH  12  13
ENDBRANCH  11  12
ENDBRANCH   8  11
ENDBRANCH   3   5
BRANCH   1  20
ATOM     20  C   UNL     1       3.170   1.505   2.789  0.00  0.00    +0.214 C 
BRANCH  20  30
ATOM     21  C   UNL     1       0.056   1.408  -0.397  0.00  0.00    +0.010 C 
ATOM     22  C   UNL     1       0.117  -0.120  -0.375  0.00  0.00    +0.018 C 
ATOM     23  C   UNL     1      -1.296  -0.690  -0.516  0.00  0.00    +0.006 C 
ATOM     24  C   UNL     1      -1.236  -2.218  -0.473  0.00  0.00    +0.000 C 
ATOM     25  C   UNL     1      -0.645  -2.670   0.864  0.00  0.00    +0.003 C 
ATOM     26  C   UNL     1       0.771  -2.107   1.010  0.00  0.00    +0.035 C 
ATOM     27  C   UNL     1       0.724  -0.585   0.945  0.00  0.00    +0.115 C 
ATOM     28  C   UNL     1       2.108  -0.006   1.123  0.00  0.00    +0.247 C 
ATOM     29  O   UNL     1       3.075  -0.182   0.412  0.00  0.00    -0.273 OA
ATOM     30  N   UNL     1       2.042   0.750   2.238  0.00  0.00    -0.215 N 
ATOM     31  C   UNL     1       0.818   0.725   2.779  0.00  0.00    +0.310 C 
ATOM     32  O   UNL     1       0.512   1.328   3.789  0.00  0.00    -0.252 OA
ATOM     33  N   UNL     1      -0.037  -0.045   2.079  0.00  0.00    -0.285 N 
ATOM     34  H   UNL     1      -0.971  -0.210   2.283  0.00  0.00    +0.151 HD
ENDBRANCH  20  30
ENDBRANCH   1  20
TORSDOF 6
