REMARK  Name = ZINC13033372
REMARK  10 active torsions:
REMARK  status: ('A' for Active; 'I' for Inactive)
REMARK    1  A    between atoms: C_1  and  C_2
REMARK    2  A    between atoms: C_5  and  C_8
REMARK    3  A    between atoms: C_8  and  N_69
REMARK    4  A    between atoms: C_9  and  C_10
REMARK    5  A    between atoms: C_9  and  N_69
REMARK    6  A    between atoms: C_13  and  C_23
REMARK    7  A    between atoms: C_16  and  C_22
REMARK    8  A    between atoms: C_24  and  C_25
REMARK    9  A    between atoms: C_24  and  N_69
REMARK   10  A    between atoms: N_29  and  C_30
REMARK                            x       y       z     vdW  Elec       q    Type
REMARK                         _______ _______ _______ _____ _____    ______ ____
ROOT
ATOM      1  N   UNL     1      -1.731   4.649   0.275  0.00  0.00    +0.390 N 
ATOM      2  H   UNL     1      -0.722   4.771   0.420  0.00  0.00    -0.080 HD
ENDROOT
BRANCH   1   3
ATOM      3  C   UNL     1      -2.235   5.762  -0.557  0.00  0.00    -0.042 C 
BRANCH   3   8
ATOM      4  C   UNL     1      -0.072  10.722   1.472  0.00  0.00    +0.044 C 
ATOM      5  C   UNL     1      -0.636   9.428   0.943  0.00  0.00    -0.050 A 
ATOM      6  C   UNL     1       0.108   8.655   0.072  0.00  0.00    +0.003 A 
ATOM      7  C   UNL     1      -0.409   7.468  -0.414  0.00  0.00    +0.002 A 
ATOM      8  C   UNL     1      -1.671   7.055  -0.028  0.00  0.00    -0.064 A 
ATOM      9  C   UNL     1      -2.417   7.831   0.840  0.00  0.00    +0.002 A 
ATOM     10  C   UNL     1      -1.897   9.015   1.329  0.00  0.00    +0.003 A 
ENDBRANCH   3   8
ENDBRANCH   1   3
BRANCH   1  11
ATOM     11  C   UNL     1      -2.409   4.652   1.588  0.00  0.00    -0.036 C 
BRANCH  11  12
ATOM     12  C   UNL     1      -1.585   3.846   2.559  0.00  0.00    +0.001 A 
ATOM     13  C   UNL     1      -0.668   4.464   3.343  0.00  0.00    +0.017 A 
ATOM     14  C   UNL     1       0.116   3.652   4.275  0.00  0.00    +0.002 A 
ATOM     15  C   UNL     1       1.077   4.234   5.109  0.00  0.00    -0.041 A 
ATOM     16  C   UNL     1       1.792   3.449   5.968  0.00  0.00    +0.004 A 
ATOM     17  C   UNL     1       1.574   2.079   6.021  0.00  0.00    +0.005 A 
ATOM     18  C   UNL     1       0.632   1.484   5.209  0.00  0.00    -0.026 A 
ATOM     19  C   UNL     1      -0.108   2.264   4.326  0.00  0.00    +0.052 A 
ATOM     20  N   UNL     1      -1.056   1.696   3.502  0.00  0.00    -0.322 N 
ATOM     21  H   UNL     1      -1.210   0.739   3.539  0.00  0.00    +0.169 HD
ATOM     22  C   UNL     1      -1.776   2.450   2.653  0.00  0.00    +0.251 A 
ATOM     23  O   UNL     1      -2.609   1.915   1.943  0.00  0.00    -0.268 OA
ATOM     24  C   UNL     1       0.406  -0.004   5.277  0.00  0.00    +0.046 C 
ATOM     25  C   UNL     1       1.323   5.720   5.060  0.00  0.00    +0.044 C 
ENDBRANCH  11  12
ENDBRANCH   1  11
BRANCH   1  26
ATOM     26  C   UNL     1      -1.965   3.360  -0.411  0.00  0.00    +0.001 C 
BRANCH  26  27
ATOM     27  C   UNL     1      -1.090   3.296  -1.637  0.00  0.00    +0.135 A 
ATOM     28  N   UNL     1      -1.407   3.691  -2.846  0.00  0.00    -0.115 NA
ATOM     29  N   UNL     1      -0.396   3.472  -3.614  0.00  0.00    -0.023 NA
ATOM     30  N   UNL     1       0.560   2.953  -2.925  0.00  0.00    -0.044 NA
ATOM     31  N   UNL     1       0.169   2.823  -1.702  0.00  0.00    -0.228 N 
BRANCH  31  32
ATOM     32  C   UNL     1       0.949   2.271  -0.592  0.00  0.00    +0.111 C 
ATOM     33  C   UNL     1       2.217   3.105  -0.396  0.00  0.00    +0.027 C 
ATOM     34  C   UNL     1       3.033   2.529   0.763  0.00  0.00    +0.002 C 
ATOM     35  C   UNL     1       3.417   1.082   0.446  0.00  0.00    +0.000 C 
ATOM     36  C   UNL     1       2.150   0.248   0.250  0.00  0.00    +0.002 C 
ATOM     37  C   UNL     1       1.334   0.825  -0.909  0.00  0.00    +0.027 C 
ENDBRANCH  31  32
ENDBRANCH  26  27
ENDBRANCH   1  26
TORSDOF 7
