REMARK  Name = ZINC63383501
REMARK  10 active torsions:
REMARK  status: ('A' for Active; 'I' for Inactive)
REMARK    1  A    between atoms: C_1  and  C_2
REMARK    2  A    between atoms: C_2  and  C_3
REMARK    3  A    between atoms: C_3  and  N_4
REMARK    4  A    between atoms: C_5  and  C_7
REMARK    5  A    between atoms: C_7  and  C_9
REMARK    6  A    between atoms: C_7  and  N_14
REMARK    7  A    between atoms: C_9  and  C_11
REMARK    8  A    between atoms: C_9  and  C_12
REMARK    9  A    between atoms: C_12  and  C_13
REMARK   10  A    between atoms: C_15  and  C_17
REMARK                            x       y       z     vdW  Elec       q    Type
REMARK                         _______ _______ _______ _____ _____    ______ ____
ROOT
ATOM      1  C   UNL     1      -5.971  -6.728  -0.471  0.00  0.00    +0.167 C 
ATOM      2  C   UNL     1      -6.963  -6.071   0.508  0.00  0.00    +0.065 C 
ATOM      3  C   UNL     1      -7.593  -7.182   1.311  0.00  0.00    -0.034 C 
ATOM      4  C   UNL     1      -8.872  -7.457   1.549  0.00  0.00    -0.001 A 
ATOM      5  C   UNL     1     -10.107  -6.736   1.201  0.00  0.00    +0.010 A 
ATOM      6  C   UNL     1     -11.271  -7.319   1.593  0.00  0.00    +0.001 A 
ATOM      7  C   UNL     1     -11.329  -8.532   2.288  0.00  0.00    +0.002 A 
ATOM      8  C   UNL     1     -10.243  -9.258   2.655  0.00  0.00    +0.026 A 
ATOM      9  C   UNL     1      -8.961  -8.743   2.303  0.00  0.00    +0.043 A 
ATOM     10  N   UNL     1      -7.772  -9.214   2.540  0.00  0.00    -0.375 N 
ATOM     11  C   UNL     1      -6.788  -8.264   2.018  0.00  0.00    +0.131 C 
ATOM     12  C   UNL     1      -5.870  -8.901   0.977  0.00  0.00    +0.134 C 
ATOM     13  N   UNL     1      -6.058  -8.184  -0.301  0.00  0.00    -0.276 N 
ATOM     14  C   UNL     1      -6.334  -9.086  -1.262  0.00  0.00    +0.248 C 
ATOM     15  O   UNL     1      -6.421  -8.835  -2.449  0.00  0.00    -0.270 OA
ATOM     16  C   UNL     1      -6.515 -10.412  -0.669  0.00  0.00    +0.042 A 
ATOM     17  C   UNL     1      -6.226 -10.330   0.731  0.00  0.00    -0.013 A 
ATOM     18  C   UNL     1      -6.304 -11.417   1.572  0.00  0.00    +0.006 A 
ATOM     19  C   UNL     1      -6.666 -12.634   1.000  0.00  0.00    +0.000 A 
ATOM     20  C   UNL     1      -6.935 -12.753  -0.348  0.00  0.00    +0.001 A 
ATOM     21  C   UNL     1      -6.881 -11.629  -1.249  0.00  0.00    +0.013 A 
ATOM     22  H   UNL     1      -7.571 -10.051   2.986  0.00  0.00    +0.160 HD
ENDROOT
BRANCH   1  24
ATOM     23  N   UNL     1      -4.264  -4.952  -0.245  0.00  0.00    -0.302 N 
ATOM     24  C   UNL     1      -4.571  -6.262  -0.166  0.00  0.00    +0.235 C 
ATOM     25  O   UNL     1      -3.720  -7.066   0.151  0.00  0.00    -0.274 OA
ATOM     26  H   UNL     1      -4.945  -4.309  -0.498  0.00  0.00    +0.150 HD
BRANCH  23  27
ATOM     27  C   UNL     1      -2.903  -4.500   0.052  0.00  0.00    +0.162 C 
BRANCH  27  29
ATOM     28  N   UNL     1      -1.898  -2.538   1.174  0.00  0.00    -0.314 N 
ATOM     29  C   UNL     1      -2.938  -3.059   0.493  0.00  0.00    +0.234 C 
ATOM     30  O   UNL     1      -3.901  -2.369   0.236  0.00  0.00    -0.274 OA
ATOM     31  H   UNL     1      -1.159  -3.107   1.442  0.00  0.00    +0.149 HD
BRANCH  28  32
ATOM     32  C   UNL     1      -1.883  -1.112   1.509  0.00  0.00    +0.104 C 
BRANCH  32  34
ATOM     33  C   UNL     1      -0.586   0.708   2.626  0.00  0.00    +0.005 C 
ATOM     34  C   UNL     1      -0.601  -0.781   2.276  0.00  0.00    +0.015 C 
ENDBRANCH  32  34
ENDBRANCH  28  32
ENDBRANCH  27  29
BRANCH  27  35
ATOM     35  C   UNL     1      -2.038  -4.628  -1.204  0.00  0.00    +0.015 C 
ATOM     36  C   UNL     1      -2.711  -3.892  -2.364  0.00  0.00    +0.010 C 
BRANCH  35  37
ATOM     37  C   UNL     1      -1.875  -6.106  -1.562  0.00  0.00    +0.002 C 
ATOM     38  C   UNL     1      -1.051  -6.806  -0.480  0.00  0.00    +0.004 C 
ENDBRANCH  35  37
ENDBRANCH  27  35
ENDBRANCH  23  27
ENDBRANCH   1  24
TORSDOF 7
