REMARK  Name = ZINC09042844
REMARK  8 active torsions:
REMARK  status: ('A' for Active; 'I' for Inactive)
REMARK    1  A    between atoms: C_1  and  C_2
REMARK    2  A    between atoms: C_2  and  C_3
REMARK    3  A    between atoms: C_6  and  N_9
REMARK    4  A    between atoms: C_12  and  C_18
REMARK    5  A    between atoms: C_13  and  O_17
REMARK    6  A    between atoms: C_15  and  O_16
REMARK    7  A    between atoms: C_32  and  C_33
REMARK    8  A    between atoms: C_32  and  N_58
REMARK                            x       y       z     vdW  Elec       q    Type
REMARK                         _______ _______ _______ _____ _____    ______ ____
ROOT
ATOM      1  N   UNL     1       5.598   4.607   3.172  0.00  0.00    -0.231 N 
ATOM      2  C   UNL     1       4.723   5.333   2.445  0.00  0.00    +0.267 A 
ATOM      3  O   UNL     1       3.752   5.849   2.976  0.00  0.00    -0.267 OA
ATOM      4  C   UNL     1       4.949   5.485   1.071  0.00  0.00    +0.071 A 
ATOM      5  C   UNL     1       6.059   4.879   0.509  0.00  0.00    +0.224 A 
ATOM      6  N   UNL     1       6.894   4.176   1.281  0.00  0.00    -0.161 NA
ATOM      7  C   UNL     1       6.677   4.037   2.570  0.00  0.00    +0.306 A 
ENDROOT
BRANCH   4   8
ATOM      8  C   UNL     1       3.997   6.286   0.221  0.00  0.00    +0.021 C 
ATOM      9  C   UNL     1       2.641   5.620   0.208  0.00  0.00    +0.011 A 
ATOM     10  C   UNL     1       1.486   6.306   0.340  0.00  0.00    -0.022 A 
ATOM     11  C   UNL     1       0.397   5.340   0.283  0.00  0.00    +0.003 A 
ATOM     12  C   UNL     1      -0.995   5.430   0.360  0.00  0.00    +0.010 A 
ATOM     13  C   UNL     1      -1.756   4.300   0.267  0.00  0.00    +0.001 A 
ATOM     14  C   UNL     1      -1.159   3.059   0.095  0.00  0.00    +0.002 A 
ATOM     15  C   UNL     1       0.212   2.946   0.017  0.00  0.00    +0.026 A 
ATOM     16  C   UNL     1       1.007   4.082   0.110  0.00  0.00    +0.047 A 
ATOM     17  N   UNL     1       2.369   4.291   0.069  0.00  0.00    -0.359 N 
ATOM     18  H   UNL     1       3.036   3.595  -0.042  0.00  0.00    +0.166 HD
ATOM     19  C   UNL     1       1.415   7.802   0.508  0.00  0.00    +0.019 C 
ATOM     20  C   UNL     1       2.777   8.387   0.110  0.00  0.00    -0.073 C 
ATOM     21  N   UNL     1       3.840   7.635   0.816  0.00  0.00    +0.388 N 
ATOM     22  H   UNL     1       3.576   7.534   1.803  0.00  0.00    -0.080 HD
BRANCH  21  23
ATOM     23  C   UNL     1       5.117   8.373   0.735  0.00  0.00    -0.081 C 
ATOM     24  C   UNL     1       5.596   8.466  -0.715  0.00  0.00    -0.017 C 
ENDBRANCH  21  23
ENDBRANCH   4   8
BRANCH   1  28
ATOM     25  C   UNL     1       4.995   4.109   7.266  0.00  0.00    -0.047 A 
ATOM     26  C   UNL     1       5.735   5.182   6.803  0.00  0.00    +0.005 A 
ATOM     27  C   UNL     1       5.937   5.349   5.447  0.00  0.00    +0.026 A 
ATOM     28  C   UNL     1       5.396   4.439   4.548  0.00  0.00    +0.054 A 
ATOM     29  C   UNL     1       4.649   3.366   5.016  0.00  0.00    +0.026 A 
ATOM     30  C   UNL     1       4.455   3.202   6.373  0.00  0.00    +0.005 A 
BRANCH  25  32
ATOM     31  C   UNL     1       3.500   4.664   9.165  0.00  0.00    +0.009 C 
ATOM     32  C   UNL     1       4.775   3.930   8.746  0.00  0.00    +0.032 C 
ENDBRANCH  25  32
ENDBRANCH   1  28
BRANCH   7  33
ATOM     33  O   UNL     1       7.542   3.314   3.311  0.00  0.00    -0.479 OA
ATOM     34  H   UNL     1       8.297   2.924   2.849  0.00  0.00    +0.295 HD
ENDBRANCH   7  33
BRANCH   5  35
ATOM     35  O   UNL     1       6.301   5.003  -0.817  0.00  0.00    -0.492 OA
ATOM     36  H   UNL     1       7.099   4.545  -1.115  0.00  0.00    +0.294 HD
ENDBRANCH   5  35
TORSDOF 6
