REMARK  Name = ZINC09861990
REMARK  6 active torsions:
REMARK  status: ('A' for Active; 'I' for Inactive)
REMARK    1  A    between atoms: C_5  and  S_6
REMARK    2  A    between atoms: S_6  and  N_9
REMARK    3  A    between atoms: C_14  and  C_15
REMARK    4  A    between atoms: C_14  and  N_54
REMARK    5  A    between atoms: N_17  and  C_18
REMARK    6  A    between atoms: N_17  and  C_21
REMARK                            x       y       z     vdW  Elec       q    Type
REMARK                         _______ _______ _______ _____ _____    ______ ____
ROOT
ATOM      1  N   UNL     1       4.604  -0.988  -1.598  0.00  0.00    -0.180 NA
ATOM      2  C   UNL     1       4.377  -2.207  -2.389  0.00  0.00    +0.091 C 
ATOM      3  C   UNL     1       3.626  -1.817  -3.672  0.00  0.00    -0.061 C 
ATOM      4  C   UNL     1       4.443   0.464  -3.549  0.00  0.00    -0.061 C 
ATOM      5  C   UNL     1       5.222   0.169  -2.263  0.00  0.00    +0.091 C 
ATOM      6  N   UNL     1       4.398  -0.766  -4.370  0.00  0.00    +0.387 N 
ATOM      7  H   UNL     1       5.357  -1.101  -4.520  0.00  0.00    -0.081 HD
ENDROOT
BRANCH   1   8
ATOM      8  S   UNL     1       4.181  -0.922   0.002  0.00  0.00    +0.067 S 
ATOM      9  O   UNL     1       4.995   0.078   0.597  0.00  0.00    -0.152 OA
ATOM     10  O   UNL     1       4.157  -2.264   0.471  0.00  0.00    -0.152 OA
BRANCH   8  15
ATOM     11  C   UNL     1       1.364  -1.037   0.062  0.00  0.00    +0.038 A 
ATOM     12  C   UNL     1       0.164  -0.355   0.132  0.00  0.00    +0.030 A 
ATOM     13  C   UNL     1       0.180   0.999   0.215  0.00  0.00    +0.080 A 
ATOM     14  S   UNL     1       1.931   1.348   0.196  0.00  0.00    -0.057 S 
ATOM     15  C   UNL     1       2.522  -0.333   0.078  0.00  0.00    +0.144 A 
ATOM     16 CL   UNL     1      -1.154   2.105   0.309  0.00  0.00    -0.076 Cl
ENDBRANCH   8  15
ENDBRANCH   1   8
BRANCH   6  17
ATOM     17  C   UNL     1       3.782  -0.475  -5.681  0.00  0.00    +0.019 C 
BRANCH  17  18
ATOM     18  C   UNL     1       3.946  -1.679  -6.572  0.00  0.00    +0.203 C 
ATOM     19  O   UNL     1       4.582  -2.637  -6.187  0.00  0.00    -0.277 OA
ATOM     20  N   UNL     1       3.385  -1.692  -7.798  0.00  0.00    -0.274 N 
BRANCH  20  21
ATOM     21  C   UNL     1       3.431  -2.848  -8.572  0.00  0.00    +0.010 C 
ATOM     22  C   UNL     1       2.954  -2.793  -9.785  0.00  0.00    -0.008 C 
ATOM     23  C   UNL     1       2.929  -3.959 -10.729  0.00  0.00    +0.029 C 
ATOM     24  C   UNL     1       3.892  -5.047 -10.249  0.00  0.00    +0.004 C 
ATOM     25  C   UNL     1       3.618  -5.319  -8.765  0.00  0.00    +0.006 C 
ATOM     26  C   UNL     1       4.033  -4.081  -7.964  0.00  0.00    +0.051 C 
ENDBRANCH  20  21
BRANCH  20  27
ATOM     27  C   UNL     1       2.726  -0.490  -8.315  0.00  0.00    +0.081 C 
ATOM     28  C   UNL     1       3.147   0.006  -9.700  0.00  0.00    +0.025 C 
ATOM     29  C   UNL     1       3.573   0.777  -8.448  0.00  0.00    +0.025 C 
ENDBRANCH  20  27
ENDBRANCH  17  18
ENDBRANCH   6  17
TORSDOF 6
