REMARK  Name = ZINC06198234
REMARK  8 active torsions:
REMARK  status: ('A' for Active; 'I' for Inactive)
REMARK    1  A    between atoms: C_1  and  C_2
REMARK    2  A    between atoms: C_2  and  C_3
REMARK    3  A    between atoms: C_10  and  C_15
REMARK    4  A    between atoms: C_15  and  C_17
REMARK    5  A    between atoms: C_15  and  N_76
REMARK    6  A    between atoms: N_21  and  C_22
REMARK    7  A    between atoms: C_30  and  C_33
REMARK    8  A    between atoms: C_33  and  C_34
REMARK                            x       y       z     vdW  Elec       q    Type
REMARK                         _______ _______ _______ _____ _____    ______ ____
ROOT
ATOM      1  C   UNL     1       6.159  -0.614  -0.058  0.00  0.00    +0.039 C 
ENDROOT
BRANCH   1   9
ATOM      2  C   UNL     1       0.002  -0.004   0.002  0.00  0.00    -0.047 A 
ATOM      3  C   UNL     1      -0.017   1.384   0.010  0.00  0.00    +0.005 A 
ATOM      4  C   UNL     1       1.159   2.104   0.002  0.00  0.00    +0.026 A 
ATOM      5  C   UNL     1       2.378   1.434  -0.013  0.00  0.00    +0.049 A 
ATOM      6  C   UNL     1       2.393   0.026  -0.020  0.00  0.00    -0.001 A 
ATOM      7  C   UNL     1       1.187  -0.683  -0.013  0.00  0.00    +0.013 A 
ATOM      8  C   UNL     1       3.681  -0.669  -0.035  0.00  0.00    +0.017 A 
ATOM      9  C   UNL     1       4.817   0.071  -0.042  0.00  0.00    +0.011 A 
ATOM     10  C   UNL     1       4.747   1.480  -0.034  0.00  0.00    +0.251 A 
ATOM     11  O   UNL     1       5.780   2.127  -0.040  0.00  0.00    -0.268 OA
ATOM     12  N   UNL     1       3.569   2.128  -0.020  0.00  0.00    -0.322 N 
ATOM     13  H   UNL     1       3.556   3.128  -0.014  0.00  0.00    +0.169 HD
BRANCH   2  15
ATOM     14  C   UNL     1      -1.750  -1.020  -1.429  0.00  0.00    +0.009 C 
ATOM     15  C   UNL     1      -1.297  -0.769   0.010  0.00  0.00    +0.032 C 
ENDBRANCH   2  15
ENDBRANCH   1   9
BRANCH   1  21
ATOM     16  C   UNL     1       6.218  -0.308  -2.459  0.00  0.00    -0.077 C 
ATOM     17  C   UNL     1       7.000   0.344  -3.601  0.00  0.00    -0.015 C 
ATOM     18  C   UNL     1       8.388  -0.296  -3.693  0.00  0.00    -0.010 C 
ATOM     19  C   UNL     1       9.107  -0.132  -2.351  0.00  0.00    -0.015 C 
ATOM     20  C   UNL     1       8.263  -0.770  -1.245  0.00  0.00    -0.077 C 
ATOM     21  N   UNL     1       6.950  -0.093  -1.192  0.00  0.00    +0.389 N 
ATOM     22  H   UNL     1       7.099   0.914  -1.061  0.00  0.00    -0.080 HD
BRANCH  18  23
ATOM     23  C   UNL     1       9.197   0.392  -4.795  0.00  0.00    +0.038 C 
BRANCH  23  24
ATOM     24  C   UNL     1       8.554   0.125  -6.131  0.00  0.00    -0.047 A 
ATOM     25  C   UNL     1       8.931  -0.980  -6.872  0.00  0.00    +0.003 A 
ATOM     26  C   UNL     1       8.338  -1.226  -8.096  0.00  0.00    +0.000 A 
ATOM     27  C   UNL     1       7.375  -0.363  -8.584  0.00  0.00    +0.000 A 
ATOM     28  C   UNL     1       7.002   0.745  -7.846  0.00  0.00    +0.000 A 
ATOM     29  C   UNL     1       7.592   0.989  -6.620  0.00  0.00    +0.003 A 
ENDBRANCH  23  24
ENDBRANCH  18  23
ENDBRANCH   1  21
BRANCH   1  30
ATOM     30  C   UNL     1       6.891  -0.314   1.225  0.00  0.00    +0.143 A 
ATOM     31  N   UNL     1       7.481   0.812   1.545  0.00  0.00    -0.115 NA
ATOM     32  N   UNL     1       7.990   0.675   2.720  0.00  0.00    -0.023 NA
ATOM     33  N   UNL     1       7.748  -0.513   3.155  0.00  0.00    -0.044 NA
ATOM     34  N   UNL     1       7.072  -1.153   2.262  0.00  0.00    -0.227 N 
BRANCH  34  35
ATOM     35  C   UNL     1       6.593  -2.534   2.358  0.00  0.00    +0.111 C 
ATOM     36  C   UNL     1       5.656  -2.666   3.561  0.00  0.00    +0.027 C 
ATOM     37  C   UNL     1       5.155  -4.108   3.661  0.00  0.00    +0.002 C 
ATOM     38  C   UNL     1       6.347  -5.051   3.837  0.00  0.00    +0.000 C 
ATOM     39  C   UNL     1       7.283  -4.919   2.634  0.00  0.00    +0.002 C 
ATOM     40  C   UNL     1       7.784  -3.477   2.533  0.00  0.00    +0.027 C 
ENDBRANCH  34  35
ENDBRANCH   1  30
TORSDOF 7
