REMARK  Name = ZINC38592275
REMARK  4 active torsions:
REMARK  status: ('A' for Active; 'I' for Inactive)
REMARK    1  A    between atoms: C_1  and  O_2
REMARK    2  A    between atoms: O_2  and  C_3
REMARK    3  A    between atoms: C_6  and  N_9
REMARK    4  A    between atoms: C_13  and  C_14
REMARK                            x       y       z     vdW  Elec       q    Type
REMARK                         _______ _______ _______ _____ _____    ______ ____
ROOT
ATOM      1  N   UNL     1      -4.901  -2.576  -0.293  0.00  0.00    -0.216 N 
ATOM      2  C   UNL     1      -4.946  -3.925  -0.324  0.00  0.00    +0.261 C 
ATOM      3  O   UNL     1      -3.940  -4.584  -0.508  0.00  0.00    -0.269 OA
ATOM      4  C   UNL     1      -6.264  -4.575  -0.126  0.00  0.00    +0.101 C 
ATOM      5  C   UNL     1      -6.401  -5.920  -0.142  0.00  0.00    +0.037 C 
ATOM      6  C   UNL     1      -7.424  -3.682   0.089  0.00  0.00    +0.274 C 
ATOM      7  O   UNL     1      -8.660  -4.187   0.278  0.00  0.00    -0.268 OA
ATOM      8  N   UNL     1      -7.219  -2.380   0.093  0.00  0.00    -0.153 NA
ATOM      9  C   UNL     1      -6.009  -1.851  -0.085  0.00  0.00    +0.171 C 
ATOM     10  S   UNL     1      -5.862  -0.145  -0.054  0.00  0.00    -0.016 S 
ENDROOT
BRANCH   5  11
ATOM     11  C   UNL     1      -5.178  -6.801  -0.150  0.00  0.00    +0.199 C 
ATOM     12  N   UNL     1      -5.098  -7.541  -1.416  0.00  0.00    -0.360 N 
ATOM     13  C   UNL     1      -5.143  -8.810  -1.130  0.00  0.00    +0.060 A 
ATOM     14  C   UNL     1      -5.105 -10.023  -1.959  0.00  0.00    +0.027 A 
ATOM     15  C   UNL     1      -5.172 -11.233  -1.369  0.00  0.00    +0.002 A 
ATOM     16  C   UNL     1      -5.279 -11.394   0.024  0.00  0.00    +0.002 A 
ATOM     17  C   UNL     1      -5.322 -10.349   0.874  0.00  0.00    +0.027 A 
ATOM     18  C   UNL     1      -5.256  -8.980   0.345  0.00  0.00    +0.060 A 
ATOM     19  N   UNL     1      -5.276  -7.809   0.913  0.00  0.00    -0.360 N 
ATOM     20  H   UNL     1      -5.025  -7.155  -2.303  0.00  0.00    +0.162 HD
ATOM     21  H   UNL     1      -5.343  -7.634   1.865  0.00  0.00    +0.162 HD
ENDBRANCH   5  11
BRANCH   1  25
ATOM     22  C   UNL     1      -1.250  -0.633  -0.836  0.00  0.00    +0.120 A 
ATOM     23  C   UNL     1      -1.667  -0.982   0.441  0.00  0.00    +0.047 A 
ATOM     24  C   UNL     1      -2.876  -1.625   0.621  0.00  0.00    +0.027 A 
ATOM     25  C   UNL     1      -3.674  -1.922  -0.475  0.00  0.00    +0.044 A 
ATOM     26  C   UNL     1      -3.256  -1.573  -1.753  0.00  0.00    +0.027 A 
ATOM     27  C   UNL     1      -2.050  -0.925  -1.931  0.00  0.00    +0.047 A 
BRANCH  22  29
ATOM     28  C   UNL     1       0.712   0.269   0.159  0.00  0.00    +0.277 C 
ATOM     29  O   UNL     1      -0.060   0.000  -1.012  0.00  0.00    -0.495 OA
ENDBRANCH  22  29
ENDBRANCH   1  25
TORSDOF 3
