REMARK  Name = ZINC09222273
REMARK  7 active torsions:
REMARK  status: ('A' for Active; 'I' for Inactive)
REMARK    1  A    between atoms: C_1  and  C_2
REMARK    2  A    between atoms: C_14  and  C_35
REMARK    3  A    between atoms: N_16  and  C_17
REMARK    4  A    between atoms: C_17  and  C_19
REMARK    5  A    between atoms: C_23  and  N_25
REMARK    6  A    between atoms: N_28  and  C_29
REMARK    7  A    between atoms: C_29  and  C_30
REMARK                            x       y       z     vdW  Elec       q    Type
REMARK                         _______ _______ _______ _____ _____    ______ ____
ROOT
ATOM      1  C   UNL     1       1.183  -4.516  -1.678  0.00  0.00    +0.047 C 
ATOM      2  C   UNL     1       2.488  -3.836  -1.352  0.00  0.00    -0.007 A 
ATOM      3  C   UNL     1       3.661  -4.524  -1.443  0.00  0.00    +0.008 A 
ATOM      4  C   UNL     1       4.867  -3.879  -1.136  0.00  0.00    +0.019 A 
ATOM      5  C   UNL     1       4.863  -2.583  -0.752  0.00  0.00    +0.096 A 
ATOM      6  N   UNL     1       3.695  -1.887  -0.658  0.00  0.00    -0.267 N 
ATOM      7  C   UNL     1       2.502  -2.486  -0.951  0.00  0.00    +0.145 A 
ATOM      8  N   UNL     1       1.343  -1.832  -0.870  0.00  0.00    -0.211 NA
ATOM      9  C   UNL     1       1.271  -0.562  -0.500  0.00  0.00    +0.150 A 
ATOM     10  C   UNL     1       2.463   0.132  -0.179  0.00  0.00    +0.084 A 
ATOM     11  C   UNL     1       3.732  -0.590  -0.271  0.00  0.00    +0.268 A 
ATOM     12  O   UNL     1       4.787  -0.043  -0.007  0.00  0.00    -0.267 OA
ATOM     13  C   UNL     1       2.414   1.473   0.213  0.00  0.00    +0.039 A 
ATOM     14  C   UNL     1       1.177   2.112   0.283  0.00  0.00    +0.093 A 
ATOM     15  C   UNL     1      -0.001   1.396  -0.043  0.00  0.00    +0.146 A 
ATOM     16  N   UNL     1      -1.182   2.007   0.018  0.00  0.00    -0.158 NA
ATOM     17  N   UNL     1       0.064   0.084  -0.425  0.00  0.00    -0.303 N 
ENDROOT
BRANCH  16  18
ATOM     18  C   UNL     1      -1.306   3.156   0.689  0.00  0.00    +0.269 C 
ATOM     19  O   UNL     1      -0.933   3.229   1.847  0.00  0.00    -0.268 OA
BRANCH  18  20
ATOM     20  C   UNL     1      -1.895   4.341   0.025  0.00  0.00    +0.041 A 
ATOM     21  C   UNL     1      -2.317   4.263  -1.303  0.00  0.00    +0.013 A 
ATOM     22  C   UNL     1      -2.870   5.369  -1.914  0.00  0.00    +0.003 A 
ATOM     23  C   UNL     1      -2.997   6.557  -1.217  0.00  0.00    +0.033 A 
ATOM     24  C   UNL     1      -2.575   6.643   0.098  0.00  0.00    +0.127 A 
ATOM     25  C   UNL     1      -2.025   5.542   0.722  0.00  0.00    +0.045 A 
BRANCH  24  26
ATOM     26  N   UNL     1      -2.714   7.918   0.836  0.00  0.00    +0.056 N 
ATOM     27  O   UNL     1      -2.343   7.995   1.994  0.00  0.00    -0.126 OA
ATOM     28  O   UNL     1      -3.199   8.891   0.286  0.00  0.00    -0.126 OA
ENDBRANCH  24  26
ENDBRANCH  18  20
ENDBRANCH  16  18
BRANCH  14  29
ATOM     29  C   UNL     1       1.098   3.485   0.683  0.00  0.00    +0.103 C 
ATOM     30  N   UNL     1       1.035   4.574   1.000  0.00  0.00    -0.191 NA
ENDBRANCH  14  29
BRANCH  17  31
ATOM     31  C   UNL     1      -1.167  -0.637  -0.758  0.00  0.00    +0.199 C 
BRANCH  31  32
ATOM     32  C   UNL     1      -1.458  -0.482  -2.228  0.00  0.00    +0.125 A 
ATOM     33  C   UNL     1      -1.028  -1.300  -3.206  0.00  0.00    +0.046 A 
ATOM     34  C   UNL     1      -1.531  -0.784  -4.422  0.00  0.00    +0.041 A 
ATOM     35  C   UNL     1      -2.239   0.317  -4.115  0.00  0.00    +0.195 A 
ATOM     36  O   UNL     1      -2.197   0.492  -2.784  0.00  0.00    -0.466 OA
ENDBRANCH  31  32
ENDBRANCH  17  31
TORSDOF 6
