REMARK  Name = ZINC20617018
REMARK  8 active torsions:
REMARK  status: ('A' for Active; 'I' for Inactive)
REMARK    1  A    between atoms: C_1  and  C_2
REMARK    2  A    between atoms: C_7  and  N_8
REMARK    3  A    between atoms: C_9  and  C_11
REMARK    4  A    between atoms: N_14  and  C_16
REMARK    5  A    between atoms: C_16  and  C_18
REMARK    6  A    between atoms: C_16  and  C_19
REMARK    7  A    between atoms: N_21  and  C_22
REMARK    8  A    between atoms: C_27  and  C_28
REMARK                            x       y       z     vdW  Elec       q    Type
REMARK                         _______ _______ _______ _____ _____    ______ ____
ROOT
ATOM      1  C   UNL     1       1.222   1.617  -0.081  0.00  0.00    +0.147 A 
ATOM      2  C   UNL     1       2.143   0.542  -0.114  0.00  0.00    +0.054 A 
ATOM      3  C   UNL     1       1.389  -0.581  -0.097  0.00  0.00    +0.110 A 
ATOM      4  N   UNL     1       0.095  -0.194  -0.057  0.00  0.00    -0.259 N 
ATOM      5  N   UNL     1       0.015   1.088  -0.048  0.00  0.00    -0.166 NA
ENDROOT
BRANCH   1   7
ATOM      6  N   UNL     1       0.564   3.973  -0.050  0.00  0.00    -0.280 N 
ATOM      7  C   UNL     1       1.551   3.056  -0.084  0.00  0.00    +0.268 C 
ATOM      8  O   UNL     1       2.713   3.414  -0.117  0.00  0.00    -0.268 OA
ATOM      9  H   UNL     1      -0.486   3.653  -0.112  0.00  0.00    +0.155 HD
BRANCH   6  16
ATOM     10  C   UNL     1      -1.312   5.869  -1.042  0.00  0.00    +0.045 C 
ATOM     11  C   UNL     1      -0.012   6.291  -0.406  0.00  0.00    -0.029 A 
ATOM     12  C   UNL     1       0.295   7.632  -0.287  0.00  0.00    +0.006 A 
ATOM     13  C   UNL     1       1.490   8.021   0.290  0.00  0.00    +0.020 A 
ATOM     14  C   UNL     1       2.379   7.068   0.756  0.00  0.00    +0.043 A 
ATOM     15  C   UNL     1       2.075   5.724   0.645  0.00  0.00    +0.043 A 
ATOM     16  C   UNL     1       0.875   5.332   0.065  0.00  0.00    +0.038 A 
ATOM     17 CL   UNL     1       3.878   7.561   1.480  0.00  0.00    -0.083 Cl
ENDBRANCH   6  16
ENDBRANCH   1   7
BRANCH   4  18
ATOM     18  C   UNL     1      -1.051  -1.106  -0.027  0.00  0.00    +0.190 C 
ATOM     19  C   UNL     1      -0.691  -2.352   0.784  0.00  0.00    +0.042 C 
BRANCH  18  20
ATOM     20  C   UNL     1      -1.410  -1.508  -1.434  0.00  0.00    +0.242 C 
ATOM     21  O   UNL     1      -0.771  -1.077  -2.370  0.00  0.00    -0.273 OA
ATOM     22  N   UNL     1      -2.441  -2.348  -1.652  0.00  0.00    -0.283 N 
ATOM     23  H   UNL     1      -3.070  -2.678  -0.812  0.00  0.00    +0.155 HD
BRANCH  22  24
ATOM     24  C   UNL     1      -2.713  -2.801  -2.948  0.00  0.00    +0.038 A 
ATOM     25  C   UNL     1      -2.503  -1.964  -4.036  0.00  0.00    +0.043 A 
ATOM     26  C   UNL     1      -2.766  -2.416  -5.315  0.00  0.00    +0.043 A 
ATOM     27  C   UNL     1      -3.249  -3.698  -5.511  0.00  0.00    +0.020 A 
ATOM     28  C   UNL     1      -3.464  -4.531  -4.429  0.00  0.00    +0.006 A 
ATOM     29  C   UNL     1      -3.197  -4.087  -3.149  0.00  0.00    -0.029 A 
ATOM     30  C   UNL     1      -3.433  -4.996  -1.970  0.00  0.00    +0.045 C 
ATOM     31 CL   UNL     1      -2.497  -1.373  -6.676  0.00  0.00    -0.083 Cl
ENDBRANCH  22  24
ENDBRANCH  18  20
ENDBRANCH   4  18
TORSDOF 5
