REMARK  Name = ZINC13501216
REMARK  12 active torsions:
REMARK  status: ('A' for Active; 'I' for Inactive)
REMARK    1  A    between atoms: C_1  and  C_2
REMARK    2  A    between atoms: C_2  and  C_3
REMARK    3  A    between atoms: C_3  and  C_5
REMARK    4  A    between atoms: C_3  and  N_68
REMARK    5  A    between atoms: N_9  and  C_10
REMARK    6  A    between atoms: C_10  and  C_11
REMARK    7  A    between atoms: C_11  and  O_13
REMARK    8  A    between atoms: O_13  and  C_14
REMARK    9  A    between atoms: C_14  and  C_15
REMARK   10  A    between atoms: C_16  and  C_17
REMARK   11  A    between atoms: C_16  and  N_68
REMARK   12  A    between atoms: C_32  and  N_68
REMARK                            x       y       z     vdW  Elec       q    Type
REMARK                         _______ _______ _______ _____ _____    ______ ____
ROOT
ATOM      1  N   UNL     1      -1.186   4.746   0.408  0.00  0.00    +0.391 N 
ATOM      2  H   UNL     1      -0.927   5.740   0.411  0.00  0.00    -0.080 HD
ENDROOT
BRANCH   1   3
ATOM      3  C   UNL     1      -2.594   4.618  -0.022  0.00  0.00    -0.067 C 
ATOM      4  C   UNL     1      -3.470   5.476   0.893  0.00  0.00    -0.015 C 
ATOM      5  C   UNL     1      -4.930   5.371   0.446  0.00  0.00    -0.002 C 
ATOM      6  C   UNL     1      -5.385   3.913   0.525  0.00  0.00    -0.000 C 
ATOM      7  C   UNL     1      -4.508   3.055  -0.390  0.00  0.00    -0.002 C 
ATOM      8  C   UNL     1      -3.049   3.159   0.058  0.00  0.00    -0.015 C 
ENDBRANCH   1   3
BRANCH   1   9
ATOM      9  C   UNL     1      -1.022   4.203   1.773  0.00  0.00    +0.003 C 
BRANCH   9  10
ATOM     10  C   UNL     1      -1.004   2.697   1.742  0.00  0.00    +0.139 A 
ATOM     11  N   UNL     1      -0.500   1.939   0.799  0.00  0.00    -0.115 NA
ATOM     12  N   UNL     1      -0.678   0.709   1.139  0.00  0.00    -0.023 NA
ATOM     13  N   UNL     1      -1.284   0.662   2.274  0.00  0.00    -0.043 NA
ATOM     14  N   UNL     1      -1.497   1.868   2.681  0.00  0.00    -0.220 N 
BRANCH  14  15
ATOM     15  C   UNL     1      -2.156   2.261   3.930  0.00  0.00    +0.267 C 
BRANCH  15  16
ATOM     16  C   UNL     1      -3.650   2.226   3.742  0.00  0.00    +0.329 C 
ATOM     17  O   UNL     1      -4.120   1.797   2.715  0.00  0.00    -0.249 OA
BRANCH  16  18
ATOM     18  O   UNL     1      -4.460   2.672   4.715  0.00  0.00    -0.464 OA
BRANCH  18  19
ATOM     19  C   UNL     1      -5.889   2.608   4.465  0.00  0.00    +0.229 C 
ATOM     20  C   UNL     1      -6.644   3.156   5.678  0.00  0.00    +0.048 C 
ENDBRANCH  18  19
ENDBRANCH  16  18
ENDBRANCH  15  16
ENDBRANCH  14  15
ENDBRANCH   9  10
BRANCH   9  22
ATOM     21  C   UNL     1       0.271   6.247   2.400  0.00  0.00    +0.002 C 
ATOM     22  C   UNL     1       0.297   4.718   2.351  0.00  0.00    -0.011 C 
ENDBRANCH   9  22
ENDBRANCH   1   9
BRANCH   1  23
ATOM     23  C   UNL     1      -0.303   4.023  -0.532  0.00  0.00    -0.036 C 
BRANCH  23  24
ATOM     24  C   UNL     1      -0.171   4.837  -1.794  0.00  0.00    +0.001 A 
ATOM     25  C   UNL     1       0.852   5.719  -1.925  0.00  0.00    +0.017 A 
ATOM     26  C   UNL     1       0.957   6.489  -3.164  0.00  0.00    +0.002 A 
ATOM     27  C   UNL     1       1.994   7.410  -3.356  0.00  0.00    +0.059 A 
ATOM     28  C   UNL     1       2.065   8.124  -4.532  0.00  0.00    +0.167 A 
ATOM     29  C   UNL     1       1.104   7.931  -5.534  0.00  0.00    +0.168 A 
ATOM     30  C   UNL     1       0.075   7.025  -5.351  0.00  0.00    +0.075 A 
ATOM     31  C   UNL     1      -0.010   6.298  -4.170  0.00  0.00    +0.053 A 
ATOM     32  N   UNL     1      -1.030   5.389  -3.971  0.00  0.00    -0.322 N 
ATOM     33  H   UNL     1      -1.695   5.259  -4.665  0.00  0.00    +0.169 HD
ATOM     34  C   UNL     1      -1.114   4.683  -2.830  0.00  0.00    +0.251 A 
ATOM     35  O   UNL     1      -2.028   3.890  -2.689  0.00  0.00    -0.268 OA
ATOM     36  O   UNL     1       1.403   8.751  -6.583  0.00  0.00    -0.453 OA
ATOM     37  C   UNL     1       2.774   9.142  -6.389  0.00  0.00    +0.466 C 
ATOM     38  O   UNL     1       2.957   9.064  -4.963  0.00  0.00    -0.453 OA
ENDBRANCH  23  24
ENDBRANCH   1  23
TORSDOF 10
