REMARK  Name = ZINC32594701
REMARK  10 active torsions:
REMARK  status: ('A' for Active; 'I' for Inactive)
REMARK    1  A    between atoms: C_1  and  C_2
REMARK    2  A    between atoms: C_2  and  O_3
REMARK    3  A    between atoms: O_3  and  C_4
REMARK    4  A    between atoms: C_4  and  C_6
REMARK    5  A    between atoms: C_9  and  N_12
REMARK    6  A    between atoms: C_17  and  C_31
REMARK    7  A    between atoms: C_31  and  O_33
REMARK    8  A    between atoms: O_33  and  C_34
REMARK    9  A    between atoms: C_34  and  C_35
REMARK   10  A    between atoms: C_34  and  C_36
REMARK                            x       y       z     vdW  Elec       q    Type
REMARK                         _______ _______ _______ _____ _____    ______ ____
ROOT
ATOM      1  N   UNL     1      -6.707  -4.053   0.193  0.00  0.00    -0.209 N 
ATOM      2  C   UNL     1      -6.929  -5.389   0.155  0.00  0.00    +0.232 C 
ATOM      3  O   UNL     1      -6.103  -6.261  -0.006  0.00  0.00    -0.274 OA
ATOM      4  C   UNL     1      -8.401  -5.567   0.355  0.00  0.00    +0.117 C 
ATOM      5  C   UNL     1      -9.041  -6.837  -0.060  0.00  0.00    +0.150 C 
ATOM      6  C   UNL     1      -9.471  -6.908  -1.480  0.00  0.00    +0.039 A 
ATOM      7  C   UNL     1      -9.547  -5.917  -2.387  0.00  0.00    +0.088 A 
ATOM      8  N   UNL     1     -10.018  -6.298  -3.623  0.00  0.00    -0.311 N 
ATOM      9  H   UNL     1     -10.120  -5.638  -4.327  0.00  0.00    +0.170 HD
ATOM     10  C   UNL     1     -10.335  -7.584  -3.857  0.00  0.00    +0.289 A 
ATOM     11  O   UNL     1     -10.755  -8.085  -4.885  0.00  0.00    -0.260 OA
ATOM     12  S   UNL     1     -10.014  -8.334  -2.386  0.00  0.00    -0.030 S 
ATOM     13  S   UNL     1      -9.046  -4.263  -1.988  0.00  0.00    -0.093 S 
ATOM     14  C   UNL     1      -8.995  -4.257  -0.180  0.00  0.00    +0.152 C 
ATOM     15  C   UNL     1      -7.834  -3.314   0.188  0.00  0.00    +0.240 C 
ATOM     16  O   UNL     1      -7.918  -2.128   0.427  0.00  0.00    -0.274 OA
ENDROOT
BRANCH   1  20
ATOM     17  C   UNL     1      -2.890  -2.382   0.328  0.00  0.00    +0.059 A 
ATOM     18  C   UNL     1      -4.017  -1.556   0.325  0.00  0.00    +0.017 A 
ATOM     19  C   UNL     1      -5.276  -2.111   0.280  0.00  0.00    +0.025 A 
ATOM     20  C   UNL     1      -5.428  -3.493   0.238  0.00  0.00    +0.044 A 
ATOM     21  C   UNL     1      -4.309  -4.319   0.241  0.00  0.00    +0.025 A 
ATOM     22  C   UNL     1      -3.046  -3.771   0.280  0.00  0.00    +0.017 A 
BRANCH  17  23
ATOM     23  C   UNL     1      -1.540  -1.791   0.377  0.00  0.00    +0.339 C 
ATOM     24  O   UNL     1      -0.561  -2.511   0.374  0.00  0.00    -0.245 OA
BRANCH  23  25
ATOM     25  O   UNL     1      -1.391  -0.453   0.423  0.00  0.00    -0.461 OA
BRANCH  25  27
ATOM     26  C   UNL     1      -0.087   1.579   0.517  0.00  0.00    +0.048 C 
ATOM     27  C   UNL     1      -0.055   0.051   0.468  0.00  0.00    +0.229 C 
ENDBRANCH  25  27
ENDBRANCH  23  25
ENDBRANCH  17  23
ENDBRANCH   1  20
BRANCH   5  28
ATOM     28  C   UNL     1      -8.066  -7.959   0.191  0.00  0.00    +0.316 C 
ATOM     29  O   UNL     1      -7.383  -8.379  -0.713  0.00  0.00    -0.250 OA
BRANCH  28  30
ATOM     30  O   UNL     1      -7.958  -8.493   1.418  0.00  0.00    -0.461 OA
BRANCH  30  31
ATOM     31  C   UNL     1      -7.015  -9.553   1.583  0.00  0.00    +0.170 C 
ATOM     32  C   UNL     1      -6.474  -9.536   3.014  0.00  0.00    +0.052 C 
ATOM     33  C   UNL     1      -7.702 -10.894   1.314  0.00  0.00    +0.052 C 
ENDBRANCH  30  31
ENDBRANCH  28  30
ENDBRANCH   5  28
TORSDOF 7
