REMARK  Name = ZINC63829990
REMARK  5 active torsions:
REMARK  status: ('A' for Active; 'I' for Inactive)
REMARK    1  A    between atoms: C_1  and  C_2
REMARK    2  A    between atoms: C_15  and  C_17
REMARK    3  A    between atoms: C_17  and  S_18
REMARK    4  A    between atoms: S_18  and  C_19
REMARK    5  A    between atoms: C_22  and  C_24
REMARK                            x       y       z     vdW  Elec       q    Type
REMARK                         _______ _______ _______ _____ _____    ______ ____
ROOT
ATOM      1  C   UNL     1       0.762  -1.460   3.464  0.00  0.00    +0.175 C 
ENDROOT
BRANCH   1  15
ATOM      2  C   UNL     1      -0.019   1.526   0.010  0.00  0.00    +0.029 C 
ATOM      3  C   UNL     1       0.002  -0.004   0.002  0.00  0.00    +0.087 C 
ATOM      4  C   UNL     1       0.715  -0.496  -1.259  0.00  0.00    +0.118 C 
ATOM      5  C   UNL     1       1.097  -1.944  -1.106  0.00  0.00    +0.219 C 
ATOM      6  O   UNL     1       0.459  -2.800  -1.683  0.00  0.00    -0.275 OA
ATOM      7  N   UNL     1       2.146  -2.297  -0.332  0.00  0.00    -0.284 N 
ATOM      8  C   UNL     1       2.832  -1.333   0.416  0.00  0.00    +0.055 A 
ATOM      9  C   UNL     1       4.214  -1.255   0.377  0.00  0.00    +0.025 A 
ATOM     10  C   UNL     1       4.871  -0.309   1.143  0.00  0.00    +0.002 A 
ATOM     11  C   UNL     1       4.154   0.557   1.947  0.00  0.00    +0.002 A 
ATOM     12  C   UNL     1       2.773   0.492   1.984  0.00  0.00    +0.025 A 
ATOM     13  C   UNL     1       2.107  -0.445   1.211  0.00  0.00    +0.058 A 
ATOM     14  N   UNL     1       0.707  -0.488   1.190  0.00  0.00    -0.266 N 
ATOM     15  C   UNL     1       0.022  -0.966   2.248  0.00  0.00    +0.230 C 
ATOM     16  O   UNL     1      -1.190  -0.998   2.221  0.00  0.00    -0.274 OA
ATOM     17  H   UNL     1       2.425  -3.225  -0.293  0.00  0.00    +0.155 HD
ENDBRANCH   1  15
BRANCH   1  18
ATOM     18  S   UNL     1      -0.430  -2.034   4.705  0.00  0.00    -0.056 S 
BRANCH  18  19
ATOM     19  C   UNL     1       0.577  -2.573   6.047  0.00  0.00    +0.278 A 
ATOM     20  N   UNL     1       1.900  -2.539   6.095  0.00  0.00    -0.101 NA
ATOM     21  N   UNL     1       2.299  -3.010   7.224  0.00  0.00    -0.107 NA
ATOM     22  C   UNL     1       1.246  -3.365   7.944  0.00  0.00    +0.248 A 
ATOM     23  O   UNL     1       0.142  -3.087   7.210  0.00  0.00    -0.411 OA
BRANCH  22  24
ATOM     24  C   UNL     1       1.270  -3.920   9.232  0.00  0.00    +0.044 C 
ATOM     25  C   UNL     1       2.395  -4.202  10.008  0.00  0.00    +0.008 A 
ATOM     26  C   UNL     1       3.778  -4.038   9.778  0.00  0.00    +0.010 A 
ATOM     27  C   UNL     1       4.668  -4.409  10.733  0.00  0.00    +0.001 A 
ATOM     28  C   UNL     1       4.251  -4.954  11.950  0.00  0.00    +0.002 A 
ATOM     29  C   UNL     1       2.939  -5.140  12.238  0.00  0.00    +0.026 A 
ATOM     30  C   UNL     1       1.950  -4.776  11.288  0.00  0.00    +0.043 A 
ATOM     31  N   UNL     1       0.634  -4.854  11.326  0.00  0.00    -0.380 N 
ATOM     32  C   UNL     1       0.082  -4.332  10.072  0.00  0.00    +0.154 C 
ATOM     33  H   UNL     1       0.114  -5.199  12.068  0.00  0.00    +0.160 HD
ENDBRANCH  22  24
ENDBRANCH  18  19
ENDBRANCH   1  18
TORSDOF 4
