REMARK  Name = ZINC39664161
REMARK  13 active torsions:
REMARK  status: ('A' for Active; 'I' for Inactive)
REMARK    1  A    between atoms: C_1  and  C_2
REMARK    2  A    between atoms: C_2  and  C_3
REMARK    3  A    between atoms: C_3  and  C_4
REMARK    4  A    between atoms: C_4  and  C_5
REMARK    5  A    between atoms: C_5  and  C_7
REMARK    6  A    between atoms: C_5  and  C_8
REMARK    7  A    between atoms: C_12  and  C_21
REMARK    8  A    between atoms: N_23  and  C_24
REMARK    9  A    between atoms: C_24  and  C_25
REMARK   10  A    between atoms: C_25  and  C_27
REMARK   11  A    between atoms: C_25  and  N_35
REMARK   12  A    between atoms: C_30  and  O_33
REMARK   13  A    between atoms: O_33  and  C_34
REMARK                            x       y       z     vdW  Elec       q    Type
REMARK                         _______ _______ _______ _____ _____    ______ ____
ROOT
ATOM      1  C   UNL     1       1.606  -4.129   2.603  0.00  0.00    +0.218 C 
ATOM      2  O   UNL     1       1.306  -4.799   1.637  0.00  0.00    -0.275 OA
ATOM      3  N   UNL     1       2.194  -4.708   3.668  0.00  0.00    -0.300 N 
ATOM      4  C   UNL     1       2.542  -4.082   4.965  0.00  0.00    +0.121 C 
ATOM      5  C   UNL     1       2.210  -5.160   6.021  0.00  0.00    +0.100 C 
ATOM      6  C   UNL     1       2.277  -6.492   5.255  0.00  0.00    -0.004 C 
ATOM      7  C   UNL     1       2.633  -6.117   3.809  0.00  0.00    +0.115 C 
ATOM      8  C   UNL     1       3.358  -7.390   5.850  0.00  0.00    -0.010 C 
ATOM      9  C   UNL     1       3.367  -8.730   5.110  0.00  0.00    -0.082 C 
ATOM     10  N   UNL     1       2.050  -9.368   5.233  0.00  0.00    +0.379 N 
ATOM     11  C   UNL     1       1.030  -8.542   4.576  0.00  0.00    -0.082 C 
ATOM     12  C   UNL     1       0.923  -7.194   5.294  0.00  0.00    -0.010 C 
ATOM     13  H   UNL     1       2.077 -10.278   4.797  0.00  0.00    -0.086 HD
ATOM     14  H   UNL     1       1.819  -9.473   6.209  0.00  0.00    -0.086 HD
ENDROOT
BRANCH   5  15
ATOM     15  C   UNL     1       0.827  -4.942   6.577  0.00  0.00    +0.218 C 
ATOM     16  O   UNL     1      -0.012  -4.373   5.911  0.00  0.00    -0.275 OA
ATOM     17  N   UNL     1       0.522  -5.379   7.816  0.00  0.00    -0.316 N 
ATOM     18  H   UNL     1       1.193  -5.834   8.348  0.00  0.00    +0.149 HD
BRANCH  17  19
ATOM     19  C   UNL     1      -0.823  -5.167   8.357  0.00  0.00    +0.093 C 
BRANCH  19  20
ATOM     20  C   UNL     1      -0.867  -5.635   9.812  0.00  0.00    -0.020 C 
BRANCH  20  21
ATOM     21  C   UNL     1       0.032  -4.761  10.649  0.00  0.00    -0.059 A 
ATOM     22  C   UNL     1      -0.412  -3.523  11.075  0.00  0.00    +0.005 A 
ATOM     23  C   UNL     1       0.410  -2.720  11.842  0.00  0.00    +0.046 A 
ATOM     24  C   UNL     1       1.682  -3.156  12.184  0.00  0.00    +0.120 A 
ATOM     25  C   UNL     1       2.124  -4.399  11.755  0.00  0.00    +0.046 A 
ATOM     26  C   UNL     1       1.297  -5.201  10.993  0.00  0.00    +0.005 A 
BRANCH  24  27
ATOM     27  O   UNL     1       2.492  -2.368  12.937  0.00  0.00    -0.495 OA
ATOM     28  C   UNL     1       3.788  -2.882  13.251  0.00  0.00    +0.277 C 
ENDBRANCH  24  27
ENDBRANCH  20  21
BRANCH  20  29
ATOM     29  N   UNL     1      -2.244  -5.544  10.315  0.00  0.00    +0.385 N 
ATOM     30  C   UNL     1      -3.117  -6.506   9.594  0.00  0.00    -0.078 C 
ATOM     31  C   UNL     1      -4.308  -6.700  10.565  0.00  0.00    -0.020 C 
ATOM     32  C   UNL     1      -3.630  -6.680  11.954  0.00  0.00    -0.020 C 
ATOM     33  C   UNL     1      -2.295  -5.943  11.739  0.00  0.00    -0.078 C 
ATOM     34  H   UNL     1      -2.594  -4.605  10.204  0.00  0.00    -0.081 HD
ENDBRANCH  20  29
ENDBRANCH  19  20
ENDBRANCH  17  19
ENDBRANCH   5  15
BRANCH   1  35
ATOM     35  C   UNL     1       1.320  -2.649   2.611  0.00  0.00    +0.072 C 
ATOM     36  C   UNL     1       0.025  -2.375   1.844  0.00  0.00    +0.017 C 
BRANCH  35  37
ATOM     37  C   UNL     1       2.477  -1.903   1.943  0.00  0.00    +0.012 C 
BRANCH  37  38
ATOM     38  C   UNL     1       2.247  -0.395   2.062  0.00  0.00    +0.000 C 
BRANCH  38  40
ATOM     39  C   UNL     1       3.174   1.859   1.512  0.00  0.00    +0.004 C 
ATOM     40  C   UNL     1       3.404   0.351   1.393  0.00  0.00    -0.003 C 
ENDBRANCH  38  40
ENDBRANCH  37  38
ENDBRANCH  35  37
ENDBRANCH   1  35
TORSDOF 10
