REMARK  Name = ZINC27307740
REMARK  8 active torsions:
REMARK  status: ('A' for Active; 'I' for Inactive)
REMARK    1  A    between atoms: C_4  and  C_7
REMARK    2  A    between atoms: C_7  and  N_8
REMARK    3  A    between atoms: C_9  and  N_33
REMARK    4  A    between atoms: C_10  and  N_17
REMARK    5  A    between atoms: N_17  and  C_18
REMARK    6  A    between atoms: N_17  and  C_25
REMARK    7  A    between atoms: C_18  and  C_19
REMARK    8  A    between atoms: C_25  and  C_26
REMARK                            x       y       z     vdW  Elec       q    Type
REMARK                         _______ _______ _______ _____ _____    ______ ____
ROOT
ATOM      1  N   UNL     1       3.364  -1.548   3.139  0.00  0.00    -0.276 N 
ATOM      2  C   UNL     1       4.127  -0.618   3.808  0.00  0.00    +0.127 A 
ATOM      3  C   UNL     1       5.351  -0.268   3.307  0.00  0.00    +0.134 A 
ATOM      4  C   UNL     1       5.798  -0.870   2.117  0.00  0.00    +0.277 A 
ATOM      5  O   UNL     1       6.886  -0.575   1.651  0.00  0.00    -0.266 OA
ATOM      6  N   UNL     1       5.018  -1.776   1.495  0.00  0.00    -0.273 N 
ATOM      7  H   UNL     1       5.325  -2.192   0.674  0.00  0.00    +0.173 HD
ATOM      8  C   UNL     1       3.819  -2.112   2.005  0.00  0.00    +0.331 A 
ATOM      9  O   UNL     1       3.133  -2.935   1.429  0.00  0.00    -0.246 OA
ENDROOT
BRANCH   2  10
ATOM     10  N   UNL     1       3.663  -0.046   4.970  0.00  0.00    -0.343 N 
ATOM     11  H   UNL     1       2.765  -0.241   5.282  0.00  0.00    +0.144 HD
ATOM     12  H   UNL     1       4.233   0.553   5.477  0.00  0.00    +0.144 HD
ENDBRANCH   2  10
BRANCH   1  13
ATOM     13  C   UNL     1       2.052  -1.930   3.667  0.00  0.00    +0.163 C 
BRANCH  13  17
ATOM     14  C   UNL     1       2.496  -5.239   6.332  0.00  0.00    +0.000 A 
ATOM     15  C   UNL     1       2.573  -3.946   6.816  0.00  0.00    +0.000 A 
ATOM     16  C   UNL     1       2.430  -2.875   5.953  0.00  0.00    +0.005 A 
ATOM     17  C   UNL     1       2.210  -3.097   4.607  0.00  0.00    -0.028 A 
ATOM     18  C   UNL     1       2.134  -4.390   4.122  0.00  0.00    +0.005 A 
ATOM     19  C   UNL     1       2.276  -5.460   4.985  0.00  0.00    +0.000 A 
ENDBRANCH  13  17
ENDBRANCH   1  13
BRANCH   3  20
ATOM     20  N   UNL     1       6.154   0.685   3.975  0.00  0.00    -0.314 N 
BRANCH  20  21
ATOM     21  C   UNL     1       6.693   0.386   5.304  0.00  0.00    +0.140 C 
BRANCH  21  22
ATOM     22  C   UNL     1       8.092  -0.157   5.168  0.00  0.00    -0.030 A 
ATOM     23  C   UNL     1       8.291  -1.503   4.928  0.00  0.00    +0.005 A 
ATOM     24  C   UNL     1       9.575  -2.001   4.803  0.00  0.00    +0.000 A 
ATOM     25  C   UNL     1      10.660  -1.152   4.920  0.00  0.00    +0.000 A 
ATOM     26  C   UNL     1      10.461   0.195   5.160  0.00  0.00    +0.000 A 
ATOM     27  C   UNL     1       9.177   0.693   5.280  0.00  0.00    +0.005 A 
ENDBRANCH  21  22
ENDBRANCH  20  21
BRANCH  20  28
ATOM     28  C   UNL     1       6.448   1.971   3.338  0.00  0.00    +0.140 C 
BRANCH  28  29
ATOM     29  C   UNL     1       5.330   2.940   3.624  0.00  0.00    -0.030 A 
ATOM     30  C   UNL     1       4.206   2.955   2.821  0.00  0.00    +0.006 A 
ATOM     31  C   UNL     1       3.180   3.844   3.083  0.00  0.00    +0.020 A 
ATOM     32  C   UNL     1       3.280   4.719   4.150  0.00  0.00    +0.041 A 
ATOM     33  C   UNL     1       4.405   4.704   4.954  0.00  0.00    +0.020 A 
ATOM     34  C   UNL     1       5.428   3.810   4.694  0.00  0.00    +0.006 A 
ATOM     35 CL   UNL     1       1.992   5.836   4.480  0.00  0.00    -0.084 Cl
ENDBRANCH  28  29
ENDBRANCH  20  28
ENDBRANCH   3  20
TORSDOF 8
