REMARK  Name = ZINC35038410
REMARK  15 active torsions:
REMARK  status: ('A' for Active; 'I' for Inactive)
REMARK    1  A    between atoms: C_1  and  C_2
REMARK    2  A    between atoms: C_2  and  C_3
REMARK    3  A    between atoms: C_3  and  C_4
REMARK    4  A    between atoms: C_4  and  C_5
REMARK    5  A    between atoms: C_5  and  C_6
REMARK    6  A    between atoms: C_6  and  C_7
REMARK    7  A    between atoms: N_9  and  C_10
REMARK    8  A    between atoms: N_9  and  C_15
REMARK    9  A    between atoms: C_10  and  C_11
REMARK   10  A    between atoms: C_11  and  N_12
REMARK   11  A    between atoms: N_12  and  C_13
REMARK   12  A    between atoms: N_12  and  C_14
REMARK   13  A    between atoms: C_15  and  C_17
REMARK   14  A    between atoms: C_15  and  C_18
REMARK   15  A    between atoms: N_28  and  C_29
REMARK                            x       y       z     vdW  Elec       q    Type
REMARK                         _______ _______ _______ _____ _____    ______ ____
ROOT
ATOM      1  C   UNL     1       2.012  -6.954  -5.949  0.00  0.00    +0.138 A 
ATOM      2  N   UNL     1       2.117  -8.245  -5.862  0.00  0.00    -0.231 NA
ATOM      3  C   UNL     1       1.445  -9.072  -6.702  0.00  0.00    +0.078 A 
ATOM      4  C   UNL     1       1.558 -10.461  -6.609  0.00  0.00    +0.028 A 
ATOM      5  C   UNL     1       0.857 -11.262  -7.482  0.00  0.00    +0.002 A 
ATOM      6  C   UNL     1       0.040 -10.706  -8.458  0.00  0.00    +0.001 A 
ATOM      7  C   UNL     1      -0.087  -9.339  -8.570  0.00  0.00    +0.015 A 
ATOM      8  C   UNL     1       0.612  -8.510  -7.695  0.00  0.00    +0.065 A 
ATOM      9  C   UNL     1       0.515  -7.045  -7.768  0.00  0.00    +0.266 A 
ATOM     10  O   UNL     1      -0.185  -6.498  -8.600  0.00  0.00    -0.267 OA
ATOM     11  N   UNL     1       1.230  -6.328  -6.870  0.00  0.00    -0.263 N 
ENDROOT
BRANCH  11  12
ATOM     12  C   UNL     1       1.169  -4.929  -6.893  0.00  0.00    +0.051 A 
ATOM     13  C   UNL     1       2.250  -4.193  -7.361  0.00  0.00    +0.027 A 
ATOM     14  C   UNL     1       2.187  -2.813  -7.382  0.00  0.00    +0.017 A 
ATOM     15  C   UNL     1       1.049  -2.165  -6.936  0.00  0.00    +0.018 A 
ATOM     16  C   UNL     1      -0.029  -2.895  -6.469  0.00  0.00    +0.017 A 
ATOM     17  C   UNL     1       0.026  -4.275  -6.452  0.00  0.00    +0.027 A 
ATOM     18 BR   UNL     1       0.967  -0.276  -6.966  0.00  0.00    -0.050 Br
ENDBRANCH  11  12
BRANCH   1  19
ATOM     19  C   UNL     1       2.791  -6.106  -4.977  0.00  0.00    +0.139 C 
ATOM     20  C   UNL     1       3.865  -6.961  -4.301  0.00  0.00    +0.036 C 
BRANCH  19  23
ATOM     21  C   UNL     1       1.836  -4.242  -3.733  0.00  0.00    +0.216 C 
ATOM     22  O   UNL     1       2.546  -3.492  -4.369  0.00  0.00    -0.276 OA
ATOM     23  N   UNL     1       1.883  -5.569  -3.961  0.00  0.00    -0.293 N 
BRANCH  21  24
ATOM     24  C   UNL     1       0.902  -3.689  -2.687  0.00  0.00    +0.096 C 
BRANCH  24  25
ATOM     25  C   UNL     1       1.044  -2.167  -2.630  0.00  0.00    +0.009 C 
BRANCH  25  26
ATOM     26  C   UNL     1       0.096  -1.606  -1.568  0.00  0.00    +0.000 C 
BRANCH  26  27
ATOM     27  C   UNL     1       0.238  -0.084  -1.510  0.00  0.00    -0.000 C 
BRANCH  27  29
ATOM     28  C   UNL     1      -0.569   2.000  -0.391  0.00  0.00    +0.004 C 
ATOM     29  C   UNL     1      -0.711   0.477  -0.449  0.00  0.00    -0.003 C 
ENDBRANCH  27  29
ENDBRANCH  26  27
ENDBRANCH  25  26
ENDBRANCH  24  25
ENDBRANCH  21  24
BRANCH  23  30
ATOM     30  C   UNL     1       1.026  -6.475  -3.192  0.00  0.00    +0.090 C 
BRANCH  30  31
ATOM     31  C   UNL     1      -0.354  -6.551  -3.849  0.00  0.00    -0.060 C 
BRANCH  31  32
ATOM     32  N   UNL     1      -1.251  -7.359  -3.011  0.00  0.00    +0.377 N 
ATOM     33  C   UNL     1      -2.606  -7.333  -3.578  0.00  0.00    -0.097 C 
ATOM     34  C   UNL     1      -0.764  -8.744  -2.968  0.00  0.00    -0.097 C 
ATOM     35  H   UNL     1      -1.270  -6.980  -2.076  0.00  0.00    -0.083 HD
ENDBRANCH  31  32
ENDBRANCH  30  31
ENDBRANCH  23  30
ENDBRANCH  19  23
ENDBRANCH   1  19
TORSDOF 11
