REMARK  Name = ZINC12762983
REMARK  5 active torsions:
REMARK  status: ('A' for Active; 'I' for Inactive)
REMARK    1  A    between atoms: C_5  and  C_7
REMARK    2  A    between atoms: C_14  and  C_16
REMARK    3  A    between atoms: C_16  and  O_17
REMARK    4  A    between atoms: O_17  and  C_18
REMARK    5  A    between atoms: C_21  and  C_24
REMARK                            x       y       z     vdW  Elec       q    Type
REMARK                         _______ _______ _______ _____ _____    ______ ____
ROOT
ATOM      1  C   UNL     1       1.248  -2.162  -0.022  0.00  0.00    +0.159 A 
ATOM      2  N   UNL     1       0.170  -2.977  -0.021  0.00  0.00    -0.257 N 
ATOM      3  H   UNL     1      -0.762  -2.708  -0.015  0.00  0.00    +0.191 HD
ATOM      4  N   UNL     1       0.667  -4.290  -0.031  0.00  0.00    -0.136 NA
ATOM      5  C   UNL     1       1.976  -4.204  -0.037  0.00  0.00    +0.241 A 
ATOM      6  N   UNL     1       2.328  -2.917  -0.037  0.00  0.00    -0.194 NA
ATOM      7  N   UNL     1       2.861  -5.287  -0.047  0.00  0.00    -0.250 N 
ATOM      8  C   UNL     1       2.384  -6.547  -0.052  0.00  0.00    +0.257 C 
ATOM      9  O   UNL     1       1.187  -6.742  -0.047  0.00  0.00    -0.272 OA
ATOM     10  H   UNL     1       3.819  -5.131  -0.051  0.00  0.00    +0.158 HD
ENDROOT
BRANCH   1  15
ATOM     11  C   UNL     1      -0.017   1.375   0.010  0.00  0.00    +0.001 A 
ATOM     12  C   UNL     1       1.170   2.087   0.002  0.00  0.00    +0.001 A 
ATOM     13  C   UNL     1       2.382   1.421  -0.013  0.00  0.00    +0.016 A 
ATOM     14  C   UNL     1       2.415   0.041  -0.021  0.00  0.00    +0.029 A 
ATOM     15  C   UNL     1       1.221  -0.682  -0.013  0.00  0.00    +0.033 A 
ATOM     16  C   UNL     1       0.002  -0.004   0.002  0.00  0.00    +0.012 A 
ATOM     17 BR   UNL     1       4.073  -0.868  -0.043  0.00  0.00    -0.050 Br
ENDBRANCH   1  15
BRANCH   8  18
ATOM     18  C   UNL     1       3.337  -7.714  -0.063  0.00  0.00    +0.325 C 
BRANCH  18  19
ATOM     19  O   UNL     1       2.595  -8.936  -0.066  0.00  0.00    -0.483 OA
BRANCH  19  20
ATOM     20  C   UNL     1       3.308 -10.090  -0.075  0.00  0.00    +0.121 A 
ATOM     21  C   UNL     1       4.697 -10.046  -0.076  0.00  0.00    +0.047 A 
ATOM     22  C   UNL     1       5.425 -11.216  -0.085  0.00  0.00    +0.022 A 
ATOM     23  C   UNL     1       4.765 -12.447  -0.094  0.00  0.00    +0.052 A 
ATOM     24  C   UNL     1       3.368 -12.487  -0.093  0.00  0.00    +0.022 A 
ATOM     25  C   UNL     1       2.648 -11.313  -0.079  0.00  0.00    +0.047 A 
BRANCH  23  26
ATOM     26  C   UNL     1       5.518 -13.666  -0.104  0.00  0.00    +0.099 C 
ATOM     27  N   UNL     1       6.115 -14.632  -0.112  0.00  0.00    -0.191 NA
ENDBRANCH  23  26
ENDBRANCH  19  20
ENDBRANCH  18  19
ENDBRANCH   8  18
TORSDOF 5
