REMARK  Name = ZINC19926785
REMARK  13 active torsions:
REMARK  status: ('A' for Active; 'I' for Inactive)
REMARK    1  A    between atoms: C_1  and  C_2
REMARK    2  A    between atoms: C_2  and  N_3
REMARK    3  A    between atoms: N_3  and  C_4
REMARK    4  A    between atoms: N_3  and  C_6
REMARK    5  A    between atoms: C_4  and  C_5
REMARK    6  A    between atoms: C_6  and  C_7
REMARK    7  A    between atoms: C_8  and  C_18
REMARK    8  A    between atoms: N_20  and  N_21
REMARK    9  A    between atoms: C_22  and  C_23
REMARK   10  A    between atoms: C_26  and  O_29
REMARK   11  A    between atoms: O_29  and  C_30
REMARK   12  A    between atoms: C_30  and  C_31
REMARK   13  A    between atoms: C_36  and  C_37
REMARK                            x       y       z     vdW  Elec       q    Type
REMARK                         _______ _______ _______ _____ _____    ______ ____
ROOT
ATOM      1  C   UNL     1       0.065   3.698  10.327  0.00  0.00    +0.284 C 
ATOM      2  O   UNL     1      -0.036   4.254   9.249  0.00  0.00    -0.267 OA
ATOM      3  N   UNL     1       0.207   2.359  10.384  0.00  0.00    -0.202 N 
ATOM      4  H   UNL     1       0.368   1.864  11.352  0.00  0.00    +0.178 HD
ENDROOT
BRANCH   1   6
ATOM      5  C   UNL     1      -1.074   4.995  12.199  0.00  0.00    +0.079 A 
ATOM      6  C   UNL     1       0.032   4.488  11.568  0.00  0.00    +0.154 A 
ATOM      7  N   UNL     1       1.103   4.867  12.340  0.00  0.00    -0.183 N 
ATOM      8  N   UNL     1       0.652   5.547  13.335  0.00  0.00    -0.058 NA
ATOM      9  N   UNL     1      -0.629   5.636  13.280  0.00  0.00    -0.135 NA
ATOM     10  C   UNL     1       2.446   4.569  12.087  0.00  0.00    +0.241 A 
ATOM     11  C   UNL     1       3.575   4.884  12.968  0.00  0.00    +0.206 A 
ATOM     12  N   UNL     1       4.669   4.455  12.401  0.00  0.00    -0.032 NA
ATOM     13  O   UNL     1       4.313   3.861  11.165  0.00  0.00    -0.239 OA
ATOM     14  N   UNL     1       2.906   3.960  11.031  0.00  0.00    -0.027 NA
ATOM     15  N   UNL     1       3.493   5.530  14.196  0.00  0.00    -0.337 N 
ATOM     16  H   UNL     1       4.406   5.719  14.780  0.00  0.00    +0.144 HD
ATOM     17  H   UNL     1       2.516   5.853  14.584  0.00  0.00    +0.144 HD
BRANCH   5  18
ATOM     18  C   UNL     1      -2.509   4.854  11.759  0.00  0.00    -0.018 C 
BRANCH  18  19
ATOM     19  N   UNL     1      -3.087   3.643  12.354  0.00  0.00    +0.383 N 
ATOM     20  H   UNL     1      -2.903   3.678  13.438  0.00  0.00    -0.081 HD
BRANCH  19  22
ATOM     21  C   UNL     1      -5.225   4.575  13.100  0.00  0.00    -0.017 C 
ATOM     22  C   UNL     1      -4.540   3.596  12.145  0.00  0.00    -0.082 C 
ENDBRANCH  19  22
BRANCH  19  23
ATOM     23  C   UNL     1      -2.440   2.435  11.825  0.00  0.00    -0.082 C 
ATOM     24  C   UNL     1      -2.850   1.226  12.668  0.00  0.00    -0.017 C 
ENDBRANCH  19  23
ENDBRANCH  18  19
ENDBRANCH   5  18
ENDBRANCH   1   6
BRANCH   3  25
ATOM     25  N   UNL     1       0.149   1.598   9.209  0.00  0.00    -0.187 NA
ATOM     26  C   UNL     1       0.286   0.308   9.264  0.00  0.00    +0.138 C 
BRANCH  26  27
ATOM     27  C   UNL     1       0.225  -0.492   8.027  0.00  0.00    -0.005 A 
ATOM     28  C   UNL     1       0.372  -1.881   8.084  0.00  0.00    +0.013 A 
ATOM     29  C   UNL     1       0.315  -2.625   6.926  0.00  0.00    +0.046 A 
ATOM     30  C   UNL     1       0.110  -1.998   5.704  0.00  0.00    +0.121 A 
ATOM     31  C   UNL     1      -0.031  -0.617   5.642  0.00  0.00    +0.046 A 
ATOM     32  C   UNL     1       0.021   0.135   6.795  0.00  0.00    +0.013 A 
BRANCH  30  33
ATOM     33  O   UNL     1       0.054  -2.736   4.564  0.00  0.00    -0.487 OA
BRANCH  33  34
ATOM     34  C   UNL     1      -0.159  -2.027   3.342  0.00  0.00    +0.264 C 
BRANCH  34  35
ATOM     35  C   UNL     1      -0.192  -3.003   2.194  0.00  0.00    -0.007 A 
ATOM     36  C   UNL     1      -0.028  -4.355   2.432  0.00  0.00    +0.007 A 
ATOM     37  C   UNL     1      -0.058  -5.250   1.379  0.00  0.00    +0.000 A 
ATOM     38  C   UNL     1      -0.253  -4.794   0.089  0.00  0.00    +0.000 A 
ATOM     39  C   UNL     1      -0.422  -3.443  -0.148  0.00  0.00    +0.004 A 
ATOM     40  C   UNL     1      -0.386  -2.546   0.904  0.00  0.00    -0.044 A 
ATOM     41  C   UNL     1      -0.566  -1.073   0.645  0.00  0.00    +0.044 C 
ENDBRANCH  34  35
ENDBRANCH  33  34
ENDBRANCH  30  33
ENDBRANCH  26  27
ENDBRANCH   3  25
TORSDOF 10
