REMARK  Name = ZINC35807323
REMARK  7 active torsions:
REMARK  status: ('A' for Active; 'I' for Inactive)
REMARK    1  A    between atoms: C_1  and  C_2
REMARK    2  A    between atoms: C_2  and  C_3
REMARK    3  A    between atoms: C_3  and  C_5
REMARK    4  A    between atoms: C_3  and  N_6
REMARK    5  A    between atoms: C_7  and  C_9
REMARK    6  A    between atoms: C_14  and  N_15
REMARK    7  A    between atoms: C_31  and  C_36
REMARK                            x       y       z     vdW  Elec       q    Type
REMARK                         _______ _______ _______ _____ _____    ______ ____
ROOT
ATOM      1  N   UNL     1       1.911   0.280   6.149  0.00  0.00    -0.192 N 
ATOM      2  C   UNL     1       2.842   1.242   5.982  0.00  0.00    +0.248 C 
ATOM      3  O   UNL     1       2.646   2.417   5.756  0.00  0.00    -0.273 OA
ATOM      4  C   UNL     1       4.182   0.553   6.137  0.00  0.00    +0.169 C 
ATOM      5  C   UNL     1       4.933   1.149   7.334  0.00  0.00    +0.069 C 
ATOM      6  C   UNL     1       5.901   0.128   7.877  0.00  0.00    -0.015 A 
ATOM      7  C   UNL     1       7.058   0.369   8.719  0.00  0.00    +0.003 A 
ATOM      8  C   UNL     1       7.609   1.536   9.255  0.00  0.00    +0.010 A 
ATOM      9  C   UNL     1       8.736   1.392  10.027  0.00  0.00    +0.001 A 
ATOM     10  C   UNL     1       9.307   0.154  10.270  0.00  0.00    +0.002 A 
ATOM     11  C   UNL     1       8.782  -1.018   9.753  0.00  0.00    +0.026 A 
ATOM     12  C   UNL     1       7.638  -0.901   8.965  0.00  0.00    +0.047 A 
ATOM     13  N   UNL     1       6.876  -1.828   8.315  0.00  0.00    -0.356 N 
ATOM     14  H   UNL     1       7.040  -2.784   8.312  0.00  0.00    +0.166 HD
ATOM     15  C   UNL     1       5.844  -1.204   7.666  0.00  0.00    +0.041 A 
ATOM     16  C   UNL     1       4.782  -1.876   6.818  0.00  0.00    +0.122 C 
ATOM     17  N   UNL     1       3.803  -0.841   6.457  0.00  0.00    -0.265 N 
ATOM     18  C   UNL     1       2.471  -0.910   6.411  0.00  0.00    +0.317 C 
ATOM     19  O   UNL     1       1.839  -1.933   6.584  0.00  0.00    -0.252 OA
ATOM     20  C   UNL     1       5.409  -2.441   5.542  0.00  0.00    +0.035 C 
ENDROOT
BRANCH   1  26
ATOM     21  C   UNL     1      -0.126   0.362   4.835  0.00  0.00    +0.059 A 
ATOM     22  C   UNL     1      -1.504   0.578   4.764  0.00  0.00    +0.015 A 
ATOM     23  C   UNL     1      -2.204   0.926   5.899  0.00  0.00    +0.001 A 
ATOM     24  C   UNL     1      -1.548   1.064   7.111  0.00  0.00    +0.002 A 
ATOM     25  C   UNL     1      -0.185   0.855   7.196  0.00  0.00    +0.025 A 
ATOM     26  C   UNL     1       0.535   0.498   6.064  0.00  0.00    +0.058 A 
BRANCH  21  28
ATOM     27  N   UNL     1      -0.008  -0.140   2.444  0.00  0.00    -0.309 N 
ATOM     28  C   UNL     1       0.630  -0.011   3.624  0.00  0.00    +0.246 C 
ATOM     29  O   UNL     1       1.829  -0.202   3.690  0.00  0.00    -0.270 OA
ATOM     30  H   UNL     1      -0.965   0.013   2.391  0.00  0.00    +0.149 HD
BRANCH  27  31
ATOM     31  C   UNL     1       0.742  -0.511   1.242  0.00  0.00    +0.070 C 
ATOM     32  C   UNL     1       0.872  -2.034   1.171  0.00  0.00    +0.028 C 
BRANCH  31  34
ATOM     33  C   UNL     1      -0.019   1.526   0.010  0.00  0.00    +0.005 C 
ATOM     34  C   UNL     1       0.002  -0.004   0.002  0.00  0.00    +0.018 C 
ENDBRANCH  31  34
ENDBRANCH  27  31
ENDBRANCH  21  28
ENDBRANCH   1  26
TORSDOF 4
