REMARK  Name = ZINC05594162
REMARK  3 active torsions:
REMARK  status: ('A' for Active; 'I' for Inactive)
REMARK    1  A    between atoms: C_7  and  C_11
REMARK    2  A    between atoms: N_17  and  C_18
REMARK    3  A    between atoms: C_23  and  N_24
REMARK                            x       y       z     vdW  Elec       q    Type
REMARK                         _______ _______ _______ _____ _____    ______ ____
ROOT
ATOM      1  C   UNL     1      -1.376   2.964  -0.232  0.00  0.00    +0.177 C 
ATOM      2  C   UNL     1      -1.043   2.256   1.065  0.00  0.00    +0.193 C 
ATOM      3  O   UNL     1      -1.418   2.274   2.212  0.00  0.00    -0.292 OA
ATOM      4  C   UNL     1      -0.017   1.514   0.237  0.00  0.00    +0.236 C 
ATOM      5  N   UNL     1      -0.865   1.776  -0.942  0.00  0.00    -0.292 N 
ATOM      6 CL   UNL     1       1.585   2.338   0.169  0.00  0.00    -0.092 Cl
ENDROOT
BRANCH   1  13
ATOM      7  C   UNL     1      -4.076   6.791  -0.041  0.00  0.00    +0.001 A 
ATOM      8  C   UNL     1      -5.413   6.523  -0.300  0.00  0.00    +0.002 A 
ATOM      9  C   UNL     1      -5.832   5.240  -0.578  0.00  0.00    +0.026 A 
ATOM     10  C   UNL     1      -4.907   4.201  -0.600  0.00  0.00    +0.047 A 
ATOM     11  C   UNL     1      -3.554   4.477  -0.329  0.00  0.00    +0.005 A 
ATOM     12  C   UNL     1      -3.151   5.786  -0.056  0.00  0.00    +0.010 A 
ATOM     13  C   UNL     1      -2.851   3.196  -0.432  0.00  0.00    +0.005 A 
ATOM     14  C   UNL     1      -3.772   2.267  -0.733  0.00  0.00    +0.089 A 
ATOM     15  N   UNL     1      -5.006   2.849  -0.837  0.00  0.00    -0.360 N 
ATOM     16  H   UNL     1      -5.828   2.379  -1.047  0.00  0.00    +0.165 HD
ENDBRANCH   1  13
BRANCH   5  17
ATOM     17  C   UNL     1      -0.090   2.146  -2.043  0.00  0.00    +0.062 A 
ATOM     18  C   UNL     1      -0.159   3.442  -2.539  0.00  0.00    +0.025 A 
ATOM     19  C   UNL     1       0.613   3.807  -3.625  0.00  0.00    +0.002 A 
ATOM     20  C   UNL     1       1.446   2.880  -4.225  0.00  0.00    +0.002 A 
ATOM     21  C   UNL     1       1.513   1.588  -3.738  0.00  0.00    +0.034 A 
ATOM     22  C   UNL     1       0.748   1.218  -2.649  0.00  0.00    +0.147 A 
BRANCH  22  23
ATOM     23  N   UNL     1       0.820  -0.165  -2.127  0.00  0.00    +0.058 N 
ATOM     24  O   UNL     1       1.654  -0.938  -2.565  0.00  0.00    -0.126 OA
ATOM     25  O   UNL     1       0.046  -0.531  -1.261  0.00  0.00    -0.126 OA
ENDBRANCH  22  23
ENDBRANCH   5  17
TORSDOF 3
