REMARK  Name = ZINC32597771
REMARK  5 active torsions:
REMARK  status: ('A' for Active; 'I' for Inactive)
REMARK    1  A    between atoms: C_1  and  C_2
REMARK    2  A    between atoms: C_2  and  C_4
REMARK    3  A    between atoms: C_2  and  N_7
REMARK    4  A    between atoms: C_23  and  C_25
REMARK    5  A    between atoms: C_30  and  O_31
REMARK                            x       y       z     vdW  Elec       q    Type
REMARK                         _______ _______ _______ _____ _____    ______ ____
ROOT
ATOM      1  N   UNL     1       1.196   1.745  -0.589  0.00  0.00    -0.228 N 
ATOM      2  C   UNL     1       1.490   3.037  -0.787  0.00  0.00    +0.224 C 
ATOM      3  O   UNL     1       0.693   3.902  -1.079  0.00  0.00    -0.275 OA
ATOM      4  C   UNL     1       2.976   3.246  -0.585  0.00  0.00    +0.114 C 
ATOM      5  C   UNL     1       3.490   1.837  -0.242  0.00  0.00    +0.076 C 
ATOM      6  C   UNL     1       2.251   0.978  -0.281  0.00  0.00    +0.231 C 
ATOM      7  O   UNL     1       2.215  -0.215  -0.068  0.00  0.00    -0.274 OA
ATOM      8  C   UNL     1       4.100   1.829   1.159  0.00  0.00    +0.093 C 
ATOM      9  S   UNL     1       4.324   0.099   1.677  0.00  0.00    -0.106 S 
ATOM     10  C   UNL     1       5.057  -0.630   0.226  0.00  0.00    +0.087 A 
ATOM     11  C   UNL     1       5.052   0.028  -0.952  0.00  0.00    +0.033 A 
ATOM     12  S   UNL     1       5.878  -1.097  -2.051  0.00  0.00    -0.030 S 
ATOM     13  C   UNL     1       6.186  -2.367  -0.909  0.00  0.00    +0.289 A 
ATOM     14  O   UNL     1       6.744  -3.435  -1.087  0.00  0.00    -0.260 OA
ATOM     15  N   UNL     1       5.652  -1.870   0.224  0.00  0.00    -0.311 N 
ATOM     16  H   UNL     1       5.694  -2.461   1.151  0.00  0.00    +0.170 HD
ATOM     17  C   UNL     1       4.501   1.374  -1.280  0.00  0.00    +0.078 C 
ENDROOT
BRANCH  17  18
ATOM     18  C   UNL     1       5.633   2.367  -1.342  0.00  0.00    +0.003 A 
ATOM     19  C   UNL     1       5.623   3.368  -2.294  0.00  0.00    +0.008 A 
ATOM     20  C   UNL     1       6.659   4.282  -2.348  0.00  0.00    +0.001 A 
ATOM     21  C   UNL     1       7.712   4.190  -1.456  0.00  0.00    +0.004 A 
ATOM     22  C   UNL     1       7.729   3.188  -0.506  0.00  0.00    +0.046 A 
ATOM     23  C   UNL     1       6.688   2.273  -0.446  0.00  0.00    +0.121 A 
BRANCH  23  24
ATOM     24  O   UNL     1       6.702   1.286   0.488  0.00  0.00    -0.506 OA
ATOM     25  H   UNL     1       7.539   1.212   1.198  0.00  0.00    +0.292 HD
ENDBRANCH  23  24
ENDBRANCH  17  18
BRANCH   1  27
ATOM     26  C   UNL     1      -0.689   1.465  -2.122  0.00  0.00    +0.040 C 
ATOM     27  C   UNL     1      -0.164   1.214  -0.707  0.00  0.00    +0.194 C 
BRANCH  27  28
ATOM     28  C   UNL     1      -1.060   1.902   0.290  0.00  0.00    +0.376 C 
ATOM     29  O   UNL     1      -0.608   2.749   1.024  0.00  0.00    -0.244 OA
ATOM     30  O   UNL     1      -2.359   1.574   0.364  0.00  0.00    -0.244 OA
ENDBRANCH  27  28
ENDBRANCH   1  27
TORSDOF 4
