REMARK  Name = ZINC40172427
REMARK  9 active torsions:
REMARK  status: ('A' for Active; 'I' for Inactive)
REMARK    1  A    between atoms: C_1  and  C_2
REMARK    2  A    between atoms: C_2  and  C_3
REMARK    3  A    between atoms: C_3  and  C_5
REMARK    4  A    between atoms: C_3  and  N_20
REMARK    5  A    between atoms: C_10  and  C_13
REMARK    6  A    between atoms: C_16  and  C_19
REMARK    7  A    between atoms: C_24  and  S_25
REMARK    8  A    between atoms: S_25  and  C_26
REMARK    9  A    between atoms: C_26  and  C_27
REMARK                            x       y       z     vdW  Elec       q    Type
REMARK                         _______ _______ _______ _____ _____    ______ ____
ROOT
ATOM      1  C   UNL     1       2.208  -0.296  -1.092  0.00  0.00    +0.242 C 
ATOM      2  O   UNL     1       3.021  -1.196  -1.123  0.00  0.00    -0.273 OA
ATOM      3  N   UNL     1       2.620   0.980  -0.963  0.00  0.00    -0.263 N 
ATOM      4  C   UNL     1       3.966   1.259  -0.762  0.00  0.00    +0.165 A 
ATOM      5  N   UNL     1       4.564   2.425  -0.607  0.00  0.00    -0.225 NA
ATOM      6  C   UNL     1       5.873   2.509  -0.423  0.00  0.00    +0.080 A 
ATOM      7  C   UNL     1       6.620   1.364  -0.392  0.00  0.00    +0.076 A 
ATOM      8  S   UNL     1       5.348   0.132  -0.636  0.00  0.00    -0.060 S 
ATOM      9  H   UNL     1       1.977   1.704  -1.010  0.00  0.00    +0.157 HD
ENDROOT
BRANCH   6  10
ATOM     10  C   UNL     1       6.522   3.831  -0.253  0.00  0.00    +0.001 A 
ATOM     11  C   UNL     1       7.901   3.915  -0.065  0.00  0.00    +0.010 A 
ATOM     12  C   UNL     1       8.499   5.148   0.093  0.00  0.00    +0.004 A 
ATOM     13  C   UNL     1       7.734   6.300   0.067  0.00  0.00    -0.050 A 
ATOM     14  C   UNL     1       6.365   6.223  -0.119  0.00  0.00    +0.004 A 
ATOM     15  C   UNL     1       5.757   4.996  -0.285  0.00  0.00    +0.010 A 
ATOM     16  C   UNL     1       8.393   7.644   0.240  0.00  0.00    +0.044 C 
ENDBRANCH   6  10
BRANCH   1  17
ATOM     17  C   UNL     1       0.737  -0.607  -1.199  0.00  0.00    +0.178 C 
BRANCH  17  18
ATOM     18  N   UNL     1       0.545  -2.058  -1.237  0.00  0.00    -0.279 N 
ATOM     19  C   UNL     1       0.916  -2.943  -0.263  0.00  0.00    +0.216 A 
ATOM     20  N   UNL     1       0.578  -4.145  -0.658  0.00  0.00    -0.113 NA
ATOM     21  N   UNL     1      -0.025  -4.034  -1.918  0.00  0.00    -0.121 NA
ATOM     22  C   UNL     1      -0.040  -2.765  -2.249  0.00  0.00    +0.194 A 
ATOM     23  N   UNL     1       1.541  -2.623   0.935  0.00  0.00    -0.328 N 
ATOM     24  H   UNL     1       1.752  -1.698   1.140  0.00  0.00    +0.145 HD
ATOM     25  H   UNL     1       1.766  -3.324   1.567  0.00  0.00    +0.145 HD
BRANCH  22  26
ATOM     26  S   UNL     1      -0.698  -2.091  -3.738  0.00  0.00    -0.086 S 
BRANCH  26  27
ATOM     27  C   UNL     1      -1.317  -3.539  -4.639  0.00  0.00    +0.074 C 
ATOM     28  C   UNL     1      -1.923  -3.090  -5.971  0.00  0.00    +0.016 C 
ENDBRANCH  26  27
ENDBRANCH  22  26
ENDBRANCH  17  18
BRANCH  17  30
ATOM     29  C   UNL     1      -1.503  -0.218  -0.164  0.00  0.00    +0.006 C 
ATOM     30  C   UNL     1       0.004  -0.026   0.012  0.00  0.00    +0.031 C 
ENDBRANCH  17  30
ENDBRANCH   1  17
TORSDOF 6
