REMARK  Name = ZINC09235471
REMARK  6 active torsions:
REMARK  status: ('A' for Active; 'I' for Inactive)
REMARK    1  A    between atoms: C_1  and  C_2
REMARK    2  A    between atoms: C_4  and  C_37
REMARK    3  A    between atoms: N_20  and  C_23
REMARK    4  A    between atoms: C_26  and  N_31
REMARK    5  A    between atoms: C_28  and  O_29
REMARK    6  A    between atoms: O_29  and  C_30
REMARK                            x       y       z     vdW  Elec       q    Type
REMARK                         _______ _______ _______ _____ _____    ______ ____
ROOT
ATOM      1  C   UNL     1       1.038   4.406   4.354  0.00  0.00    +0.044 C 
ATOM      2  C   UNL     1      -0.386   4.759   4.009  0.00  0.00    -0.050 A 
ATOM      3  C   UNL     1      -1.194   5.374   4.948  0.00  0.00    +0.008 A 
ATOM      4  C   UNL     1      -2.498   5.699   4.638  0.00  0.00    -0.029 A 
ATOM      5  C   UNL     1      -3.011   5.410   3.375  0.00  0.00    +0.039 A 
ATOM      6  C   UNL     1      -2.189   4.790   2.439  0.00  0.00    -0.027 A 
ATOM      7  C   UNL     1      -0.887   4.468   2.752  0.00  0.00    +0.008 A 
ATOM      8  C   UNL     1      -3.028   4.619   1.204  0.00  0.00    +0.053 C 
ATOM      9  C   UNL     1      -3.149   3.143   0.810  0.00  0.00    +0.089 C 
ATOM     10  C   UNL     1      -3.158   3.148  -0.743  0.00  0.00    +0.074 C 
ATOM     11  C   UNL     1      -3.041   4.631  -1.141  0.00  0.00    -0.054 C 
ATOM     12  C   UNL     1      -0.988   4.989  -0.042  0.00  0.00    -0.076 C 
ATOM     13  C   UNL     1      -0.655   5.028  -1.547  0.00  0.00    -0.020 C 
ATOM     14  C   UNL     1      -1.997   4.777  -2.263  0.00  0.00    -0.016 C 
ATOM     15  C   UNL     1      -1.874   2.435  -1.101  0.00  0.00    +0.229 C 
ATOM     16  O   UNL     1      -1.481   2.225  -2.229  0.00  0.00    -0.275 OA
ATOM     17  N   UNL     1      -1.241   2.070   0.019  0.00  0.00    -0.206 N 
ATOM     18  C   UNL     1      -1.866   2.418   1.149  0.00  0.00    +0.230 C 
ATOM     19  O   UNL     1      -1.466   2.188   2.271  0.00  0.00    -0.275 OA
ATOM     20  C   UNL     1      -4.369   5.203   1.559  0.00  0.00    +0.212 C 
ATOM     21  O   UNL     1      -5.343   5.269   0.840  0.00  0.00    -0.277 OA
ATOM     22  N   UNL     1      -4.277   5.638   2.830  0.00  0.00    -0.286 N 
ATOM     23  C   UNL     1      -3.371   6.369   5.668  0.00  0.00    +0.045 C 
ATOM     24  H   UNL     1      -5.006   6.060   3.312  0.00  0.00    +0.155 HD
ATOM     25  N   UNL     1      -2.441   5.251   0.018  0.00  0.00    +0.395 N 
ATOM     26  H   UNL     1      -2.620   6.262   0.028  0.00  0.00    -0.079 HD
ENDROOT
BRANCH  17  27
ATOM     27  C   UNL     1      -0.017   1.383   0.010  0.00  0.00    +0.086 A 
ATOM     28  C   UNL     1       0.002  -0.004   0.002  0.00  0.00    +0.030 A 
ATOM     29  C   UNL     1       1.208  -0.678  -0.013  0.00  0.00    +0.035 A 
ATOM     30  C   UNL     1       2.398   0.026  -0.020  0.00  0.00    +0.130 A 
ATOM     31  C   UNL     1       2.387   1.408  -0.013  0.00  0.00    +0.080 A 
ATOM     32  C   UNL     1       1.182   2.092   0.002  0.00  0.00    +0.144 A 
BRANCH  30  33
ATOM     33  N   UNL     1       3.687  -0.702  -0.036  0.00  0.00    +0.057 N 
ATOM     34  O   UNL     1       3.698  -1.920  -0.043  0.00  0.00    -0.126 OA
ATOM     35  O   UNL     1       4.736  -0.083  -0.042  0.00  0.00    -0.126 OA
ENDBRANCH  30  33
BRANCH  32  36
ATOM     36  O   UNL     1       1.169   3.451   0.009  0.00  0.00    -0.493 OA
ATOM     37  C   UNL     1       2.437   4.112   0.001  0.00  0.00    +0.277 C 
ENDBRANCH  32  36
ENDBRANCH  17  27
TORSDOF 3
