REMARK  Name = ZINC52094837
REMARK  3 active torsions:
REMARK  status: ('A' for Active; 'I' for Inactive)
REMARK    1  A    between atoms: C_5  and  C_7
REMARK    2  A    between atoms: C_7  and  C_9
REMARK    3  A    between atoms: C_7  and  O_22
REMARK                            x       y       z     vdW  Elec       q    Type
REMARK                         _______ _______ _______ _____ _____    ______ ____
ROOT
ATOM      1  C   UNL     1       1.476  -2.626   1.398  0.00  0.00    +0.001 A 
ATOM      2  C   UNL     1       0.417  -3.039   2.184  0.00  0.00    +0.035 A 
ATOM      3  C   UNL     1       0.645  -3.444   3.490  0.00  0.00    +0.067 A 
ATOM      4  C   UNL     1       1.942  -3.431   4.007  0.00  0.00    +0.068 A 
ATOM      5  C   UNL     1       2.998  -3.014   3.212  0.00  0.00    +0.043 A 
ATOM      6  C   UNL     1       2.763  -2.618   1.908  0.00  0.00    +0.026 A 
ATOM      7 BR   UNL     1       4.204  -2.058   0.820  0.00  0.00    -0.050 Br
ATOM      8  N   UNL     1       1.856  -3.883   5.322  0.00  0.00    -0.306 N 
ATOM      9  H   UNL     1       2.599  -3.983   5.937  0.00  0.00    +0.170 HD
ATOM     10  C   UNL     1       0.566  -4.158   5.592  0.00  0.00    +0.325 A 
ATOM     11  O   UNL     1       0.147  -4.573   6.657  0.00  0.00    -0.247 OA
ATOM     12  N   UNL     1      -0.189  -3.903   4.508  0.00  0.00    -0.306 N 
ATOM     13  H   UNL     1      -1.150  -4.019   4.445  0.00  0.00    +0.170 HD
ENDROOT
BRANCH   1  14
ATOM     14  C   UNL     1       1.229  -2.186  -0.022  0.00  0.00    +0.177 C 
BRANCH  14  19
ATOM     15  C   UNL     1      -1.841   0.009  -0.144  0.00  0.00    +0.000 A 
ATOM     16  C   UNL     1      -1.284   1.269  -0.028  0.00  0.00    +0.001 A 
ATOM     17  C   UNL     1       0.085   1.412   0.091  0.00  0.00    +0.015 A 
ATOM     18  C   UNL     1       0.899   0.293   0.093  0.00  0.00    +0.024 A 
ATOM     19  C   UNL     1       0.342  -0.967  -0.024  0.00  0.00    -0.001 A 
ATOM     20  C   UNL     1      -1.028  -1.109  -0.142  0.00  0.00    +0.007 A 
ATOM     21 BR   UNL     1       2.773   0.488   0.254  0.00  0.00    -0.050 Br
ENDBRANCH  14  19
BRANCH  14  22
ATOM     22  O   UNL     1       0.589  -3.241  -0.743  0.00  0.00    -0.382 OA
ATOM     23  H   UNL     1      -0.264  -3.508  -0.374  0.00  0.00    +0.211 HD
ENDBRANCH  14  22
ENDBRANCH   1  14
TORSDOF 3
