REMARK  Name = ZINC10099773
REMARK  13 active torsions:
REMARK  status: ('A' for Active; 'I' for Inactive)
REMARK    1  A    between atoms: C_1  and  C_2
REMARK    2  A    between atoms: C_2  and  O_3
REMARK    3  A    between atoms: O_3  and  C_4
REMARK    4  A    between atoms: C_4  and  C_5
REMARK    5  A    between atoms: C_5  and  N_6
REMARK    6  A    between atoms: C_10  and  N_32
REMARK    7  A    between atoms: N_15  and  C_16
REMARK    8  A    between atoms: C_16  and  C_18
REMARK    9  A    between atoms: C_21  and  S_24
REMARK   10  A    between atoms: S_24  and  N_27
REMARK   11  A    between atoms: N_27  and  C_28
REMARK   12  A    between atoms: N_27  and  C_29
REMARK   13  A    between atoms: C_33  and  C_35
REMARK                            x       y       z     vdW  Elec       q    Type
REMARK                         _______ _______ _______ _____ _____    ______ ____
ROOT
ATOM      1  N   UNL     1      -6.143   4.502   6.968  0.00  0.00    -0.319 N 
ATOM      2  C   UNL     1      -6.560   4.595   8.284  0.00  0.00    +0.058 A 
ATOM      3  C   UNL     1      -7.824   4.296   8.819  0.00  0.00    +0.029 A 
ATOM      4  C   UNL     1      -8.074   4.446  10.162  0.00  0.00    +0.025 A 
ATOM      5  C   UNL     1      -7.086   4.896  11.031  0.00  0.00    +0.035 A 
ATOM      6  C   UNL     1      -5.828   5.198  10.527  0.00  0.00    +0.040 A 
ATOM      7  C   UNL     1      -5.583   5.047   9.183  0.00  0.00    +0.041 A 
ATOM      8  S   UNL     1      -4.163   5.301   8.147  0.00  0.00    -0.052 S 
ATOM      9  C   UNL     1      -4.868   4.837   6.632  0.00  0.00    +0.167 A 
ATOM     10  N   UNL     1      -4.298   4.810   5.432  0.00  0.00    -0.152 NA
ENDROOT
BRANCH   5  11
ATOM     11  N   UNL     1      -7.357   5.043  12.398  0.00  0.00    -0.286 N 
ATOM     12  C   UNL     1      -8.565   5.485  12.802  0.00  0.00    +0.214 C 
ATOM     13  O   UNL     1      -9.445   5.671  11.989  0.00  0.00    -0.276 OA
ATOM     14  C   UNL     1      -8.821   5.748  14.263  0.00  0.00    +0.109 C 
ATOM     15  H   UNL     1      -6.676   4.826  13.053  0.00  0.00    +0.155 HD
ENDBRANCH   5  11
BRANCH  10  16
ATOM     16  C   UNL     1      -3.021   5.178   5.290  0.00  0.00    +0.269 C 
ATOM     17  O   UNL     1      -2.380   5.540   6.262  0.00  0.00    -0.268 OA
BRANCH  16  18
ATOM     18  C   UNL     1      -2.386   5.148   3.953  0.00  0.00    +0.039 A 
ATOM     19  C   UNL     1      -1.053   5.532   3.802  0.00  0.00    +0.015 A 
ATOM     20  C   UNL     1      -0.467   5.501   2.553  0.00  0.00    +0.029 A 
ATOM     21  C   UNL     1      -1.198   5.090   1.452  0.00  0.00    +0.106 A 
ATOM     22  C   UNL     1      -2.521   4.714   1.595  0.00  0.00    +0.029 A 
ATOM     23  C   UNL     1      -3.117   4.734   2.840  0.00  0.00    +0.015 A 
BRANCH  21  24
ATOM     24  S   UNL     1      -0.442   5.054  -0.139  0.00  0.00    +0.061 S 
ATOM     25  O   UNL     1       0.638   5.977  -0.097  0.00  0.00    -0.153 OA
ATOM     26  O   UNL     1      -1.492   5.154  -1.090  0.00  0.00    -0.153 OA
BRANCH  24  27
ATOM     27  N   UNL     1       0.228   3.551  -0.329  0.00  0.00    -0.177 NA
ATOM     28  C   UNL     1      -0.562   2.467  -0.919  0.00  0.00    +0.132 C 
BRANCH  27  29
ATOM     29  C   UNL     1       1.609   3.306   0.093  0.00  0.00    +0.080 C 
ATOM     30  C   UNL     1       2.236   1.964  -0.289  0.00  0.00    +0.022 C 
ATOM     31  C   UNL     1       1.841   2.237   1.163  0.00  0.00    +0.022 C 
ENDBRANCH  27  29
ENDBRANCH  24  27
ENDBRANCH  21  24
ENDBRANCH  16  18
ENDBRANCH  10  16
BRANCH   1  32
ATOM     32  C   UNL     1      -7.074   4.042   5.936  0.00  0.00    +0.152 C 
BRANCH  32  33
ATOM     33  C   UNL     1      -6.822   4.815   4.640  0.00  0.00    +0.181 C 
BRANCH  33  34
ATOM     34  O   UNL     1      -7.816   4.465   3.675  0.00  0.00    -0.378 OA
BRANCH  34  36
ATOM     35  C   UNL     1      -8.782   4.686   1.470  0.00  0.00    +0.034 C 
ATOM     36  C   UNL     1      -7.670   5.135   2.421  0.00  0.00    +0.156 C 
ENDBRANCH  34  36
ENDBRANCH  33  34
ENDBRANCH  32  33
ENDBRANCH   1  32
TORSDOF 10
