REMARK  Name = ZINC35170791
REMARK  3 active torsions:
REMARK  status: ('A' for Active; 'I' for Inactive)
REMARK    1  A    between atoms: C_4  and  N_7
REMARK    2  A    between atoms: C_8  and  C_12
REMARK    3  A    between atoms: C_12  and  N_22
REMARK                            x       y       z     vdW  Elec       q    Type
REMARK                         _______ _______ _______ _____ _____    ______ ____
ROOT
ATOM      1  C   UNL     1       3.044  -2.548   1.569  0.00  0.00    +0.004 C 
ATOM      2  C   UNL     1       2.120  -2.700   0.359  0.00  0.00    -0.013 C 
ATOM      3  C   UNL     1       2.754  -3.660  -0.650  0.00  0.00    +0.006 C 
ATOM      4  C   UNL     1       2.962  -5.026   0.007  0.00  0.00    -0.010 C 
ATOM      5  C   UNL     1       1.613  -5.584   0.463  0.00  0.00    +0.007 C 
ATOM      6  C   UNL     1       0.978  -4.624   1.471  0.00  0.00    -0.010 C 
ATOM      7  C   UNL     1       0.770  -3.258   0.814  0.00  0.00    +0.006 C 
ATOM      8  C   UNL     1       1.902  -4.472   2.682  0.00  0.00    +0.006 C 
ATOM      9  C   UNL     1       3.252  -3.914   2.226  0.00  0.00    -0.013 C 
ATOM     10  C   UNL     1       3.886  -4.874   1.217  0.00  0.00    +0.006 C 
ENDROOT
BRANCH   1  11
ATOM     11  N   UNL     1       2.434  -1.627   2.538  0.00  0.00    +0.391 N 
ATOM     12  C   UNL     1       3.492  -0.888   3.239  0.00  0.00    -0.058 C 
ATOM     13  C   UNL     1       2.865  -0.011   4.328  0.00  0.00    +0.089 C 
ATOM     14  N   UNL     1       1.838   0.840   3.707  0.00  0.00    -0.303 N 
ATOM     15  C   UNL     1       0.830   0.198   2.850  0.00  0.00    +0.089 C 
ATOM     16  C   UNL     1       1.554  -0.689   1.831  0.00  0.00    -0.058 C 
ATOM     17  C   UNL     1       1.821   2.207   3.924  0.00  0.00    +0.218 A 
ATOM     18  N   UNL     1       2.749   2.751   4.698  0.00  0.00    -0.223 NA
ATOM     19  C   UNL     1       2.762   4.054   4.925  0.00  0.00    +0.116 A 
ATOM     20  C   UNL     1       1.790   4.851   4.341  0.00  0.00    +0.039 A 
ATOM     21  C   UNL     1       0.834   4.250   3.537  0.00  0.00    +0.116 A 
ATOM     22  N   UNL     1       0.881   2.942   3.348  0.00  0.00    -0.223 NA
ATOM     23  H   UNL     1       1.894  -2.154   3.207  0.00  0.00    -0.080 HD
ENDBRANCH   1  11
BRANCH   1  25
ATOM     24  N   UNL     1       4.583  -0.820   0.495  0.00  0.00    -0.198 N 
ATOM     25  C   UNL     1       4.373  -1.999   1.120  0.00  0.00    +0.147 A 
ATOM     26  N   UNL     1       5.538  -2.574   1.264  0.00  0.00    -0.114 NA
ATOM     27  N   UNL     1       6.470  -1.840   0.772  0.00  0.00    -0.023 NA
ATOM     28  N   UNL     1       5.971  -0.758   0.280  0.00  0.00    -0.039 NA
BRANCH  24  32
ATOM     29  C   UNL     1       1.725   2.018  -0.582  0.00  0.00    +0.000 A 
ATOM     30  C   UNL     1       2.506   2.217   0.542  0.00  0.00    +0.002 A 
ATOM     31  C   UNL     1       3.453   1.279   0.901  0.00  0.00    +0.028 A 
ATOM     32  C   UNL     1       3.621   0.135   0.133  0.00  0.00    +0.069 A 
ATOM     33  C   UNL     1       2.835  -0.062  -0.994  0.00  0.00    +0.028 A 
ATOM     34  C   UNL     1       1.889   0.879  -1.349  0.00  0.00    +0.002 A 
ENDBRANCH  24  32
ENDBRANCH   1  25
TORSDOF 3
