REMARK  Name = ZINC00850070
REMARK  11 active torsions:
REMARK  status: ('A' for Active; 'I' for Inactive)
REMARK    1  A    between atoms: C_1  and  C_2
REMARK    2  A    between atoms: C_5  and  C_8
REMARK    3  A    between atoms: C_8  and  S_9
REMARK    4  A    between atoms: S_9  and  C_10
REMARK    5  A    between atoms: N_14  and  C_15
REMARK    6  A    between atoms: C_15  and  C_16
REMARK    7  A    between atoms: C_16  and  C_18
REMARK    8  A    between atoms: C_16  and  O_30
REMARK    9  A    between atoms: C_18  and  O_19
REMARK   10  A    between atoms: O_19  and  C_20
REMARK   11  A    between atoms: N_37  and  C_38
REMARK                            x       y       z     vdW  Elec       q    Type
REMARK                         _______ _______ _______ _____ _____    ______ ____
ROOT
ATOM      1  C   UNL     1      -7.894   4.278  -1.299  0.00  0.00    +0.172 A 
ATOM      2  N   UNL     1      -8.948   5.012  -0.999  0.00  0.00    -0.204 NA
ATOM      3  C   UNL     1      -9.120   5.043   0.323  0.00  0.00    +0.169 A 
ATOM      4  C   UNL     1      -8.111   4.275   0.896  0.00  0.00    +0.152 A 
ATOM      5  N   UNL     1      -7.337   3.800  -0.153  0.00  0.00    -0.311 N 
ATOM      6  C   UNL     1      -8.058   4.146   2.295  0.00  0.00    +0.280 A 
ATOM      7  O   UNL     1      -7.181   3.481   2.819  0.00  0.00    -0.265 OA
ATOM      8  N   UNL     1      -8.991   4.761   3.051  0.00  0.00    -0.273 N 
ATOM      9  H   UNL     1      -8.958   4.668   4.046  0.00  0.00    +0.173 HD
ATOM     10  C   UNL     1      -9.964   5.497   2.487  0.00  0.00    +0.331 A 
ATOM     11  O   UNL     1     -10.788   6.037   3.200  0.00  0.00    -0.246 OA
ATOM     12  N   UNL     1     -10.049   5.651   1.152  0.00  0.00    -0.280 N 
ATOM     13  C   UNL     1     -11.125   6.462   0.576  0.00  0.00    +0.155 C 
ENDROOT
BRANCH   1  14
ATOM     14  S   UNL     1      -7.300   3.967  -2.928  0.00  0.00    -0.083 S 
BRANCH  14  15
ATOM     15  C   UNL     1      -8.515   4.903  -3.890  0.00  0.00    +0.112 C 
BRANCH  15  20
ATOM     16  C   UNL     1      -7.299   4.424  -9.519  0.00  0.00    +0.044 C 
ATOM     17  C   UNL     1      -7.616   4.549  -8.051  0.00  0.00    -0.050 A 
ATOM     18  C   UNL     1      -8.457   3.634  -7.445  0.00  0.00    +0.003 A 
ATOM     19  C   UNL     1      -8.748   3.749  -6.098  0.00  0.00    +0.005 A 
ATOM     20  C   UNL     1      -8.198   4.778  -5.357  0.00  0.00    -0.037 A 
ATOM     21  C   UNL     1      -7.361   5.696  -5.965  0.00  0.00    +0.005 A 
ATOM     22  C   UNL     1      -7.066   5.578  -7.310  0.00  0.00    +0.003 A 
ENDBRANCH  15  20
ENDBRANCH  14  15
ENDBRANCH   1  14
BRANCH   5  23
ATOM     23  C   UNL     1      -6.153   2.944  -0.049  0.00  0.00    +0.159 C 
BRANCH  23  24
ATOM     24  C   UNL     1      -4.901   3.816   0.069  0.00  0.00    +0.171 C 
BRANCH  24  25
ATOM     25  O   UNL     1      -4.947   4.551   1.294  0.00  0.00    -0.387 OA
ATOM     26  H   UNL     1      -4.982   3.995   2.085  0.00  0.00    +0.210 HD
ENDBRANCH  24  25
BRANCH  24  27
ATOM     27  C   UNL     1      -3.656   2.927   0.053  0.00  0.00    +0.262 C 
BRANCH  27  28
ATOM     28  O   UNL     1      -2.486   3.747   0.046  0.00  0.00    -0.489 OA
BRANCH  28  29
ATOM     29  C   UNL     1      -1.287   3.110   0.032  0.00  0.00    +0.128 A 
ATOM     30  C   UNL     1      -1.234   1.744   0.017  0.00  0.00    +0.046 A 
ATOM     31  C   UNL     1      -0.013   1.076   0.008  0.00  0.00    +0.004 A 
ATOM     32  C   UNL     1       1.164   1.762   0.000  0.00  0.00    +0.009 A 
ATOM     33  C   UNL     1       1.152   3.167   0.008  0.00  0.00    -0.014 A 
ATOM     34  C   UNL     1      -0.088   3.852   0.024  0.00  0.00    +0.024 A 
ATOM     35  C   UNL     1      -0.100   5.256   0.030  0.00  0.00    +0.012 A 
ATOM     36  C   UNL     1       1.077   5.940   0.022  0.00  0.00    +0.001 A 
ATOM     37  C   UNL     1       2.297   5.267   0.007  0.00  0.00    +0.001 A 
ATOM     38  C   UNL     1       2.347   3.907   0.000  0.00  0.00    +0.008 A 
ENDBRANCH  28  29
ENDBRANCH  27  28
ENDBRANCH  24  27
ENDBRANCH  23  24
ENDBRANCH   5  23
TORSDOF 9
