REMARK  Name = ZINC66898842
REMARK  6 active torsions:
REMARK  status: ('A' for Active; 'I' for Inactive)
REMARK    1  A    between atoms: C_1  and  C_2
REMARK    2  A    between atoms: C_6  and  C_30
REMARK    3  A    between atoms: C_7  and  N_8
REMARK    4  A    between atoms: C_9  and  C_13
REMARK    5  A    between atoms: C_13  and  N_14
REMARK    6  A    between atoms: C_18  and  C_20
REMARK                            x       y       z     vdW  Elec       q    Type
REMARK                         _______ _______ _______ _____ _____    ______ ____
ROOT
ATOM      1  N   UNL     1       1.376  -2.107   4.085  0.00  0.00    +0.389 N 
ATOM      2  C   UNL     1       1.837  -1.741   2.733  0.00  0.00    -0.077 C 
ATOM      3  C   UNL     1       2.735  -2.890   2.230  0.00  0.00    -0.020 C 
ATOM      4  C   UNL     1       3.191  -3.579   3.543  0.00  0.00    -0.012 C 
ATOM      5  C   UNL     1       1.926  -3.436   4.426  0.00  0.00    -0.033 C 
ATOM      6  H   UNL     1       1.703  -1.423   4.750  0.00  0.00    -0.080 HD
ENDROOT
BRANCH   5   7
ATOM      7  C   UNL     1       2.297  -3.491   5.886  0.00  0.00    -0.016 A 
ATOM      8  C   UNL     1       2.666  -2.335   6.549  0.00  0.00    +0.006 A 
ATOM      9  C   UNL     1       3.006  -2.382   7.887  0.00  0.00    +0.004 A 
ATOM     10  C   UNL     1       2.981  -3.585   8.568  0.00  0.00    +0.049 A 
ATOM     11  C   UNL     1       2.613  -4.748   7.909  0.00  0.00    +0.162 A 
ATOM     12  C   UNL     1       2.263  -4.700   6.564  0.00  0.00    +0.164 A 
ATOM     13  O   UNL     1       1.886  -5.827   5.902  0.00  0.00    -0.485 OA
ATOM     14  C   UNL     1       2.222  -7.077   6.515  0.00  0.00    +0.270 C 
ATOM     15  C   UNL     1       1.848  -6.999   8.001  0.00  0.00    +0.270 C 
ATOM     16  O   UNL     1       2.597  -5.926   8.591  0.00  0.00    -0.485 OA
ENDBRANCH   5   7
BRANCH   1  17
ATOM     17  C   UNL     1      -0.092  -2.159   4.109  0.00  0.00    +0.002 C 
BRANCH  17  19
ATOM     18  N   UNL     1      -1.072  -0.269   2.703  0.00  0.00    -0.199 N 
ATOM     19  C   UNL     1      -0.647  -0.777   3.880  0.00  0.00    +0.140 A 
ATOM     20  N   UNL     1      -0.808   0.153   4.785  0.00  0.00    -0.115 NA
ATOM     21  N   UNL     1      -1.305   1.214   4.260  0.00  0.00    -0.023 NA
ATOM     22  N   UNL     1      -1.490   1.041   2.995  0.00  0.00    -0.039 NA
BRANCH  18  29
ATOM     23  C   UNL     1      -2.816  -2.492   2.352  0.00  0.00    +0.046 C 
ATOM     24  C   UNL     1      -1.924  -1.997   1.242  0.00  0.00    -0.025 A 
ATOM     25  C   UNL     1      -1.942  -2.622   0.010  0.00  0.00    +0.005 A 
ATOM     26  C   UNL     1      -1.124  -2.169  -1.008  0.00  0.00    +0.001 A 
ATOM     27  C   UNL     1      -0.285  -1.089  -0.797  0.00  0.00    +0.005 A 
ATOM     28  C   UNL     1      -0.264  -0.460   0.433  0.00  0.00    -0.025 A 
ATOM     29  C   UNL     1      -1.088  -0.909   1.455  0.00  0.00    +0.075 A 
ATOM     30  C   UNL     1       0.650   0.716   0.662  0.00  0.00    +0.046 C 
ENDBRANCH  18  29
ENDBRANCH  17  19
ENDBRANCH   1  17
TORSDOF 4
