REMARK  Name = ZINC09317902
REMARK  7 active torsions:
REMARK  status: ('A' for Active; 'I' for Inactive)
REMARK    1  A    between atoms: C_1  and  C_2
REMARK    2  A    between atoms: C_2  and  C_3
REMARK    3  A    between atoms: C_2  and  C_4
REMARK    4  A    between atoms: C_2  and  C_5
REMARK    5  A    between atoms: C_5  and  C_7
REMARK    6  A    between atoms: C_9  and  C_31
REMARK    7  A    between atoms: C_31  and  C_33
REMARK                            x       y       z     vdW  Elec       q    Type
REMARK                         _______ _______ _______ _____ _____    ______ ____
ROOT
ATOM      1  C   UNL     1       3.764   2.035   0.691  0.00  0.00    +0.136 C 
ATOM      2  C   UNL     1       4.066   0.557   1.077  0.00  0.00    +0.108 C 
ATOM      3  C   UNL     1       3.286  -0.209  -0.012  0.00  0.00    +0.107 C 
ATOM      4  C   UNL     1       2.909  -1.584   0.397  0.00  0.00    -0.008 A 
ATOM      5  C   UNL     1       2.103  -2.088   1.400  0.00  0.00    +0.006 A 
ATOM      6  C   UNL     1       1.976  -3.468   1.502  0.00  0.00    +0.000 A 
ATOM      7  C   UNL     1       2.614  -4.318   0.621  0.00  0.00    +0.002 A 
ATOM      8  C   UNL     1       3.419  -3.833  -0.395  0.00  0.00    +0.023 A 
ATOM      9  C   UNL     1       3.561  -2.449  -0.497  0.00  0.00    +0.038 A 
ATOM     10  N   UNL     1       4.301  -1.726  -1.419  0.00  0.00    -0.284 N 
ATOM     11  C   UNL     1       4.204  -0.400  -1.208  0.00  0.00    +0.231 C 
ATOM     12  O   UNL     1       4.736   0.486  -1.842  0.00  0.00    -0.274 OA
ATOM     13  C   UNL     1       2.127   0.702  -0.404  0.00  0.00    +0.107 C 
ATOM     14  C   UNL     1       1.374   2.937   0.518  0.00  0.00    +0.054 C 
ATOM     15  C   UNL     1       0.109   2.497   0.649  0.00  0.00    +0.022 C 
ATOM     16  C   UNL     1      -0.174   1.054   0.519  0.00  0.00    -0.019 A 
ATOM     17  C   UNL     1       0.765   0.183  -0.051  0.00  0.00    -0.020 A 
ATOM     18  C   UNL     1       0.414  -1.130  -0.268  0.00  0.00    +0.006 A 
ATOM     19  C   UNL     1      -0.816  -1.611   0.150  0.00  0.00    +0.000 A 
ATOM     20  C   UNL     1      -1.706  -0.776   0.799  0.00  0.00    +0.001 A 
ATOM     21  C   UNL     1      -1.396   0.554   0.978  0.00  0.00    +0.008 A 
ATOM     22  H   UNL     1       4.827  -2.131  -2.127  0.00  0.00    +0.155 HD
ATOM     23  N   UNL     1       2.309   1.739   0.577  0.00  0.00    -0.384 NA
ATOM     24  H   UNL     1       2.062   1.289   1.466  0.00  0.00    +0.127 HD
ENDROOT
BRANCH   1  25
ATOM     25  C   UNL     1       3.953   2.938   1.881  0.00  0.00    +0.158 C 
ATOM     26  O   UNL     1       3.002   3.266   2.548  0.00  0.00    -0.295 OA
BRANCH  25  28
ATOM     27  C   UNL     1       5.230   4.430   3.395  0.00  0.00    +0.018 C 
ATOM     28  C   UNL     1       5.331   3.432   2.240  0.00  0.00    +0.022 C 
ATOM     29  C   UNL     1       6.203   2.249   2.663  0.00  0.00    +0.018 C 
ATOM     30  C   UNL     1       5.958   4.120   1.026  0.00  0.00    +0.018 C 
ENDBRANCH  25  28
ENDBRANCH   1  25
BRANCH   2  31
ATOM     31  C   UNL     1       3.585   0.266   2.469  0.00  0.00    +0.170 C 
ATOM     32  O   UNL     1       2.615   0.846   2.909  0.00  0.00    -0.292 OA
BRANCH  31  33
ATOM     33  C   UNL     1       4.290  -0.723   3.300  0.00  0.00    +0.018 A 
ATOM     34  C   UNL     1       5.454  -1.337   2.826  0.00  0.00    +0.011 A 
ATOM     35  C   UNL     1       6.113  -2.258   3.613  0.00  0.00    +0.001 A 
ATOM     36  C   UNL     1       5.618  -2.584   4.863  0.00  0.00    +0.000 A 
ATOM     37  C   UNL     1       4.464  -1.986   5.337  0.00  0.00    +0.001 A 
ATOM     38  C   UNL     1       3.797  -1.059   4.564  0.00  0.00    +0.011 A 
ENDBRANCH  31  33
ENDBRANCH   2  31
TORSDOF 4
