REMARK  Name = ZINC06077045
REMARK  14 active torsions:
REMARK  status: ('A' for Active; 'I' for Inactive)
REMARK    1  A    between atoms: C_1  and  C_2
REMARK    2  A    between atoms: C_2  and  C_3
REMARK    3  A    between atoms: C_2  and  C_4
REMARK    4  A    between atoms: C_7  and  N_10
REMARK    5  A    between atoms: N_10  and  C_11
REMARK    6  A    between atoms: C_11  and  C_13
REMARK    7  A    between atoms: C_11  and  C_19
REMARK    8  A    between atoms: N_21  and  C_22
REMARK    9  A    between atoms: C_22  and  C_23
REMARK   10  A    between atoms: C_22  and  C_24
REMARK   11  A    between atoms: C_22  and  C_25
REMARK   12  A    between atoms: C_26  and  C_28
REMARK   13  A    between atoms: C_29  and  N_36
REMARK   14  A    between atoms: C_30  and  C_33
REMARK                            x       y       z     vdW  Elec       q    Type
REMARK                         _______ _______ _______ _____ _____    ______ ____
ROOT
ATOM      1  N   UNL     1      -3.760   1.403  -0.608  0.00  0.00    -0.251 N 
ATOM      2  C   UNL     1      -4.287   2.640  -0.515  0.00  0.00    +0.262 C 
ATOM      3  O   UNL     1      -5.197   2.971  -1.253  0.00  0.00    -0.269 OA
ENDROOT
BRANCH   1   7
ATOM      4  C   UNL     1      -4.968  -1.151  -3.668  0.00  0.00    -0.045 A 
ATOM      5  C   UNL     1      -5.616   0.056  -3.481  0.00  0.00    +0.006 A 
ATOM      6  C   UNL     1      -5.219   0.905  -2.467  0.00  0.00    +0.024 A 
ATOM      7  C   UNL     1      -4.166   0.546  -1.635  0.00  0.00    +0.038 A 
ATOM      8  C   UNL     1      -3.513  -0.665  -1.830  0.00  0.00    +0.024 A 
ATOM      9  C   UNL     1      -3.920  -1.512  -2.842  0.00  0.00    +0.006 A 
BRANCH   4  11
ATOM     10  C   UNL     1      -4.238  -2.307  -5.737  0.00  0.00    +0.012 C 
ATOM     11  C   UNL     1      -5.405  -2.075  -4.776  0.00  0.00    +0.013 C 
ATOM     12  C   UNL     1      -5.846  -3.413  -4.179  0.00  0.00    +0.012 C 
ENDBRANCH   4  11
ENDBRANCH   1   7
BRANCH   2  13
ATOM     13  C   UNL     1      -3.766   3.586   0.474  0.00  0.00    +0.116 A 
ATOM     14  C   UNL     1      -4.295   4.808   0.894  0.00  0.00    +0.076 A 
ATOM     15  C   UNL     1      -3.504   5.427   1.862  0.00  0.00    +0.155 A 
ATOM     16  N   UNL     1      -2.401   4.837   2.265  0.00  0.00    -0.203 NA
ATOM     17  S   UNL     1      -2.293   3.481   1.469  0.00  0.00    +0.019 S 
BRANCH  15  18
ATOM     18  C   UNL     1      -3.902   6.729   2.427  0.00  0.00    +0.262 C 
ATOM     19  O   UNL     1      -4.923   7.270   2.050  0.00  0.00    -0.269 OA
ATOM     20  N   UNL     1      -3.132   7.321   3.363  0.00  0.00    -0.324 N 
ATOM     21  H   UNL     1      -2.317   6.890   3.664  0.00  0.00    +0.145 HD
ATOM     22  H   UNL     1      -3.394   8.178   3.734  0.00  0.00    +0.145 HD
ENDBRANCH  15  18
BRANCH  14  23
ATOM     23  N   UNL     1      -5.476   5.347   0.403  0.00  0.00    -0.355 N 
ATOM     24  H   UNL     1      -5.984   4.869  -0.271  0.00  0.00    +0.142 HD
ATOM     25  H   UNL     1      -5.794   6.202   0.734  0.00  0.00    +0.142 HD
ENDBRANCH  14  23
ENDBRANCH   2  13
BRANCH   1  26
ATOM     26  C   UNL     1      -2.763   0.957   0.368  0.00  0.00    +0.198 C 
BRANCH  26  27
ATOM     27  C   UNL     1      -1.429   0.796  -0.315  0.00  0.00    -0.015 A 
ATOM     28  C   UNL     1      -1.347   0.690  -1.695  0.00  0.00    +0.025 A 
ATOM     29  C   UNL     1      -0.106   0.548  -2.287  0.00  0.00    +0.111 A 
ATOM     30  N   UNL     1       0.990   0.504  -1.554  0.00  0.00    -0.263 NA
ATOM     31  C   UNL     1       0.949   0.597  -0.240  0.00  0.00    +0.111 A 
ATOM     32  C   UNL     1      -0.256   0.746   0.421  0.00  0.00    +0.025 A 
ENDBRANCH  26  27
BRANCH  26  33
ATOM     33  C   UNL     1      -3.189  -0.364   0.954  0.00  0.00    +0.239 C 
ATOM     34  O   UNL     1      -4.181  -0.921   0.536  0.00  0.00    -0.273 OA
ATOM     35  N   UNL     1      -2.467  -0.926   1.944  0.00  0.00    -0.309 N 
ATOM     36  H   UNL     1      -1.674  -0.480   2.279  0.00  0.00    +0.149 HD
BRANCH  35  37
ATOM     37  C   UNL     1      -2.885  -2.208   2.518  0.00  0.00    +0.026 C 
ATOM     38  C   UNL     1      -2.898  -3.277   1.424  0.00  0.00    +0.031 C 
ATOM     39  C   UNL     1      -1.905  -2.616   3.620  0.00  0.00    +0.031 C 
ATOM     40  C   UNL     1      -4.289  -2.067   3.111  0.00  0.00    +0.031 C 
ENDBRANCH  35  37
ENDBRANCH  26  33
ENDBRANCH   1  26
TORSDOF 9
