REMARK  Name = ZINC35153982
REMARK  12 active torsions:
REMARK  status: ('A' for Active; 'I' for Inactive)
REMARK    1  A    between atoms: C_1  and  C_2
REMARK    2  A    between atoms: C_5  and  C_8
REMARK    3  A    between atoms: C_8  and  N_9
REMARK    4  A    between atoms: N_9  and  C_10
REMARK    5  A    between atoms: N_9  and  C_25
REMARK    6  A    between atoms: C_10  and  C_11
REMARK    7  A    between atoms: C_11  and  C_12
REMARK    8  A    between atoms: C_12  and  C_13
REMARK    9  A    between atoms: C_12  and  C_19
REMARK   10  A    between atoms: C_25  and  C_26
REMARK   11  A    between atoms: C_28  and  C_31
REMARK   12  A    between atoms: N_33  and  C_34
REMARK                            x       y       z     vdW  Elec       q    Type
REMARK                         _______ _______ _______ _____ _____    ______ ____
ROOT
ATOM      1  N   UNL     1       3.272  -5.288   1.153  0.00  0.00    +0.386 N 
ATOM      2  H   UNL     1       3.754  -4.584   0.614  0.00  0.00    -0.081 HD
ENDROOT
BRANCH   1   3
ATOM      3  C   UNL     1       2.324  -4.640   2.069  0.00  0.00    -0.042 C 
BRANCH   3   8
ATOM      4  C   UNL     1       5.128  -0.783   5.334  0.00  0.00    +0.044 C 
ATOM      5  C   UNL     1       4.397  -1.789   4.482  0.00  0.00    -0.050 A 
ATOM      6  C   UNL     1       3.988  -1.447   3.207  0.00  0.00    +0.003 A 
ATOM      7  C   UNL     1       3.317  -2.370   2.426  0.00  0.00    +0.002 A 
ATOM      8  C   UNL     1       3.056  -3.634   2.920  0.00  0.00    -0.064 A 
ATOM      9  C   UNL     1       3.466  -3.977   4.195  0.00  0.00    +0.002 A 
ATOM     10  C   UNL     1       4.141  -3.055   4.975  0.00  0.00    +0.003 A 
ENDBRANCH   3   8
ENDBRANCH   1   3
BRANCH   1  11
ATOM     11  C   UNL     1       2.542  -6.184   0.246  0.00  0.00    -0.077 C 
BRANCH  11  12
ATOM     12  C   UNL     1       1.614  -5.358  -0.648  0.00  0.00    -0.006 C 
BRANCH  12  13
ATOM     13  C   UNL     1       0.854  -6.291  -1.593  0.00  0.00    +0.047 C 
BRANCH  13  14
ATOM     14  C   UNL     1      -0.057  -7.184  -0.791  0.00  0.00    -0.040 A 
ATOM     15  C   UNL     1       0.028  -8.557  -0.926  0.00  0.00    +0.004 A 
ATOM     16  C   UNL     1      -0.808  -9.377  -0.190  0.00  0.00    +0.000 A 
ATOM     17  C   UNL     1      -1.728  -8.823   0.680  0.00  0.00    +0.000 A 
ATOM     18  C   UNL     1      -1.812  -7.450   0.816  0.00  0.00    +0.000 A 
ATOM     19  C   UNL     1      -0.974  -6.631   0.083  0.00  0.00    +0.004 A 
ENDBRANCH  13  14
BRANCH  13  20
ATOM     20  C   UNL     1       0.033  -5.471  -2.556  0.00  0.00    -0.040 A 
ATOM     21  C   UNL     1      -0.808  -4.483  -2.079  0.00  0.00    +0.004 A 
ATOM     22  C   UNL     1      -1.561  -3.731  -2.962  0.00  0.00    +0.000 A 
ATOM     23  C   UNL     1      -1.471  -3.967  -4.321  0.00  0.00    +0.000 A 
ATOM     24  C   UNL     1      -0.629  -4.954  -4.798  0.00  0.00    +0.000 A 
ATOM     25  C   UNL     1       0.127  -5.703  -3.915  0.00  0.00    +0.004 A 
ENDBRANCH  13  20
ENDBRANCH  12  13
ENDBRANCH  11  12
ENDBRANCH   1  11
BRANCH   1  26
ATOM     26  C   UNL     1       4.248  -6.066   1.927  0.00  0.00    -0.014 C 
BRANCH  26  27
ATOM     27  C   UNL     1       5.296  -6.624   0.999  0.00  0.00    +0.063 A 
ATOM     28  N   UNL     1       6.375  -6.037   0.558  0.00  0.00    -0.241 NA
ATOM     29  C   UNL     1       7.178  -6.719  -0.265  0.00  0.00    +0.133 A 
ATOM     30  C   UNL     1       6.782  -7.994  -0.571  0.00  0.00    +0.079 A 
ATOM     31  S   UNL     1       5.353  -8.148   0.298  0.00  0.00    -0.082 S 
BRANCH  29  32
ATOM     32  C   UNL     1       8.414  -6.135  -0.811  0.00  0.00    +0.263 C 
ATOM     33  O   UNL     1       9.069  -6.751  -1.630  0.00  0.00    -0.269 OA
ATOM     34  N   UNL     1       8.821  -4.916  -0.402  0.00  0.00    -0.307 N 
ATOM     35  H   UNL     1       8.340  -4.456   0.304  0.00  0.00    +0.149 HD
BRANCH  34  36
ATOM     36  C   UNL     1       9.989  -4.287  -1.024  0.00  0.00    +0.073 C 
ATOM     37  C   UNL     1      11.262  -4.781  -0.335  0.00  0.00    +0.022 C 
ATOM     38  C   UNL     1      12.481  -4.124  -0.985  0.00  0.00    +0.002 C 
ATOM     39  C   UNL     1      12.380  -2.605  -0.839  0.00  0.00    +0.000 C 
ATOM     40  C   UNL     1      11.107  -2.110  -1.528  0.00  0.00    +0.002 C 
ATOM     41  C   UNL     1       9.887  -2.767  -0.879  0.00  0.00    +0.022 C 
ENDBRANCH  34  36
ENDBRANCH  29  32
ENDBRANCH  26  27
ENDBRANCH   1  26
TORSDOF 11
