REMARK  Name = ZINC32683618
REMARK  4 active torsions:
REMARK  status: ('A' for Active; 'I' for Inactive)
REMARK    1  A    between atoms: C_1  and  C_2
REMARK    2  A    between atoms: N_6  and  C_7
REMARK    3  A    between atoms: C_7  and  C_8
REMARK    4  A    between atoms: C_13  and  C_16
REMARK                            x       y       z     vdW  Elec       q    Type
REMARK                         _______ _______ _______ _____ _____    ______ ____
ROOT
ATOM      1  C   UNL     1      -0.718   1.572   1.248  0.00  0.00    +0.240 C 
ATOM      2  O   UNL     1      -1.714   2.256   1.150  0.00  0.00    -0.273 OA
ATOM      3  N   UNL     1      -0.242   1.246   2.466  0.00  0.00    -0.263 N 
ATOM      4  C   UNL     1      -0.892   1.694   3.609  0.00  0.00    +0.165 A 
ATOM      5  N   UNL     1      -0.589   1.488   4.877  0.00  0.00    -0.225 NA
ATOM      6  C   UNL     1      -1.328   1.996   5.852  0.00  0.00    +0.080 A 
ATOM      7  C   UNL     1      -2.425   2.749   5.539  0.00  0.00    +0.076 A 
ATOM      8  S   UNL     1      -2.356   2.709   3.753  0.00  0.00    -0.060 S 
ATOM      9  H   UNL     1       0.662   0.625   2.555  0.00  0.00    +0.157 HD
ENDROOT
BRANCH   6  10
ATOM     10  C   UNL     1      -0.968   1.751   7.270  0.00  0.00    +0.001 A 
ATOM     11  C   UNL     1      -1.744   2.293   8.292  0.00  0.00    +0.011 A 
ATOM     12  C   UNL     1      -1.407   2.059   9.610  0.00  0.00    +0.016 A 
ATOM     13  C   UNL     1      -0.295   1.295   9.916  0.00  0.00    +0.018 A 
ATOM     14  C   UNL     1       0.482   0.758   8.905  0.00  0.00    +0.016 A 
ATOM     15  C   UNL     1       0.152   0.983   7.584  0.00  0.00    +0.011 A 
ATOM     16 BR   UNL     1       0.166   0.984  11.724  0.00  0.00    -0.050 Br
ENDBRANCH   6  10
BRANCH   1  17
ATOM     17  C   UNL     1      -0.013   1.086   0.008  0.00  0.00    +0.241 C 
BRANCH  17  23
ATOM     18  C   UNL     1       0.529   3.764  -1.473  0.00  0.00    +0.088 C 
ATOM     19  C   UNL     1      -0.502   2.725  -1.833  0.00  0.00    +0.127 A 
ATOM     20  N   UNL     1      -1.339   2.789  -2.836  0.00  0.00    -0.191 NA
ATOM     21  C   UNL     1      -2.105   1.699  -2.855  0.00  0.00    +0.328 A 
ATOM     22  N   UNL     1      -1.761   0.920  -1.863  0.00  0.00    -0.125 NA
ATOM     23  N   UNL     1      -0.721   1.571  -1.179  0.00  0.00    -0.238 N 
ATOM     24  N   UNL     1      -3.169   1.413  -3.844  0.00  0.00    +0.096 N 
ATOM     25  O   UNL     1      -3.403   2.210  -4.734  0.00  0.00    -0.123 OA
ATOM     26  O   UNL     1      -3.811   0.381  -3.766  0.00  0.00    -0.123 OA
ENDBRANCH  17  23
ENDBRANCH   1  17
TORSDOF 3
