REMARK  Name = ZINC09723301
REMARK  10 active torsions:
REMARK  status: ('A' for Active; 'I' for Inactive)
REMARK    1  A    between atoms: C_1  and  O_2
REMARK    2  A    between atoms: O_2  and  C_3
REMARK    3  A    between atoms: C_3  and  C_4
REMARK    4  A    between atoms: C_4  and  N_5
REMARK    5  A    between atoms: C_9  and  S_25
REMARK    6  A    between atoms: N_14  and  C_15
REMARK    7  A    between atoms: C_15  and  C_17
REMARK    8  A    between atoms: C_20  and  O_23
REMARK    9  A    between atoms: O_23  and  C_24
REMARK   10  A    between atoms: S_25  and  N_28
REMARK                            x       y       z     vdW  Elec       q    Type
REMARK                         _______ _______ _______ _____ _____    ______ ____
ROOT
ATOM      1  N   UNL     1      -0.628   1.546  -1.239  0.00  0.00    -0.319 N 
ATOM      2  C   UNL     1       0.165   1.857  -2.328  0.00  0.00    +0.058 A 
ATOM      3  C   UNL     1       1.563   1.785  -2.435  0.00  0.00    +0.029 A 
ATOM      4  C   UNL     1       2.197   2.128  -3.605  0.00  0.00    +0.030 A 
ATOM      5  C   UNL     1       1.480   2.550  -4.713  0.00  0.00    +0.106 A 
ATOM      6  C   UNL     1       0.101   2.625  -4.637  0.00  0.00    +0.045 A 
ATOM      7  C   UNL     1      -0.534   2.281  -3.467  0.00  0.00    +0.041 A 
ATOM      8  S   UNL     1      -2.230   2.231  -2.946  0.00  0.00    -0.052 S 
ATOM      9  C   UNL     1      -1.981   1.673  -1.323  0.00  0.00    +0.167 A 
ATOM     10  N   UNL     1      -2.891   1.427  -0.387  0.00  0.00    -0.152 NA
ENDROOT
BRANCH   5  11
ATOM     11  S   UNL     1       2.316   2.984  -6.202  0.00  0.00    +0.056 S 
ATOM     12  O   UNL     1       3.563   2.304  -6.181  0.00  0.00    -0.153 OA
ATOM     13  O   UNL     1       1.377   2.821  -7.257  0.00  0.00    -0.153 OA
BRANCH  11  14
ATOM     14  N   UNL     1       2.657   4.602  -6.118  0.00  0.00    -0.204 NA
ATOM     15  H   UNL     1       2.393   5.114  -5.337  0.00  0.00    +0.144 HD
ATOM     16  H   UNL     1       3.120   5.039  -6.850  0.00  0.00    +0.144 HD
ENDBRANCH  11  14
ENDBRANCH   5  11
BRANCH  10  17
ATOM     17  C   UNL     1      -4.189   1.610  -0.652  0.00  0.00    +0.269 C 
ATOM     18  O   UNL     1      -4.537   2.002  -1.753  0.00  0.00    -0.268 OA
BRANCH  17  19
ATOM     19  C   UNL     1      -5.202   1.336   0.390  0.00  0.00    +0.039 A 
ATOM     20  C   UNL     1      -4.806   0.881   1.649  0.00  0.00    +0.017 A 
ATOM     21  C   UNL     1      -5.752   0.631   2.619  0.00  0.00    +0.046 A 
ATOM     22  C   UNL     1      -7.101   0.822   2.341  0.00  0.00    +0.120 A 
ATOM     23  C   UNL     1      -7.499   1.270   1.088  0.00  0.00    +0.046 A 
ATOM     24  C   UNL     1      -6.558   1.527   0.115  0.00  0.00    +0.017 A 
BRANCH  22  25
ATOM     25  O   UNL     1      -8.030   0.571   3.298  0.00  0.00    -0.495 OA
ATOM     26  C   UNL     1      -7.552   0.112   4.564  0.00  0.00    +0.277 C 
ENDBRANCH  22  25
ENDBRANCH  17  19
ENDBRANCH  10  17
BRANCH   1  27
ATOM     27  C   UNL     1      -0.013   1.086   0.008  0.00  0.00    +0.152 C 
BRANCH  27  28
ATOM     28  C   UNL     1      -0.782   1.660   1.199  0.00  0.00    +0.181 C 
BRANCH  28  30
ATOM     29  C   UNL     1      -0.745   1.814   3.591  0.00  0.00    +0.194 C 
ATOM     30  O   UNL     1      -0.105   1.323   2.411  0.00  0.00    -0.381 OA
ENDBRANCH  28  30
ENDBRANCH  27  28
ENDBRANCH   1  27
TORSDOF 8
