REMARK  Name = ZINC03377420
REMARK  6 active torsions:
REMARK  status: ('A' for Active; 'I' for Inactive)
REMARK    1  A    between atoms: C_3  and  S_6
REMARK    2  A    between atoms: S_6  and  N_9
REMARK    3  A    between atoms: C_12  and  C_15
REMARK    4  A    between atoms: C_15  and  O_17
REMARK    5  A    between atoms: O_17  and  C_18
REMARK    6  A    between atoms: C_18  and  C_19
REMARK                            x       y       z     vdW  Elec       q    Type
REMARK                         _______ _______ _______ _____ _____    ______ ____
ROOT
ATOM      1  O   UNL     1      -2.134   8.144  -4.673  0.00  0.00    -0.457 OA
ENDROOT
BRANCH   1   2
ATOM      2  C   UNL     1      -2.398   9.163  -5.506  0.00  0.00    +0.311 C 
ATOM      3  O   UNL     1      -2.564   8.952  -6.684  0.00  0.00    -0.251 OA
BRANCH   2   7
ATOM      4  N   UNL     1      -3.816  13.015  -4.475  0.00  0.00    -0.176 NA
ATOM      5  C   UNL     1      -2.851  12.964  -5.581  0.00  0.00    +0.110 C 
ATOM      6  C   UNL     1      -2.795  11.532  -6.122  0.00  0.00    +0.032 C 
ATOM      7  C   UNL     1      -2.486  10.569  -4.973  0.00  0.00    +0.100 C 
ATOM      8  C   UNL     1      -3.600  10.648  -3.926  0.00  0.00    +0.032 C 
ATOM      9  C   UNL     1      -3.664  12.070  -3.360  0.00  0.00    +0.110 C 
BRANCH   4  10
ATOM     10  S   UNL     1      -5.052  14.117  -4.484  0.00  0.00    +0.067 S 
ATOM     11  O   UNL     1      -5.435  14.309  -3.129  0.00  0.00    -0.152 OA
ATOM     12  O   UNL     1      -4.634  15.190  -5.317  0.00  0.00    -0.152 OA
BRANCH  10  15
ATOM     13  C   UNL     1      -8.404  12.114  -5.592  0.00  0.00    +0.010 A 
ATOM     14  C   UNL     1      -7.421  12.612  -4.758  0.00  0.00    +0.036 A 
ATOM     15  C   UNL     1      -6.422  13.357  -5.291  0.00  0.00    +0.143 A 
ATOM     16  S   UNL     1      -6.849  13.362  -7.024  0.00  0.00    -0.077 S 
ATOM     17  C   UNL     1      -8.334  12.377  -6.920  0.00  0.00    +0.047 A 
ENDBRANCH  10  15
ENDBRANCH   4  10
ENDBRANCH   2   7
ENDBRANCH   1   2
BRANCH   1  18
ATOM     18  C   UNL     1      -2.063   6.816  -5.257  0.00  0.00    +0.306 C 
BRANCH  18  19
ATOM     19  C   UNL     1      -1.760   5.809  -4.178  0.00  0.00    +0.149 A 
ATOM     20  N   UNL     1      -1.653   4.503  -4.524  0.00  0.00    -0.308 N 
ATOM     21  H   UNL     1      -1.779   4.253  -5.484  0.00  0.00    +0.170 HD
ATOM     22  C   UNL     1      -1.383   3.522  -3.631  0.00  0.00    +0.260 A 
ATOM     23  O   UNL     1      -1.290   2.352  -3.962  0.00  0.00    -0.267 OA
ATOM     24  C   UNL     1      -1.213   3.947  -2.271  0.00  0.00    +0.075 A 
ATOM     25  C   UNL     1      -0.921   3.104  -1.126  0.00  0.00    -0.023 A 
ATOM     26  C   UNL     1      -0.804   3.725   0.071  0.00  0.00    -0.004 A 
ATOM     27  S   UNL     1      -1.075   5.446  -0.270  0.00  0.00    -0.073 S 
ATOM     28  C   UNL     1      -1.344   5.329  -2.010  0.00  0.00    +0.116 A 
ATOM     29  N   UNL     1      -1.611   6.237  -2.944  0.00  0.00    -0.223 NA
ATOM     30  C   UNL     1      -0.509   3.093   1.397  0.00  0.00    +0.043 C 
ATOM     31  C   UNL     1      -0.726   1.578   1.270  0.00  0.00    +0.005 C 
ATOM     32  C   UNL     1      -0.013   1.086   0.008  0.00  0.00    +0.005 C 
ATOM     33  C   UNL     1      -0.749   1.591  -1.233  0.00  0.00    +0.037 C 
ENDBRANCH  18  19
ENDBRANCH   1  18
TORSDOF 6
