REMARK  Name = ZINC02241043
REMARK  6 active torsions:
REMARK  status: ('A' for Active; 'I' for Inactive)
REMARK    1  A    between atoms: C_7  and  C_18
REMARK    2  A    between atoms: C_7  and  O_28
REMARK    3  A    between atoms: N_10  and  C_11
REMARK    4  A    between atoms: C_11  and  N_54
REMARK    5  A    between atoms: C_18  and  C_19
REMARK    6  A    between atoms: C_19  and  C_21
REMARK                            x       y       z     vdW  Elec       q    Type
REMARK                         _______ _______ _______ _____ _____    ______ ____
ROOT
ATOM      1  C   UNL     1       6.971   3.186  -0.854  0.00  0.00    +0.000 A 
ATOM      2  C   UNL     1       6.302   1.983  -0.720  0.00  0.00    +0.002 A 
ATOM      3  C   UNL     1       4.935   1.922  -0.896  0.00  0.00    +0.024 A 
ATOM      4  C   UNL     1       4.218   3.075  -1.210  0.00  0.00    +0.041 A 
ATOM      5  C   UNL     1       4.902   4.277  -1.341  0.00  0.00    +0.014 A 
ATOM      6  C   UNL     1       6.266   4.335  -1.165  0.00  0.00    +0.009 A 
ATOM      7  C   UNL     1       3.864   5.322  -1.680  0.00  0.00    +0.175 C 
ATOM      8  C   UNL     1       2.563   4.549  -1.719  0.00  0.00    +0.255 C 
ATOM      9  O   UNL     1       1.463   5.000  -1.961  0.00  0.00    -0.272 OA
ATOM     10  N   UNL     1       2.855   3.268  -1.433  0.00  0.00    -0.285 N 
ENDROOT
BRANCH   7  11
ATOM     11  O   UNL     1       4.137   5.904  -2.955  0.00  0.00    -0.374 OA
ATOM     12  H   UNL     1       3.501   6.582  -3.223  0.00  0.00    +0.211 HD
ENDBRANCH   7  11
BRANCH  10  13
ATOM     13  C   UNL     1       1.857   2.198  -1.370  0.00  0.00    +0.038 C 
BRANCH  13  20
ATOM     14  C   UNL     1      -0.018   1.500   0.010  0.00  0.00    -0.077 C 
ATOM     15  C   UNL     1       0.002  -0.004   0.002  0.00  0.00    -0.019 C 
ATOM     16  C   UNL     1      -0.073  -0.502   1.460  0.00  0.00    -0.002 C 
ATOM     17  C   UNL     1       1.214  -0.409   2.141  0.00  0.00    -0.002 C 
ATOM     18  C   UNL     1       1.727   1.044   2.221  0.00  0.00    -0.019 C 
ATOM     19  C   UNL     1       2.312   1.418   0.886  0.00  0.00    -0.077 C 
ATOM     20  N   UNL     1       1.337   2.148   0.006  0.00  0.00    +0.390 N 
ATOM     21  H   UNL     1       1.239   3.107   0.358  0.00  0.00    -0.080 HD
ENDBRANCH  13  20
ENDBRANCH  10  13
BRANCH   7  22
ATOM     22  C   UNL     1       3.818   6.402  -0.597  0.00  0.00    +0.129 C 
BRANCH  22  23
ATOM     23  C   UNL     1       2.695   7.363  -0.893  0.00  0.00    +0.167 C 
ATOM     24  O   UNL     1       2.000   7.199  -1.873  0.00  0.00    -0.292 OA
BRANCH  23  25
ATOM     25  C   UNL     1       2.443   8.498   0.006  0.00  0.00    +0.018 A 
ATOM     26  C   UNL     1       3.239   8.686   1.141  0.00  0.00    +0.014 A 
ATOM     27  C   UNL     1       3.001   9.755   1.976  0.00  0.00    +0.039 A 
ATOM     28  C   UNL     1       1.966  10.637   1.701  0.00  0.00    +0.123 A 
ATOM     29  C   UNL     1       1.169  10.453   0.581  0.00  0.00    +0.039 A 
ATOM     30  C   UNL     1       1.401   9.392  -0.266  0.00  0.00    +0.014 A 
ATOM     31  F   UNL     1       1.734  11.680   2.528  0.00  0.00    -0.205 F 
ENDBRANCH  23  25
ENDBRANCH  22  23
ENDBRANCH   7  22
TORSDOF 6
