REMARK  Name = ZINC62791419
REMARK  7 active torsions:
REMARK  status: ('A' for Active; 'I' for Inactive)
REMARK    1  A    between atoms: C_3  and  N_21
REMARK    2  A    between atoms: C_6  and  C_7
REMARK    3  A    between atoms: C_7  and  C_9
REMARK    4  A    between atoms: C_7  and  O_20
REMARK    5  A    between atoms: C_9  and  N_10
REMARK    6  A    between atoms: N_10  and  C_11
REMARK    7  A    between atoms: C_14  and  C_18
REMARK                            x       y       z     vdW  Elec       q    Type
REMARK                         _______ _______ _______ _____ _____    ______ ____
ROOT
ATOM      1  C   UNL     1      -1.294  -0.774   0.011  0.00  0.00    +0.161 C 
ENDROOT
BRANCH   1   7
ATOM      2  C   UNL     1      -0.017   1.379   0.010  0.00  0.00    +0.008 A 
ATOM      3  C   UNL     1       1.169   2.087   0.002  0.00  0.00    +0.023 A 
ATOM      4  C   UNL     1       2.381   1.409  -0.013  0.00  0.00    +0.025 A 
ATOM      5  C   UNL     1       2.396   0.020  -0.021  0.00  0.00    +0.023 A 
ATOM      6  C   UNL     1       1.207  -0.682  -0.013  0.00  0.00    +0.008 A 
ATOM      7  C   UNL     1       0.002  -0.004   0.002  0.00  0.00    -0.018 A 
BRANCH   4   8
ATOM      8  N   UNL     1       3.582   2.122  -0.021  0.00  0.00    -0.358 N 
ATOM      9  H   UNL     1       3.570   3.092  -0.016  0.00  0.00    +0.142 HD
ATOM     10  H   UNL     1       4.428   1.647  -0.032  0.00  0.00    +0.142 HD
ENDBRANCH   4   8
ENDBRANCH   1   7
BRANCH   1  11
ATOM     11  O   UNL     1      -1.147  -1.962  -0.770  0.00  0.00    -0.386 OA
ATOM     12  H   UNL     1      -0.458  -2.560  -0.450  0.00  0.00    +0.210 HD
ENDBRANCH   1  11
BRANCH   1  13
ATOM     13  C   UNL     1      -1.654  -1.150   1.449  0.00  0.00    +0.137 C 
BRANCH  13  14
ATOM     14  N   UNL     1      -2.913  -1.898   1.458  0.00  0.00    -0.340 N 
ATOM     15  H   UNL     1      -3.376  -2.078   0.625  0.00  0.00    +0.146 HD
BRANCH  14  16
ATOM     16  C   UNL     1      -3.446  -2.350   2.662  0.00  0.00    +0.046 A 
ATOM     17  C   UNL     1      -2.784  -2.086   3.857  0.00  0.00    +0.025 A 
ATOM     18  C   UNL     1      -3.309  -2.531   5.050  0.00  0.00    +0.021 A 
ATOM     19  C   UNL     1      -4.508  -3.250   5.060  0.00  0.00    +0.053 A 
ATOM     20  C   UNL     1      -5.171  -3.514   3.858  0.00  0.00    +0.040 A 
ATOM     21  C   UNL     1      -4.644  -3.061   2.668  0.00  0.00    +0.063 A 
ATOM     22 CL   UNL     1      -5.470  -3.382   1.175  0.00  0.00    -0.082 Cl
BRANCH  19  23
ATOM     23  C   UNL     1      -5.055  -3.715   6.299  0.00  0.00    +0.099 C 
ATOM     24  N   UNL     1      -5.490  -4.083   7.281  0.00  0.00    -0.191 NA
ENDBRANCH  19  23
ENDBRANCH  14  16
ENDBRANCH  13  14
ENDBRANCH   1  13
TORSDOF 7
