REMARK  Name = ZINC11883164
REMARK  13 active torsions:
REMARK  status: ('A' for Active; 'I' for Inactive)
REMARK    1  A    between atoms: C_1  and  C_2
REMARK    2  A    between atoms: C_2  and  O_3
REMARK    3  A    between atoms: O_3  and  C_4
REMARK    4  A    between atoms: C_4  and  C_6
REMARK    5  A    between atoms: C_10  and  N_11
REMARK    6  A    between atoms: C_12  and  C_14
REMARK    7  A    between atoms: C_17  and  S_20
REMARK    8  A    between atoms: S_20  and  N_23
REMARK    9  A    between atoms: N_23  and  C_24
REMARK   10  A    between atoms: N_23  and  C_31
REMARK   11  A    between atoms: C_24  and  C_25
REMARK   12  A    between atoms: C_31  and  C_32
REMARK   13  A    between atoms: C_31  and  C_33
REMARK                            x       y       z     vdW  Elec       q    Type
REMARK                         _______ _______ _______ _____ _____    ______ ____
ROOT
ATOM      1  C   UNL     1       1.750   6.026  -0.094  0.00  0.00    +0.037 A 
ATOM      2  C   UNL     1       3.142   5.913  -0.103  0.00  0.00    +0.015 A 
ATOM      3  C   UNL     1       3.923   7.050  -0.135  0.00  0.00    +0.029 A 
ATOM      4  C   UNL     1       3.330   8.300  -0.146  0.00  0.00    +0.106 A 
ATOM      5  C   UNL     1       1.952   8.419  -0.132  0.00  0.00    +0.029 A 
ATOM      6  C   UNL     1       1.159   7.290  -0.105  0.00  0.00    +0.015 A 
ENDROOT
BRANCH   1   8
ATOM      7  N   UNL     1       1.481   3.593  -0.054  0.00  0.00    -0.275 N 
ATOM      8  C   UNL     1       0.907   4.812  -0.065  0.00  0.00    +0.249 C 
ATOM      9  O   UNL     1      -0.304   4.914  -0.052  0.00  0.00    -0.270 OA
ATOM     10  H   UNL     1       2.448   3.512  -0.065  0.00  0.00    +0.156 HD
BRANCH   7  15
ATOM     11  C   UNL     1       1.092   1.129  -0.011  0.00  0.00    +0.091 A 
ATOM     12  C   UNL     1       0.045   0.107   0.016  0.00  0.00    -0.021 A 
ATOM     13  C   UNL     1      -1.214   0.580   0.024  0.00  0.00    -0.004 A 
ATOM     14  S   UNL     1      -1.036   2.346  -0.005  0.00  0.00    -0.077 S 
ATOM     15  C   UNL     1       0.691   2.456  -0.027  0.00  0.00    +0.087 A 
ATOM     16  C   UNL     1      -2.232  -0.529   0.056  0.00  0.00    +0.043 C 
ATOM     17  C   UNL     1      -1.436  -1.775   0.504  0.00  0.00    +0.010 C 
ATOM     18  C   UNL     1      -0.010  -1.421   0.038  0.00  0.00    +0.037 C 
BRANCH  11  19
ATOM     19  C   UNL     1       2.510   0.764  -0.022  0.00  0.00    +0.342 C 
ATOM     20  O   UNL     1       3.086   0.597  -1.080  0.00  0.00    -0.245 OA
BRANCH  19  21
ATOM     21  O   UNL     1       3.176   0.613   1.141  0.00  0.00    -0.461 OA
BRANCH  21  23
ATOM     22  C   UNL     1       5.162   0.124   2.463  0.00  0.00    +0.048 C 
ATOM     23  C   UNL     1       4.579   0.250   1.054  0.00  0.00    +0.229 C 
ENDBRANCH  21  23
ENDBRANCH  19  21
ENDBRANCH  11  19
ENDBRANCH   7  15
ENDBRANCH   1   8
BRANCH   4  24
ATOM     24  S   UNL     1       4.335   9.747  -0.178  0.00  0.00    +0.061 S 
ATOM     25  O   UNL     1       5.583   9.362  -0.738  0.00  0.00    -0.153 OA
ATOM     26  O   UNL     1       3.538  10.783  -0.735  0.00  0.00    -0.153 OA
BRANCH  24  27
ATOM     27  N   UNL     1       4.633  10.172   1.394  0.00  0.00    -0.170 NA
BRANCH  27  28
ATOM     28  C   UNL     1       3.723  11.084   2.091  0.00  0.00    +0.074 C 
ATOM     29  C   UNL     1       3.262  10.442   3.401  0.00  0.00    +0.025 C 
ATOM     30  C   UNL     1       4.448  12.396   2.394  0.00  0.00    +0.025 C 
ENDBRANCH  27  28
BRANCH  27  31
ATOM     31  C   UNL     1       5.806   9.636   2.088  0.00  0.00    +0.144 C 
BRANCH  31  32
ATOM     32  C   UNL     1       6.954  10.604   1.955  0.00  0.00    -0.032 A 
ATOM     33  C   UNL     1       7.741  10.591   0.819  0.00  0.00    +0.005 A 
ATOM     34  C   UNL     1       8.791  11.482   0.695  0.00  0.00    +0.000 A 
ATOM     35  C   UNL     1       9.059  12.379   1.712  0.00  0.00    +0.000 A 
ATOM     36  C   UNL     1       8.276  12.388   2.850  0.00  0.00    +0.000 A 
ATOM     37  C   UNL     1       7.223  11.501   2.972  0.00  0.00    +0.005 A 
ENDBRANCH  31  32
ENDBRANCH  27  31
ENDBRANCH  24  27
ENDBRANCH   4  24
TORSDOF 10
