REMARK  Name = ZINC13951327
REMARK  13 active torsions:
REMARK  status: ('A' for Active; 'I' for Inactive)
REMARK    1  A    between atoms: C_1  and  C_2
REMARK    2  A    between atoms: C_2  and  O_3
REMARK    3  A    between atoms: O_3  and  C_4
REMARK    4  A    between atoms: C_4  and  C_5
REMARK    5  A    between atoms: C_5  and  N_6
REMARK    6  A    between atoms: C_8  and  C_38
REMARK    7  A    between atoms: C_10  and  C_37
REMARK    8  A    between atoms: N_15  and  C_16
REMARK    9  A    between atoms: C_16  and  C_18
REMARK   10  A    between atoms: C_21  and  S_24
REMARK   11  A    between atoms: S_24  and  N_27
REMARK   12  A    between atoms: C_29  and  C_36
REMARK   13  A    between atoms: C_32  and  C_35
REMARK                            x       y       z     vdW  Elec       q    Type
REMARK                         _______ _______ _______ _____ _____    ______ ____
ROOT
ATOM      1  C   UNL     1       4.341  -4.345  -0.066  0.00  0.00    +0.269 C 
ATOM      2  O   UNL     1       5.488  -3.933  -0.087  0.00  0.00    -0.268 OA
ENDROOT
BRANCH   1  12
ATOM      3  N   UNL     1       2.807  -1.697  -1.970  0.00  0.00    -0.319 N 
ATOM      4  C   UNL     1       3.288  -0.545  -2.563  0.00  0.00    +0.061 A 
ATOM      5  C   UNL     1       2.592   0.434  -3.286  0.00  0.00    -0.026 A 
ATOM      6  C   UNL     1       3.254   1.523  -3.805  0.00  0.00    +0.008 A 
ATOM      7  C   UNL     1       4.619   1.683  -3.631  0.00  0.00    -0.049 A 
ATOM      8  C   UNL     1       5.328   0.730  -2.922  0.00  0.00    +0.020 A 
ATOM      9  C   UNL     1       4.668  -0.358  -2.402  0.00  0.00    +0.039 A 
ATOM     10  S   UNL     1       5.159  -1.777  -1.457  0.00  0.00    -0.052 S 
ATOM     11  C   UNL     1       3.659  -2.519  -1.304  0.00  0.00    +0.167 A 
ATOM     12  N   UNL     1       3.372  -3.654  -0.675  0.00  0.00    -0.152 NA
ATOM     13  C   UNL     1       5.324   2.882  -4.210  0.00  0.00    +0.044 C 
ATOM     14  C   UNL     1       1.107   0.293  -3.496  0.00  0.00    +0.046 C 
BRANCH   3  15
ATOM     15  C   UNL     1       1.382  -2.028  -2.053  0.00  0.00    +0.152 C 
BRANCH  15  16
ATOM     16  C   UNL     1       1.118  -2.824  -3.333  0.00  0.00    +0.181 C 
BRANCH  16  17
ATOM     17  O   UNL     1       1.769  -4.093  -3.248  0.00  0.00    -0.378 OA
BRANCH  17  19
ATOM     18  C   UNL     1       2.320  -6.245  -4.198  0.00  0.00    +0.034 C 
ATOM     19  C   UNL     1       1.583  -4.919  -4.398  0.00  0.00    +0.156 C 
ENDBRANCH  17  19
ENDBRANCH  16  17
ENDBRANCH  15  16
ENDBRANCH   3  15
ENDBRANCH   1  12
BRANCH   1  20
ATOM     20  C   UNL     1       4.021  -5.610   0.634  0.00  0.00    +0.039 A 
ATOM     21  C   UNL     1       2.711  -6.087   0.655  0.00  0.00    +0.015 A 
ATOM     22  C   UNL     1       2.419  -7.266   1.310  0.00  0.00    +0.029 A 
ATOM     23  C   UNL     1       3.423  -7.975   1.945  0.00  0.00    +0.106 A 
ATOM     24  C   UNL     1       4.725  -7.507   1.928  0.00  0.00    +0.029 A 
ATOM     25  C   UNL     1       5.030  -6.332   1.271  0.00  0.00    +0.015 A 
BRANCH  23  26
ATOM     26  S   UNL     1       3.042  -9.479   2.779  0.00  0.00    +0.061 S 
ATOM     27  O   UNL     1       4.056  -9.670   3.755  0.00  0.00    -0.153 OA
ATOM     28  O   UNL     1       1.663  -9.420   3.114  0.00  0.00    -0.153 OA
BRANCH  26  29
ATOM     29  N   UNL     1       3.209 -10.705   1.677  0.00  0.00    -0.172 NA
ATOM     30  C   UNL     1       2.075 -11.135   0.845  0.00  0.00    +0.140 C 
ATOM     31  C   UNL     1       1.945 -12.658   0.954  0.00  0.00    +0.131 C 
ATOM     32  O   UNL     1       3.209 -13.261   0.665  0.00  0.00    -0.371 OA
ATOM     33  C   UNL     1       4.248 -12.907   1.580  0.00  0.00    +0.131 C 
ATOM     34  C   UNL     1       4.498 -11.393   1.499  0.00  0.00    +0.140 C 
ATOM     35  C   UNL     1       5.530 -13.656   1.211  0.00  0.00    +0.039 C 
ATOM     36  C   UNL     1       0.900 -13.155  -0.047  0.00  0.00    +0.039 C 
ENDBRANCH  26  29
ENDBRANCH  23  26
ENDBRANCH   1  20
TORSDOF 8
