REMARK  Name = ZINC59595436
REMARK  10 active torsions:
REMARK  status: ('A' for Active; 'I' for Inactive)
REMARK    1  A    between atoms: C_1  and  C_2
REMARK    2  A    between atoms: C_4  and  C_17
REMARK    3  A    between atoms: C_5  and  C_16
REMARK    4  A    between atoms: N_6  and  C_7
REMARK    5  A    between atoms: C_11  and  N_13
REMARK    6  A    between atoms: N_24  and  C_27
REMARK    7  A    between atoms: C_30  and  O_35
REMARK    8  A    between atoms: C_32  and  O_33
REMARK    9  A    between atoms: O_33  and  C_34
REMARK   10  A    between atoms: O_35  and  C_36
REMARK                            x       y       z     vdW  Elec       q    Type
REMARK                         _______ _______ _______ _____ _____    ______ ____
ROOT
ATOM      1  C   UNL     1       0.041  -3.337  -1.423  0.00  0.00    +0.028 C 
ATOM      2  C   UNL     1      -0.071  -3.237  -2.804  0.00  0.00    +0.102 C 
ATOM      3  C   UNL     1      -0.177  -4.432  -3.654  0.00  0.00    +0.274 C 
ATOM      4  O   UNL     1      -0.169  -5.668  -3.112  0.00  0.00    -0.268 OA
ATOM      5  N   UNL     1      -0.281  -4.268  -4.962  0.00  0.00    -0.153 NA
ATOM      6  C   UNL     1      -0.293  -3.062  -5.524  0.00  0.00    +0.171 C 
ATOM      7  S   UNL     1      -0.432  -2.965  -7.227  0.00  0.00    -0.016 S 
ATOM      8  N   UNL     1      -0.201  -1.919  -4.829  0.00  0.00    -0.212 N 
ATOM      9  C   UNL     1      -0.095  -1.928  -3.483  0.00  0.00    +0.262 C 
ATOM     10  O   UNL     1      -0.016  -0.891  -2.851  0.00  0.00    -0.269 OA
ENDROOT
BRANCH   1  14
ATOM     11  C   UNL     1       2.098   0.984   0.184  0.00  0.00    +0.064 C 
ATOM     12  C   UNL     1       1.252  -0.257   0.056  0.00  0.00    +0.022 A 
ATOM     13  C   UNL     1       1.333  -1.153  -0.940  0.00  0.00    +0.031 A 
ATOM     14  C   UNL     1       0.326  -2.187  -0.652  0.00  0.00    -0.003 A 
ATOM     15  C   UNL     1      -0.286  -1.799   0.532  0.00  0.00    +0.028 A 
ATOM     16  N   UNL     1       0.284  -0.650   0.940  0.00  0.00    -0.317 N 
ATOM     17  C   UNL     1      -1.391  -2.539   1.240  0.00  0.00    +0.064 C 
BRANCH  16  18
ATOM     18  C   UNL     1      -0.067   0.047   2.104  0.00  0.00    +0.049 A 
ATOM     19  C   UNL     1       0.159  -0.522   3.350  0.00  0.00    +0.026 A 
ATOM     20  C   UNL     1      -0.188   0.167   4.495  0.00  0.00    +0.004 A 
ATOM     21  C   UNL     1      -0.759   1.423   4.402  0.00  0.00    +0.033 A 
ATOM     22  C   UNL     1      -0.986   1.992   3.162  0.00  0.00    +0.128 A 
ATOM     23  C   UNL     1      -0.635   1.310   2.013  0.00  0.00    +0.058 A 
BRANCH  22  24
ATOM     24  N   UNL     1      -1.598   3.336   3.067  0.00  0.00    +0.056 N 
ATOM     25  O   UNL     1      -1.901   3.936   4.072  0.00  0.00    -0.126 OA
ATOM     26  O   UNL     1      -1.796   3.834   1.983  0.00  0.00    -0.126 OA
ENDBRANCH  22  24
ENDBRANCH  16  18
ENDBRANCH   1  14
BRANCH   8  27
ATOM     27  C   UNL     1      -0.222  -0.693  -5.512  0.00  0.00    +0.085 A 
ATOM     28  C   UNL     1      -1.428  -0.048  -5.745  0.00  0.00    +0.031 A 
ATOM     29  C   UNL     1      -1.448   1.159  -6.417  0.00  0.00    +0.048 A 
ATOM     30  C   UNL     1      -0.264   1.729  -6.859  0.00  0.00    +0.124 A 
ATOM     31  C   UNL     1       0.945   1.089  -6.628  0.00  0.00    +0.093 A 
ATOM     32  C   UNL     1       0.969  -0.119  -5.950  0.00  0.00    +0.145 A 
BRANCH  32  33
ATOM     33  O   UNL     1       2.153  -0.746  -5.718  0.00  0.00    -0.493 OA
ATOM     34  C   UNL     1       3.334  -0.099  -6.197  0.00  0.00    +0.277 C 
ENDBRANCH  32  33
BRANCH  30  35
ATOM     35  O   UNL     1      -0.287   2.917  -7.521  0.00  0.00    -0.495 OA
ATOM     36  C   UNL     1      -1.566   3.521  -7.724  0.00  0.00    +0.277 C 
ENDBRANCH  30  35
ENDBRANCH   8  27
TORSDOF 6
