REMARK  Name = ZINC40337814
REMARK  7 active torsions:
REMARK  status: ('A' for Active; 'I' for Inactive)
REMARK    1  A    between atoms: C_1  and  C_2
REMARK    2  A    between atoms: C_2  and  O_3
REMARK    3  A    between atoms: O_3  and  C_4
REMARK    4  A    between atoms: C_6  and  C_11
REMARK    5  A    between atoms: C_9  and  O_10
REMARK    6  A    between atoms: C_14  and  C_28
REMARK    7  A    between atoms: N_21  and  C_22
REMARK                            x       y       z     vdW  Elec       q    Type
REMARK                         _______ _______ _______ _____ _____    ______ ____
ROOT
ATOM      1  C   UNL     1      -0.229  -4.969   0.477  0.00  0.00    +0.142 C 
ATOM      2  C   UNL     1      -1.532  -5.537  -0.013  0.00  0.00    +0.035 A 
ATOM      3  C   UNL     1      -2.843  -5.289  -0.435  0.00  0.00    +0.099 A 
ATOM      4  N   UNL     1      -3.392  -6.453  -0.721  0.00  0.00    -0.173 NA
ATOM      5  N   UNL     1      -2.559  -7.411  -0.521  0.00  0.00    -0.272 N 
ATOM      6  H   UNL     1      -2.747  -8.352  -0.665  0.00  0.00    +0.189 HD
ATOM      7  C   UNL     1      -1.370  -6.908  -0.075  0.00  0.00    +0.126 A 
ATOM      8  C   UNL     1      -0.007  -7.236   0.358  0.00  0.00    +0.266 C 
ATOM      9  O   UNL     1       0.450  -8.362   0.417  0.00  0.00    -0.268 OA
ATOM     10  N   UNL     1       0.665  -6.116   0.683  0.00  0.00    -0.282 N 
ENDROOT
BRANCH   1  13
ATOM     11  C   UNL     1       0.777  -1.811  -1.336  0.00  0.00    +0.162 A 
ATOM     12  C   UNL     1       0.243  -2.669  -0.388  0.00  0.00    +0.055 A 
ATOM     13  C   UNL     1       0.352  -4.037  -0.555  0.00  0.00    -0.019 A 
ATOM     14  C   UNL     1       0.992  -4.552  -1.667  0.00  0.00    +0.009 A 
ATOM     15  C   UNL     1       1.526  -3.702  -2.616  0.00  0.00    +0.049 A 
ATOM     16  C   UNL     1       1.416  -2.330  -2.458  0.00  0.00    +0.158 A 
BRANCH  16  17
ATOM     17  O   UNL     1       1.936  -1.492  -3.394  0.00  0.00    -0.503 OA
ATOM     18  H   UNL     1       2.856  -1.241  -3.231  0.00  0.00    +0.292 HD
ENDBRANCH  16  17
BRANCH  11  19
ATOM     19  O   UNL     1       0.671  -0.465  -1.174  0.00  0.00    -0.489 OA
BRANCH  19  21
ATOM     20  C   UNL     1      -0.019   1.526   0.010  0.00  0.00    +0.048 C 
ATOM     21  C   UNL     1       0.002  -0.004   0.002  0.00  0.00    +0.226 C 
ENDBRANCH  19  21
ENDBRANCH  11  19
ENDBRANCH   1  13
BRANCH  10  22
ATOM     22  C   UNL     1       2.049  -6.051   1.159  0.00  0.00    +0.077 C 
ATOM     23  C   UNL     1       2.980  -6.645   0.101  0.00  0.00    +0.022 C 
ATOM     24  C   UNL     1       4.426  -6.577   0.597  0.00  0.00    +0.002 C 
ATOM     25  C   UNL     1       4.556  -7.374   1.897  0.00  0.00    +0.000 C 
ATOM     26  C   UNL     1       3.625  -6.779   2.955  0.00  0.00    +0.002 C 
ATOM     27  C   UNL     1       2.179  -6.847   2.459  0.00  0.00    +0.022 C 
ENDBRANCH  10  22
BRANCH   3  28
ATOM     28  C   UNL     1      -3.495  -3.959  -0.541  0.00  0.00    +0.002 A 
ATOM     29  C   UNL     1      -3.189  -2.956   0.375  0.00  0.00    +0.010 A 
ATOM     30  C   UNL     1      -3.798  -1.721   0.271  0.00  0.00    +0.001 A 
ATOM     31  C   UNL     1      -4.710  -1.480  -0.741  0.00  0.00    +0.000 A 
ATOM     32  C   UNL     1      -5.017  -2.473  -1.653  0.00  0.00    +0.001 A 
ATOM     33  C   UNL     1      -4.410  -3.709  -1.562  0.00  0.00    +0.010 A 
ENDBRANCH   3  28
TORSDOF 6
