REMARK  Name = ZINC22807709
REMARK  6 active torsions:
REMARK  status: ('A' for Active; 'I' for Inactive)
REMARK    1  A    between atoms: C_1  and  C_2
REMARK    2  A    between atoms: C_15  and  C_17
REMARK    3  A    between atoms: C_17  and  N_18
REMARK    4  A    between atoms: N_21  and  C_24
REMARK    5  A    between atoms: C_24  and  C_25
REMARK    6  A    between atoms: C_28  and  C_31
REMARK                            x       y       z     vdW  Elec       q    Type
REMARK                         _______ _______ _______ _____ _____    ______ ____
ROOT
ATOM      1  C   UNL     1       0.762  -1.460   3.464  0.00  0.00    +0.181 C 
ENDROOT
BRANCH   1  15
ATOM      2  C   UNL     1      -0.019   1.526   0.010  0.00  0.00    +0.029 C 
ATOM      3  C   UNL     1       0.002  -0.004   0.002  0.00  0.00    +0.087 C 
ATOM      4  C   UNL     1       0.715  -0.496  -1.259  0.00  0.00    +0.118 C 
ATOM      5  C   UNL     1       1.097  -1.944  -1.106  0.00  0.00    +0.219 C 
ATOM      6  O   UNL     1       0.459  -2.800  -1.683  0.00  0.00    -0.275 OA
ATOM      7  N   UNL     1       2.146  -2.297  -0.332  0.00  0.00    -0.284 N 
ATOM      8  C   UNL     1       2.832  -1.333   0.416  0.00  0.00    +0.055 A 
ATOM      9  C   UNL     1       4.214  -1.255   0.377  0.00  0.00    +0.025 A 
ATOM     10  C   UNL     1       4.871  -0.309   1.143  0.00  0.00    +0.002 A 
ATOM     11  C   UNL     1       4.154   0.557   1.947  0.00  0.00    +0.002 A 
ATOM     12  C   UNL     1       2.773   0.492   1.984  0.00  0.00    +0.025 A 
ATOM     13  C   UNL     1       2.107  -0.445   1.211  0.00  0.00    +0.058 A 
ATOM     14  N   UNL     1       0.707  -0.488   1.190  0.00  0.00    -0.265 N 
ATOM     15  C   UNL     1       0.022  -0.966   2.248  0.00  0.00    +0.234 C 
ATOM     16  O   UNL     1      -1.190  -0.998   2.221  0.00  0.00    -0.274 OA
ATOM     17  H   UNL     1       2.425  -3.225  -0.293  0.00  0.00    +0.155 HD
ENDBRANCH   1  15
BRANCH   1  18
ATOM     18  N   UNL     1      -0.203  -1.925   4.469  0.00  0.00    -0.298 NA
ATOM     19  C   UNL     1      -1.007  -0.808   4.985  0.00  0.00    +0.066 C 
ATOM     20  C   UNL     1      -2.037  -1.342   5.982  0.00  0.00    -0.063 C 
ATOM     21  N   UNL     1      -1.345  -2.020   7.086  0.00  0.00    +0.384 N 
ATOM     22  C   UNL     1      -0.567  -3.149   6.558  0.00  0.00    -0.063 C 
ATOM     23  C   UNL     1       0.476  -2.630   5.566  0.00  0.00    +0.066 C 
ATOM     24  H   UNL     1      -0.725  -1.370   7.544  0.00  0.00    -0.081 HD
BRANCH  21  25
ATOM     25  C   UNL     1      -2.334  -2.517   8.052  0.00  0.00    -0.043 C 
BRANCH  25  26
ATOM     26  C   UNL     1      -1.622  -3.104   9.243  0.00  0.00    -0.064 A 
ATOM     27  C   UNL     1      -1.277  -4.444   9.248  0.00  0.00    +0.003 A 
ATOM     28  C   UNL     1      -0.624  -4.988  10.335  0.00  0.00    +0.019 A 
ATOM     29  C   UNL     1      -0.312  -4.183  11.432  0.00  0.00    +0.052 A 
ATOM     30  C   UNL     1      -0.662  -2.832  11.420  0.00  0.00    +0.019 A 
ATOM     31  C   UNL     1      -1.310  -2.300  10.325  0.00  0.00    +0.003 A 
BRANCH  29  32
ATOM     32  C   UNL     1       0.365  -4.741  12.564  0.00  0.00    +0.099 C 
ATOM     33  N   UNL     1       0.901  -5.184  13.462  0.00  0.00    -0.191 NA
ENDBRANCH  29  32
ENDBRANCH  25  26
ENDBRANCH  21  25
ENDBRANCH   1  18
TORSDOF 5
