REMARK  Name = ZINC13615215
REMARK  12 active torsions:
REMARK  status: ('A' for Active; 'I' for Inactive)
REMARK    1  A    between atoms: C_1  and  C_2
REMARK    2  A    between atoms: C_5  and  C_8
REMARK    3  A    between atoms: C_8  and  O_9
REMARK    4  A    between atoms: O_9  and  C_10
REMARK    5  A    between atoms: C_13  and  C_16
REMARK    6  A    between atoms: N_17  and  N_18
REMARK    7  A    between atoms: C_19  and  C_21
REMARK    8  A    between atoms: C_24  and  N_27
REMARK    9  A    between atoms: N_27  and  C_28
REMARK   10  A    between atoms: N_27  and  S_35
REMARK   11  A    between atoms: C_28  and  C_29
REMARK   12  A    between atoms: S_35  and  C_38
REMARK                            x       y       z     vdW  Elec       q    Type
REMARK                         _______ _______ _______ _____ _____    ______ ____
ROOT
ATOM      1  N   UNL     1       0.957  -1.961   6.059  0.00  0.00    -0.203 N 
ATOM      2  C   UNL     1       0.444  -2.616   4.999  0.00  0.00    +0.263 C 
ATOM      3  O   UNL     1       0.076  -3.770   5.116  0.00  0.00    -0.268 OA
ATOM      4  H   UNL     1       1.250  -1.041   5.965  0.00  0.00    +0.178 HD
ENDROOT
BRANCH   2   5
ATOM      5  C   UNL     1       0.327  -1.934   3.696  0.00  0.00    +0.038 A 
ATOM      6  C   UNL     1      -0.205  -2.612   2.595  0.00  0.00    +0.015 A 
ATOM      7  C   UNL     1      -0.313  -1.973   1.382  0.00  0.00    +0.025 A 
ATOM      8  C   UNL     1       0.107  -0.652   1.249  0.00  0.00    +0.051 A 
ATOM      9  C   UNL     1       0.643   0.024   2.342  0.00  0.00    +0.025 A 
ATOM     10  C   UNL     1       0.749  -0.608   3.560  0.00  0.00    +0.015 A 
BRANCH   8  11
ATOM     11  N   UNL     1      -0.003  -0.009   0.021  0.00  0.00    -0.203 N 
BRANCH  11  12
ATOM     12  S   UNL     1       1.347   0.609  -0.714  0.00  0.00    +0.043 S 
ATOM     13  O   UNL     1       2.425  -0.159  -0.196  0.00  0.00    -0.155 OA
ATOM     14  O   UNL     1       1.044   0.589  -2.102  0.00  0.00    -0.155 OA
ATOM     15  C   UNL     1       1.457   2.320  -0.123  0.00  0.00    +0.218 C 
ENDBRANCH  11  12
BRANCH  11  16
ATOM     16  C   UNL     1      -1.312   0.122  -0.622  0.00  0.00    +0.166 C 
BRANCH  16  17
ATOM     17  C   UNL     1      -2.028   1.325  -0.065  0.00  0.00    -0.028 A 
ATOM     18  C   UNL     1      -2.756   1.216   1.105  0.00  0.00    +0.005 A 
ATOM     19  C   UNL     1      -3.408   2.321   1.620  0.00  0.00    +0.000 A 
ATOM     20  C   UNL     1      -3.340   3.533   0.959  0.00  0.00    +0.000 A 
ATOM     21  C   UNL     1      -2.617   3.641  -0.214  0.00  0.00    +0.000 A 
ATOM     22  C   UNL     1      -1.960   2.538  -0.726  0.00  0.00    +0.005 A 
ENDBRANCH  16  17
ENDBRANCH  11  16
ENDBRANCH   8  11
ENDBRANCH   2   5
BRANCH   1  24
ATOM     23  C   UNL     1       1.562  -1.978   8.317  0.00  0.00    +0.138 C 
ATOM     24  N   UNL     1       1.067  -2.609   7.296  0.00  0.00    -0.187 NA
BRANCH  23  28
ATOM     25  C   UNL     1       1.897  -3.942  12.066  0.00  0.00    +0.121 A 
ATOM     26  C   UNL     1       2.317  -2.624  11.935  0.00  0.00    +0.046 A 
ATOM     27  C   UNL     1       2.210  -1.983  10.720  0.00  0.00    +0.013 A 
ATOM     28  C   UNL     1       1.678  -2.660   9.619  0.00  0.00    -0.005 A 
ATOM     29  C   UNL     1       1.251  -3.983   9.758  0.00  0.00    +0.013 A 
ATOM     30  C   UNL     1       1.367  -4.619  10.975  0.00  0.00    +0.046 A 
BRANCH  25  31
ATOM     31  O   UNL     1       2.003  -4.570  13.266  0.00  0.00    -0.487 OA
BRANCH  31  32
ATOM     32  C   UNL     1       1.553  -5.924  13.332  0.00  0.00    +0.264 C 
BRANCH  32  37
ATOM     33  C   UNL     1       2.301  -7.947  18.693  0.00  0.00    +0.044 C 
ATOM     34  C   UNL     1       2.106  -7.419  17.295  0.00  0.00    -0.050 A 
ATOM     35  C   UNL     1       0.920  -6.798  16.950  0.00  0.00    +0.004 A 
ATOM     36  C   UNL     1       0.741  -6.314  15.667  0.00  0.00    +0.007 A 
ATOM     37  C   UNL     1       1.748  -6.451  14.730  0.00  0.00    -0.010 A 
ATOM     38  C   UNL     1       2.932  -7.077  15.074  0.00  0.00    +0.007 A 
ATOM     39  C   UNL     1       3.112  -7.557  16.357  0.00  0.00    +0.004 A 
ENDBRANCH  32  37
ENDBRANCH  31  32
ENDBRANCH  25  31
ENDBRANCH  23  28
ENDBRANCH   1  24
TORSDOF 10
