REMARK  Name = ZINC20410927
REMARK  7 active torsions:
REMARK  status: ('A' for Active; 'I' for Inactive)
REMARK    1  A    between atoms: C_1  and  C_2
REMARK    2  A    between atoms: C_18  and  C_20
REMARK    3  A    between atoms: C_20  and  N_21
REMARK    4  A    between atoms: N_24  and  C_27
REMARK    5  A    between atoms: C_27  and  C_28
REMARK    6  A    between atoms: C_27  and  C_34
REMARK    7  A    between atoms: C_27  and  O_40
REMARK                            x       y       z     vdW  Elec       q    Type
REMARK                         _______ _______ _______ _____ _____    ______ ____
ROOT
ATOM      1  N   UNL     1       0.135   5.734  -1.192  0.00  0.00    +0.382 N 
ATOM      2  C   UNL     1      -1.068   6.013  -1.989  0.00  0.00    -0.063 C 
ATOM      3  C   UNL     1      -1.007   7.450  -2.513  0.00  0.00    +0.069 C 
ATOM      4  N   UNL     1       0.208   7.623  -3.320  0.00  0.00    -0.271 NA
ATOM      5  C   UNL     1       1.411   7.344  -2.523  0.00  0.00    +0.069 C 
ATOM      6  C   UNL     1       1.351   5.907  -1.999  0.00  0.00    -0.063 C 
ATOM      7  H   UNL     1       0.170   6.459  -0.365  0.00  0.00    -0.082 HD
ENDROOT
BRANCH   1   8
ATOM      8  C   UNL     1       0.079   4.387  -0.607  0.00  0.00    -0.064 C 
BRANCH   8  23
ATOM      9  C   UNL     1      -4.468   5.891   3.346  0.00  0.00    +0.011 C 
ATOM     10  C   UNL     1      -2.952   5.900   3.139  0.00  0.00    -0.023 C 
ATOM     11  C   UNL     1      -2.302   6.672   4.285  0.00  0.00    +0.007 C 
ATOM     12  C   UNL     1      -2.917   8.067   4.377  0.00  0.00    +0.003 C 
ATOM     13  C   UNL     1      -2.635   8.839   3.085  0.00  0.00    +0.037 C 
ATOM     14  C   UNL     1      -3.149   8.031   1.892  0.00  0.00    +0.096 C 
ATOM     15  C   UNL     1      -2.625   6.592   1.810  0.00  0.00    +0.030 C 
ATOM     16  C   UNL     1      -1.103   6.633   1.660  0.00  0.00    +0.014 C 
ATOM     17  C   UNL     1      -0.494   5.256   1.692  0.00  0.00    +0.042 C 
ATOM     18  C   UNL     1      -0.925   4.415   2.911  0.00  0.00    +0.181 C 
ATOM     19  C   UNL     1      -2.442   4.467   3.095  0.00  0.00    +0.052 C 
ATOM     20  O   UNL     1      -0.622   3.050   2.428  0.00  0.00    -0.461 OA
ATOM     21  C   UNL     1      -1.035   2.979   1.144  0.00  0.00    +0.309 C 
ATOM     22  O   UNL     1      -1.409   1.978   0.581  0.00  0.00    -0.251 OA
ATOM     23  C   UNL     1      -0.952   4.365   0.523  0.00  0.00    +0.088 C 
ATOM     24  C   UNL     1      -4.566   8.303   1.394  0.00  0.00    +0.196 C 
ATOM     25  O   UNL     1      -3.405   8.719   0.670  0.00  0.00    -0.368 OA
ENDBRANCH   8  23
ENDBRANCH   1   8
BRANCH   4  26
ATOM     26  C   UNL     1       0.265   8.970  -3.905  0.00  0.00    +0.172 C 
BRANCH  26  27
ATOM     27  C   UNL     1       1.495   9.092  -4.766  0.00  0.00    +0.003 A 
ATOM     28  C   UNL     1       1.956   7.998  -5.474  0.00  0.00    +0.008 A 
ATOM     29  C   UNL     1       3.082   8.112  -6.267  0.00  0.00    +0.000 A 
ATOM     30  C   UNL     1       3.753   9.318  -6.345  0.00  0.00    +0.000 A 
ATOM     31  C   UNL     1       3.296  10.411  -5.632  0.00  0.00    +0.000 A 
ATOM     32  C   UNL     1       2.167  10.298  -4.843  0.00  0.00    +0.008 A 
ENDBRANCH  26  27
BRANCH  26  33
ATOM     33  C   UNL     1      -0.963   9.203  -4.747  0.00  0.00    +0.003 A 
ATOM     34  C   UNL     1      -1.535   8.154  -5.442  0.00  0.00    +0.008 A 
ATOM     35  C   UNL     1      -2.663   8.368  -6.211  0.00  0.00    +0.000 A 
ATOM     36  C   UNL     1      -3.215   9.633  -6.292  0.00  0.00    +0.000 A 
ATOM     37  C   UNL     1      -2.640  10.683  -5.601  0.00  0.00    +0.000 A 
ATOM     38  C   UNL     1      -1.514  10.468  -4.829  0.00  0.00    +0.008 A 
ENDBRANCH  26  33
BRANCH  26  39
ATOM     39  O   UNL     1       0.316   9.941  -2.858  0.00  0.00    -0.366 OA
ATOM     40  H   UNL     1       0.363  11.012  -3.104  0.00  0.00    +0.212 HD
ENDBRANCH  26  39
ENDBRANCH   4  26
TORSDOF 6
