REMARK  Name = ZINC41480620
REMARK  4 active torsions:
REMARK  status: ('A' for Active; 'I' for Inactive)
REMARK    1  A    between atoms: C_1  and  C_2
REMARK    2  A    between atoms: C_7  and  N_8
REMARK    3  A    between atoms: C_11  and  C_19
REMARK    4  A    between atoms: N_13  and  C_18
REMARK                            x       y       z     vdW  Elec       q    Type
REMARK                         _______ _______ _______ _____ _____    ______ ____
ROOT
ATOM      1  N   UNL     1      -0.541   0.009   2.413  0.00  0.00    -0.299 N 
ATOM      2  C   UNL     1      -0.531  -0.692   3.604  0.00  0.00    +0.137 A 
ATOM      3  C   UNL     1      -0.382  -0.023   4.834  0.00  0.00    +0.081 A 
ATOM      4  C   UNL     1      -0.221   1.327   5.217  0.00  0.00    +0.073 A 
ATOM      5  N   UNL     1      -0.129   1.379   6.515  0.00  0.00    -0.174 NA
ATOM      6  N   UNL     1      -0.222   0.087   7.047  0.00  0.00    -0.249 N 
ATOM      7  C   UNL     1      -0.380  -0.790   6.015  0.00  0.00    +0.163 A 
ATOM      8  N   UNL     1      -0.518  -2.112   5.923  0.00  0.00    -0.216 NA
ATOM      9  C   UNL     1      -0.655  -2.692   4.751  0.00  0.00    +0.225 A 
ATOM     10  N   UNL     1      -0.667  -2.014   3.617  0.00  0.00    -0.220 NA
ATOM     11  C   UNL     1      -0.161  -0.263   8.468  0.00  0.00    +0.174 C 
ATOM     12  C   UNL     1      -0.165   2.507   4.281  0.00  0.00    +0.068 C 
ATOM     13  H   UNL     1      -0.375   0.965   2.411  0.00  0.00    +0.154 HD
ENDROOT
BRANCH   1  20
ATOM     14  C   UNL     1      -1.708   1.481   0.276  0.00  0.00    +0.046 C 
ATOM     15  C   UNL     1      -1.359   0.021   0.141  0.00  0.00    -0.028 A 
ATOM     16  C   UNL     1      -1.598  -0.640  -1.048  0.00  0.00    +0.025 A 
ATOM     17  C   UNL     1      -1.278  -1.981  -1.172  0.00  0.00    +0.041 A 
ATOM     18  C   UNL     1      -0.717  -2.663  -0.107  0.00  0.00    +0.022 A 
ATOM     19  C   UNL     1      -0.476  -2.007   1.084  0.00  0.00    +0.025 A 
ATOM     20  C   UNL     1      -0.790  -0.659   1.210  0.00  0.00    +0.035 A 
ATOM     21 CL   UNL     1      -1.582  -2.809  -2.668  0.00  0.00    -0.084 Cl
ENDBRANCH   1  20
TORSDOF 1
