REMARK  Name = ZINC20759851
REMARK  11 active torsions:
REMARK  status: ('A' for Active; 'I' for Inactive)
REMARK    1  A    between atoms: C_1  and  O_2
REMARK    2  A    between atoms: O_2  and  C_3
REMARK    3  A    between atoms: C_5  and  C_11
REMARK    4  A    between atoms: C_7  and  O_9
REMARK    5  A    between atoms: O_9  and  C_10
REMARK    6  A    between atoms: N_13  and  C_14
REMARK    7  A    between atoms: C_14  and  C_16
REMARK    8  A    between atoms: C_14  and  C_20
REMARK    9  A    between atoms: C_16  and  C_17
REMARK   10  A    between atoms: C_17  and  S_18
REMARK   11  A    between atoms: S_18  and  C_19
REMARK                            x       y       z     vdW  Elec       q    Type
REMARK                         _______ _______ _______ _____ _____    ______ ____
ROOT
ATOM      1  C   UNL     1      -3.804  -6.236   0.022  0.00  0.00    +0.160 C 
ENDROOT
BRANCH   1   2
ATOM      2  C   UNL     1      -5.162  -6.599  -0.519  0.00  0.00    +0.236 C 
ATOM      3  O   UNL     1      -6.020  -5.748  -0.624  0.00  0.00    -0.274 OA
ATOM      4  N   UNL     1      -5.425  -7.869  -0.886  0.00  0.00    -0.300 N 
ATOM      5  C   UNL     1      -4.437  -8.934  -0.658  0.00  0.00    +0.110 C 
ATOM      6  C   UNL     1      -5.107 -10.069   0.121  0.00  0.00    +0.047 C 
ATOM      7  C   UNL     1      -6.363 -10.524  -0.625  0.00  0.00    +0.064 C 
ATOM      8  C   UNL     1      -7.350  -9.361  -0.732  0.00  0.00    +0.047 C 
ATOM      9  C   UNL     1      -6.706  -8.218  -1.515  0.00  0.00    +0.110 C 
ATOM     10  C   UNL     1      -7.005 -11.669   0.112  0.00  0.00    +0.057 A 
ATOM     11  C   UNL     1      -7.473 -12.783  -0.495  0.00  0.00    +0.039 A 
ATOM     12  N   UNL     1      -7.971 -13.587   0.444  0.00  0.00    -0.349 N 
ATOM     13  C   UNL     1      -7.832 -13.017   1.613  0.00  0.00    +0.171 A 
ATOM     14  N   UNL     1      -7.233 -11.815   1.444  0.00  0.00    -0.348 N 
ATOM     15  H   UNL     1      -7.008 -11.179   2.141  0.00  0.00    +0.166 HD
ATOM     16  C   UNL     1      -7.407 -12.995  -1.988  0.00  0.00    +0.070 C 
ATOM     17  C   UNL     1      -7.128 -11.636  -2.646  0.00  0.00    +0.088 C 
ATOM     18  N   UNL     1      -5.995 -10.984  -1.973  0.00  0.00    -0.305 NA
ATOM     19  H   UNL     1      -5.635 -10.223  -2.529  0.00  0.00    +0.123 HD
ATOM     20  H   UNL     1      -8.371 -14.456   0.286  0.00  0.00    +0.166 HD
ENDBRANCH   1   2
BRANCH   1  23
ATOM     21  C   UNL     1      -2.264  -4.380  -0.327  0.00  0.00    +0.245 C 
ATOM     22  O   UNL     1      -1.341  -5.157  -0.183  0.00  0.00    -0.270 OA
ATOM     23  N   UNL     1      -3.535  -4.821  -0.242  0.00  0.00    -0.300 N 
ATOM     24  H   UNL     1      -4.272  -4.200  -0.356  0.00  0.00    +0.150 HD
BRANCH  21  27
ATOM     25  C   UNL     1      -0.429  -1.154  -0.931  0.00  0.00    +0.124 A 
ATOM     26  C   UNL     1      -0.678  -2.493  -0.681  0.00  0.00    +0.059 A 
ATOM     27  C   UNL     1      -1.993  -2.951  -0.593  0.00  0.00    +0.044 A 
ATOM     28  C   UNL     1      -3.051  -2.057  -0.758  0.00  0.00    +0.059 A 
ATOM     29  C   UNL     1      -2.793  -0.720  -1.008  0.00  0.00    +0.124 A 
ATOM     30  C   UNL     1      -1.484  -0.267  -1.089  0.00  0.00    +0.091 A 
BRANCH  25  32
ATOM     31  C   UNL     1       1.036   0.688  -1.271  0.00  0.00    +0.277 C 
ATOM     32  O   UNL     1       0.852  -0.706  -1.017  0.00  0.00    -0.495 OA
ENDBRANCH  25  32
BRANCH  29  33
ATOM     33  O   UNL     1      -3.824   0.152  -1.169  0.00  0.00    -0.495 OA
ATOM     34  C   UNL     1      -3.485   1.517  -1.425  0.00  0.00    +0.277 C 
ENDBRANCH  29  33
ENDBRANCH  21  27
ENDBRANCH   1  23
BRANCH   1  35
ATOM     35  C   UNL     1      -3.771  -6.489   1.530  0.00  0.00    +0.042 C 
BRANCH  35  36
ATOM     36  C   UNL     1      -2.353  -6.258   2.056  0.00  0.00    +0.071 C 
BRANCH  36  37
ATOM     37  S   UNL     1      -2.314  -6.557   3.845  0.00  0.00    -0.164 S 
ATOM     38  C   UNL     1      -0.587  -6.245   4.304  0.00  0.00    +0.084 C 
ENDBRANCH  36  37
ENDBRANCH  35  36
ENDBRANCH   1  35
TORSDOF 8
