REMARK  Name = ZINC40138838
REMARK  9 active torsions:
REMARK  status: ('A' for Active; 'I' for Inactive)
REMARK    1  A    between atoms: C_4  and  C_7
REMARK    2  A    between atoms: N_9  and  C_10
REMARK    3  A    between atoms: C_10  and  C_11
REMARK    4  A    between atoms: C_11  and  C_12
REMARK    5  A    between atoms: N_14  and  N_15
REMARK    6  A    between atoms: N_23  and  C_26
REMARK    7  A    between atoms: C_26  and  C_27
REMARK    8  A    between atoms: C_27  and  O_28
REMARK    9  A    between atoms: O_28  and  C_29
REMARK                            x       y       z     vdW  Elec       q    Type
REMARK                         _______ _______ _______ _____ _____    ______ ____
ROOT
ATOM      1  N   UNL     1       7.305  -7.013  -0.107  0.00  0.00    -0.175 NA
ATOM      2  C   UNL     1       7.330  -8.321  -0.015  0.00  0.00    +0.153 C 
ATOM      3  C   UNL     1       6.172  -9.245   0.003  0.00  0.00    +0.028 A 
ATOM      4  C   UNL     1       4.797  -9.051  -0.066  0.00  0.00    +0.012 A 
ATOM      5  C   UNL     1       3.949 -10.140  -0.025  0.00  0.00    +0.001 A 
ATOM      6  C   UNL     1       4.467 -11.419   0.085  0.00  0.00    +0.002 A 
ATOM      7  C   UNL     1       5.831 -11.622   0.154  0.00  0.00    +0.024 A 
ATOM      8  C   UNL     1       6.701 -10.538   0.114  0.00  0.00    +0.046 A 
ATOM      9  N   UNL     1       8.088 -10.465   0.164  0.00  0.00    -0.262 N 
ATOM     10  C   UNL     1       8.517  -9.194   0.087  0.00  0.00    +0.271 C 
ATOM     11  O   UNL     1       9.677  -8.826   0.102  0.00  0.00    -0.268 OA
ENDROOT
BRANCH   1  14
ATOM     12  C   UNL     1       6.047  -4.995  -0.218  0.00  0.00    +0.234 C 
ATOM     13  O   UNL     1       7.064  -4.392  -0.483  0.00  0.00    -0.274 OA
ATOM     14  N   UNL     1       6.088  -6.327  -0.013  0.00  0.00    -0.206 N 
ATOM     15  H   UNL     1       5.274  -6.810   0.199  0.00  0.00    +0.177 HD
BRANCH  12  16
ATOM     16  C   UNL     1       4.737  -4.257  -0.117  0.00  0.00    +0.116 C 
BRANCH  16  17
ATOM     17  C   UNL     1       4.968  -2.770  -0.391  0.00  0.00    +0.114 C 
BRANCH  17  20
ATOM     18  C   UNL     1       3.654  -0.720  -0.498  0.00  0.00    +0.244 C 
ATOM     19  O   UNL     1       4.674  -0.115  -0.764  0.00  0.00    -0.270 OA
ATOM     20  N   UNL     1       3.694  -2.052  -0.293  0.00  0.00    -0.311 N 
ATOM     21  H   UNL     1       2.880  -2.535  -0.081  0.00  0.00    +0.149 HD
BRANCH  18  25
ATOM     22  C   UNL     1      -0.038   1.361  -0.214  0.00  0.00    +0.000 A 
ATOM     23  C   UNL     1       1.121   2.053  -0.517  0.00  0.00    +0.001 A 
ATOM     24  C   UNL     1       2.323   1.383  -0.610  0.00  0.00    +0.013 A 
ATOM     25  C   UNL     1       2.369   0.004  -0.399  0.00  0.00    +0.037 A 
ATOM     26  C   UNL     1       1.196  -0.688  -0.094  0.00  0.00    +0.013 A 
ATOM     27  C   UNL     1      -0.000  -0.006  -0.004  0.00  0.00    +0.001 A 
ENDBRANCH  18  25
ENDBRANCH  17  20
ENDBRANCH  16  17
ENDBRANCH  12  16
ENDBRANCH   1  14
BRANCH   9  28
ATOM     28  C   UNL     1       8.972 -11.628   0.281  0.00  0.00    +0.155 C 
BRANCH  28  29
ATOM     29  C   UNL     1       9.337 -12.132  -1.117  0.00  0.00    +0.248 C 
BRANCH  29  30
ATOM     30  O   UNL     1      10.108 -11.139  -1.796  0.00  0.00    -0.490 OA
BRANCH  30  31
ATOM     31  C   UNL     1      10.516 -11.431  -3.058  0.00  0.00    +0.128 A 
ATOM     32  C   UNL     1      10.185 -12.627  -3.628  0.00  0.00    +0.046 A 
ATOM     33  C   UNL     1      10.595 -12.941  -4.921  0.00  0.00    +0.004 A 
ATOM     34  C   UNL     1      11.338 -12.067  -5.654  0.00  0.00    +0.009 A 
ATOM     35  C   UNL     1      11.699 -10.826  -5.103  0.00  0.00    -0.014 A 
ATOM     36  C   UNL     1      11.280 -10.499  -3.790  0.00  0.00    +0.024 A 
ATOM     37  C   UNL     1      11.637  -9.257  -3.241  0.00  0.00    +0.012 A 
ATOM     38  C   UNL     1      12.376  -8.382  -3.978  0.00  0.00    +0.001 A 
ATOM     39  C   UNL     1      12.784  -8.701  -5.271  0.00  0.00    +0.001 A 
ATOM     40  C   UNL     1      12.466  -9.900  -5.832  0.00  0.00    +0.008 A 
ENDBRANCH  30  31
ENDBRANCH  29  30
ENDBRANCH  28  29
ENDBRANCH   9  28
TORSDOF 9
