REMARK  Name = ZINC35934901
REMARK  9 active torsions:
REMARK  status: ('A' for Active; 'I' for Inactive)
REMARK    1  A    between atoms: C_1  and  C_2
REMARK    2  A    between atoms: C_2  and  N_3
REMARK    3  A    between atoms: C_6  and  C_11
REMARK    4  A    between atoms: N_21  and  C_23
REMARK    5  A    between atoms: C_23  and  C_25
REMARK    6  A    between atoms: C_23  and  C_26
REMARK    7  A    between atoms: N_28  and  C_29
REMARK    8  A    between atoms: C_29  and  C_30
REMARK    9  A    between atoms: C_30  and  C_31
REMARK                            x       y       z     vdW  Elec       q    Type
REMARK                         _______ _______ _______ _____ _____    ______ ____
ROOT
ATOM      1  N   UNL     1      -1.385  -0.530   0.324  0.00  0.00    -0.257 N 
ATOM      2  C   UNL     1      -2.072  -0.890   1.448  0.00  0.00    +0.042 C 
ATOM      3  C   UNL     1      -3.335  -1.357   1.376  0.00  0.00    +0.058 C 
ATOM      4  C   UNL     1      -3.968  -1.468   0.004  0.00  0.00    +0.143 C 
ATOM      5  N   UNL     1      -3.145  -1.054  -1.145  0.00  0.00    -0.288 N 
ATOM      6  C   UNL     1      -1.897  -0.602  -0.912  0.00  0.00    +0.307 C 
ATOM      7  O   UNL     1      -1.212  -0.254  -1.854  0.00  0.00    -0.252 OA
ATOM      8  C   UNL     1      -3.821  -1.658   2.665  0.00  0.00    +0.247 C 
ATOM      9  O   UNL     1      -4.933  -2.096   2.896  0.00  0.00    -0.270 OA
ATOM     10  N   UNL     1      -2.895  -1.398   3.606  0.00  0.00    -0.281 N 
ATOM     11  C   UNL     1      -1.702  -0.887   2.914  0.00  0.00    +0.160 C 
ATOM     12  H   UNL     1      -3.495  -1.101  -2.049  0.00  0.00    +0.151 HD
ENDROOT
BRANCH   4  13
ATOM     13  C   UNL     1      -5.222  -0.632   0.001  0.00  0.00    -0.004 A 
ATOM     14  C   UNL     1      -5.409   0.337   0.970  0.00  0.00    +0.008 A 
ATOM     15  C   UNL     1      -6.558   1.104   0.969  0.00  0.00    +0.020 A 
ATOM     16  C   UNL     1      -7.523   0.903  -0.003  0.00  0.00    +0.042 A 
ATOM     17  C   UNL     1      -7.337  -0.066  -0.972  0.00  0.00    +0.040 A 
ATOM     18  C   UNL     1      -6.183  -0.830  -0.973  0.00  0.00    +0.048 A 
ATOM     19 CL   UNL     1      -5.946  -2.042  -2.194  0.00  0.00    -0.083 Cl
ATOM     20 CL   UNL     1      -8.967   1.866  -0.004  0.00  0.00    -0.083 Cl
ENDBRANCH   4  13
BRANCH   1  22
ATOM     21  C   UNL     1      -0.045   1.488   0.662  0.00  0.00    +0.025 C 
ATOM     22  C   UNL     1      -0.017  -0.031   0.478  0.00  0.00    +0.111 C 
ENDBRANCH   1  22
BRANCH  10  23
ATOM     23  C   UNL     1      -3.047  -1.588   5.051  0.00  0.00    +0.159 C 
ATOM     24  C   UNL     1      -3.335  -3.062   5.343  0.00  0.00    +0.038 C 
BRANCH  23  25
ATOM     25  C   UNL     1      -4.191  -0.744   5.550  0.00  0.00    +0.233 C 
ATOM     26  O   UNL     1      -4.818  -0.052   4.776  0.00  0.00    -0.274 OA
ATOM     27  N   UNL     1      -4.518  -0.758   6.858  0.00  0.00    -0.313 N 
ATOM     28  H   UNL     1      -4.017  -1.312   7.477  0.00  0.00    +0.149 HD
BRANCH  27  29
ATOM     29  C   UNL     1      -5.630   0.062   7.344  0.00  0.00    +0.109 C 
BRANCH  29  30
ATOM     30  C   UNL     1      -5.789  -0.136   8.852  0.00  0.00    +0.061 C 
BRANCH  30  31
ATOM     31  C   UNL     1      -6.933   0.708   9.352  0.00  0.00    -0.009 A 
ATOM     32  C   UNL     1      -8.245   0.387   9.466  0.00  0.00    +0.011 A 
ATOM     33  C   UNL     1      -9.127   1.332   9.957  0.00  0.00    +0.008 A 
ATOM     34  C   UNL     1      -8.653   2.552  10.310  0.00  0.00    +0.045 A 
ATOM     35  S   UNL     1      -6.911   2.388   9.956  0.00  0.00    -0.102 S 
ENDBRANCH  30  31
ENDBRANCH  29  30
ENDBRANCH  27  29
ENDBRANCH  23  25
ENDBRANCH  10  23
TORSDOF 7
