REMARK  Name = ZINC19180044
REMARK  12 active torsions:
REMARK  status: ('A' for Active; 'I' for Inactive)
REMARK    1  A    between atoms: C_1  and  C_2
REMARK    2  A    between atoms: C_7  and  N_8
REMARK    3  A    between atoms: C_9  and  C_34
REMARK    4  A    between atoms: C_12  and  S_13
REMARK    5  A    between atoms: S_13  and  C_14
REMARK    6  A    between atoms: C_14  and  C_15
REMARK    7  A    between atoms: N_17  and  C_18
REMARK    8  A    between atoms: C_19  and  C_27
REMARK    9  A    between atoms: N_29  and  C_30
REMARK   10  A    between atoms: C_30  and  C_31
REMARK   11  A    between atoms: C_31  and  O_32
REMARK   12  A    between atoms: O_32  and  C_33
REMARK                            x       y       z     vdW  Elec       q    Type
REMARK                         _______ _______ _______ _____ _____    ______ ____
ROOT
ATOM      1  C   UNL     1      -1.723   5.092   0.038  0.00  0.00    +0.228 C 
ATOM      2  O   UNL     1      -2.896   4.782   0.042  0.00  0.00    -0.275 OA
ATOM      3  N   UNL     1      -1.370   6.393   0.044  0.00  0.00    -0.279 N 
ATOM      4  H   UNL     1      -0.306   6.674   0.040  0.00  0.00    +0.155 HD
ENDROOT
BRANCH   3   5
ATOM      5  C   UNL     1      -2.347   7.377   0.054  0.00  0.00    +0.084 A 
ATOM      6  C   UNL     1      -2.183   8.755   0.066  0.00  0.00    +0.069 A 
ATOM      7  C   UNL     1      -3.384   9.574   0.072  0.00  0.00    -0.023 A 
ATOM      8  C   UNL     1      -4.548   8.888   0.074  0.00  0.00    -0.004 A 
ATOM      9  S   UNL     1      -4.069   7.184   0.062  0.00  0.00    -0.077 S 
ATOM     10  C   UNL     1      -5.932   9.460   0.086  0.00  0.00    +0.043 C 
ATOM     11  C   UNL     1      -5.840  10.943   0.472  0.00  0.00    +0.005 C 
ATOM     12  C   UNL     1      -4.742  11.604  -0.366  0.00  0.00    +0.005 C 
ATOM     13  C   UNL     1      -3.370  11.097   0.080  0.00  0.00    +0.037 C 
BRANCH   6  14
ATOM     14  C   UNL     1      -0.849   9.362   0.069  0.00  0.00    +0.247 C 
ATOM     15  O   UNL     1      -0.297   9.624  -0.984  0.00  0.00    -0.270 OA
ATOM     16  N   UNL     1      -0.233   9.629   1.238  0.00  0.00    -0.309 N 
ATOM     17  H   UNL     1      -0.732   9.393   2.189  0.00  0.00    +0.149 HD
BRANCH  16  18
ATOM     18  C   UNL     1       1.101  10.236   1.241  0.00  0.00    +0.132 C 
BRANCH  18  19
ATOM     19  C   UNL     1       1.568  10.433   2.684  0.00  0.00    +0.178 C 
BRANCH  19  20
ATOM     20  O   UNL     1       1.730   9.159   3.311  0.00  0.00    -0.381 OA
ATOM     21  C   UNL     1       2.167   9.231   4.670  0.00  0.00    +0.194 C 
ENDBRANCH  19  20
ENDBRANCH  18  19
ENDBRANCH  16  18
ENDBRANCH   6  14
ENDBRANCH   3   5
BRANCH   1  22
ATOM     22  C   UNL     1      -0.661   4.023   0.027  0.00  0.00    +0.173 C 
BRANCH  22  23
ATOM     23  S   UNL     1      -1.447   2.393   0.022  0.00  0.00    -0.076 S 
BRANCH  23  28
ATOM     24  N   UNL     1       0.002  -0.004   0.002  0.00  0.00    -0.274 N 
ATOM     25  C   UNL     1       1.326  -0.355  -0.013  0.00  0.00    +0.135 A 
ATOM     26  N   UNL     1       2.019   0.748  -0.013  0.00  0.00    -0.133 NA
ATOM     27  N   UNL     1       1.234   1.765  -0.000  0.00  0.00    -0.122 NA
ATOM     28  C   UNL     1      -0.017   1.364   0.009  0.00  0.00    +0.197 A 
ATOM     29  C   UNL     1       1.878  -1.758  -0.026  0.00  0.00    +0.088 C 
BRANCH  24  36
ATOM     30  C   UNL     1      -1.029  -0.855   2.515  0.00  0.00    +0.046 C 
ATOM     31  C   UNL     1      -1.637  -1.305   1.212  0.00  0.00    -0.027 A 
ATOM     32  C   UNL     1      -2.729  -2.151   1.215  0.00  0.00    +0.005 A 
ATOM     33  C   UNL     1      -3.284  -2.569   0.020  0.00  0.00    +0.000 A 
ATOM     34  C   UNL     1      -2.752  -2.138  -1.182  0.00  0.00    +0.002 A 
ATOM     35  C   UNL     1      -1.663  -1.288  -1.191  0.00  0.00    +0.026 A 
ATOM     36  C   UNL     1      -1.104  -0.867   0.008  0.00  0.00    +0.053 A 
ENDBRANCH  24  36
ENDBRANCH  23  28
ENDBRANCH  22  23
ENDBRANCH   1  22
TORSDOF 9
