REMARK  Name = ZINC26664540
REMARK  8 active torsions:
REMARK  status: ('A' for Active; 'I' for Inactive)
REMARK    1  A    between atoms: N_10  and  C_13
REMARK    2  A    between atoms: C_13  and  C_14
REMARK    3  A    between atoms: C_17  and  S_20
REMARK    4  A    between atoms: S_20  and  N_23
REMARK    5  A    between atoms: N_23  and  C_24
REMARK    6  A    between atoms: N_23  and  C_31
REMARK    7  A    between atoms: C_24  and  C_25
REMARK    8  A    between atoms: C_31  and  C_32
REMARK                            x       y       z     vdW  Elec       q    Type
REMARK                         _______ _______ _______ _____ _____    ______ ____
ROOT
ATOM      1  C   UNL     1      -3.093   5.962  -0.498  0.00  0.00    -0.033 A 
ATOM      2  C   UNL     1      -3.681   5.265   0.540  0.00  0.00    +0.007 A 
ATOM      3  C   UNL     1      -2.943   4.343   1.259  0.00  0.00    +0.029 A 
ATOM      4  C   UNL     1      -1.617   4.118   0.938  0.00  0.00    +0.106 A 
ATOM      5  C   UNL     1      -1.028   4.819  -0.097  0.00  0.00    +0.029 A 
ATOM      6  C   UNL     1      -1.767   5.738  -0.818  0.00  0.00    +0.007 A 
ENDROOT
BRANCH   4   7
ATOM      7  S   UNL     1      -0.676   2.943   1.854  0.00  0.00    +0.061 S 
ATOM      8  O   UNL     1      -1.303   2.822   3.124  0.00  0.00    -0.153 OA
ATOM      9  O   UNL     1       0.688   3.313   1.710  0.00  0.00    -0.153 OA
BRANCH   7  10
ATOM     10  N   UNL     1      -0.852   1.479   1.099  0.00  0.00    -0.170 NA
BRANCH  10  11
ATOM     11  C   UNL     1      -1.944   0.582   1.485  0.00  0.00    +0.166 C 
BRANCH  11  12
ATOM     12  C   UNL     1      -1.448  -0.395   2.521  0.00  0.00    +0.074 A 
ATOM     13  C   UNL     1      -1.562  -0.259   3.856  0.00  0.00    +0.108 A 
ATOM     14  N   UNL     1      -0.984  -1.365   4.417  0.00  0.00    -0.351 N 
ATOM     15  H   UNL     1      -0.957  -1.476   5.511  0.00  0.00    +0.166 HD
ATOM     16  C   UNL     1      -0.537  -2.139   3.405  0.00  0.00    +0.196 A 
ATOM     17  N   UNL     1      -0.822  -1.555   2.274  0.00  0.00    -0.240 NA
ENDBRANCH  11  12
ENDBRANCH  10  11
BRANCH  10  18
ATOM     18  C   UNL     1       0.084   1.082   0.045  0.00  0.00    +0.113 C 
BRANCH  18  19
ATOM     19  C   UNL     1      -0.476   1.496  -1.317  0.00  0.00    +0.005 C 
ATOM     20  C   UNL     1      -1.756   0.708  -1.604  0.00  0.00    +0.005 C 
ATOM     21  C   UNL     1      -2.316   1.122  -2.966  0.00  0.00    +0.000 C 
ATOM     22  C   UNL     1      -1.282   0.828  -4.054  0.00  0.00    +0.000 C 
ATOM     23  C   UNL     1      -0.002   1.616  -3.768  0.00  0.00    +0.000 C 
ATOM     24  C   UNL     1       0.559   1.202  -2.406  0.00  0.00    +0.005 C 
ENDBRANCH  18  19
ENDBRANCH  10  18
ENDBRANCH   7  10
ENDBRANCH   4   7
BRANCH   1  25
ATOM     25  C   UNL     1      -3.897   6.966  -1.282  0.00  0.00    +0.119 C 
BRANCH  25  35
ATOM     26  C   UNL     1      -5.069  13.425   2.910  0.00  0.00    +0.005 A 
ATOM     27  C   UNL     1      -4.413  14.424   2.203  0.00  0.00    +0.018 A 
ATOM     28  C   UNL     1      -3.903  14.144   0.951  0.00  0.00    +0.084 A 
ATOM     29  N   UNL     1      -4.028  12.941   0.423  0.00  0.00    -0.350 N 
ATOM     30  C   UNL     1      -4.651  11.963   1.063  0.00  0.00    +0.099 A 
ATOM     31  C   UNL     1      -5.189  12.175   2.329  0.00  0.00    +0.042 A 
ATOM     32  N   UNL     1      -4.764  10.712   0.468  0.00  0.00    -0.314 N 
ATOM     33  C   UNL     1      -4.133  10.702  -0.859  0.00  0.00    +0.122 C 
ATOM     34  C   UNL     1      -4.348   9.335  -1.513  0.00  0.00    +0.103 C 
ATOM     35  N   UNL     1      -3.778   8.288  -0.653  0.00  0.00    -0.295 NA
ATOM     36  C   UNL     1      -4.409   8.299   0.674  0.00  0.00    +0.103 C 
ATOM     37  C   UNL     1      -4.194   9.666   1.327  0.00  0.00    +0.122 C 
ATOM     38  H   UNL     1      -3.609  12.730  -0.572  0.00  0.00    +0.166 HD
ENDBRANCH  25  35
ENDBRANCH   1  25
TORSDOF 8
