REMARK  Name = ZINC36543096
REMARK  15 active torsions:
REMARK  status: ('A' for Active; 'I' for Inactive)
REMARK    1  A    between atoms: C_1  and  C_2
REMARK    2  A    between atoms: C_2  and  C_3
REMARK    3  A    between atoms: C_3  and  C_5
REMARK    4  A    between atoms: C_3  and  C_11
REMARK    5  A    between atoms: N_13  and  C_14
REMARK    6  A    between atoms: N_13  and  C_21
REMARK    7  A    between atoms: C_21  and  C_23
REMARK    8  A    between atoms: C_21  and  C_32
REMARK    9  A    between atoms: C_26  and  N_29
REMARK   10  A    between atoms: N_29  and  C_30
REMARK   11  A    between atoms: N_29  and  C_31
REMARK   12  A    between atoms: N_34  and  C_35
REMARK   13  A    between atoms: C_35  and  C_36
REMARK   14  A    between atoms: C_35  and  C_37
REMARK   15  A    between atoms: C_35  and  C_38
REMARK                            x       y       z     vdW  Elec       q    Type
REMARK                         _______ _______ _______ _____ _____    ______ ____
ROOT
ATOM      1  C   UNL     1       0.851  -2.309  -0.107  0.00  0.00    +0.228 C 
ATOM      2  O   UNL     1       0.656  -2.882   0.945  0.00  0.00    -0.275 OA
ATOM      3  N   UNL     1       0.448  -2.870  -1.264  0.00  0.00    -0.253 N 
ENDROOT
BRANCH   3   4
ATOM      4  C   UNL     1       0.740  -2.246  -2.483  0.00  0.00    +0.056 A 
ATOM      5  C   UNL     1      -0.025  -1.170  -2.914  0.00  0.00    +0.025 A 
ATOM      6  C   UNL     1       0.265  -0.556  -4.116  0.00  0.00    +0.002 A 
ATOM      7  C   UNL     1       1.316  -1.011  -4.892  0.00  0.00    +0.002 A 
ATOM      8  C   UNL     1       2.080  -2.081  -4.466  0.00  0.00    +0.022 A 
ATOM      9  C   UNL     1       1.799  -2.697  -3.261  0.00  0.00    +0.062 A 
ATOM     10 CL   UNL     1       2.763  -4.037  -2.723  0.00  0.00    -0.082 Cl
ENDBRANCH   3   4
BRANCH   1  11
ATOM     11  C   UNL     1       1.544  -0.971  -0.118  0.00  0.00    +0.105 C 
BRANCH  11  12
ATOM     12  C   UNL     1       2.618  -0.952   0.939  0.00  0.00    -0.036 A 
ATOM     13  C   UNL     1       2.284  -1.149   2.266  0.00  0.00    +0.004 A 
ATOM     14  C   UNL     1       3.268  -1.131   3.236  0.00  0.00    +0.000 A 
ATOM     15  C   UNL     1       4.587  -0.917   2.880  0.00  0.00    +0.000 A 
ATOM     16  C   UNL     1       4.920  -0.721   1.552  0.00  0.00    +0.000 A 
ATOM     17  C   UNL     1       3.937  -0.743   0.582  0.00  0.00    +0.004 A 
ENDBRANCH  11  12
BRANCH  11  19
ATOM     18  C   UNL     1       1.194   1.500   0.004  0.00  0.00    +0.005 C 
ATOM     19  C   UNL     1       0.525   0.133   0.169  0.00  0.00    +0.014 C 
ENDBRANCH  11  19
ENDBRANCH   1  11
BRANCH   3  20
ATOM     20  C   UNL     1      -0.294  -4.132  -1.247  0.00  0.00    +0.197 C 
BRANCH  20  21
ATOM     21  C   UNL     1      -1.654  -3.907  -0.638  0.00  0.00    -0.018 A 
ATOM     22  C   UNL     1      -2.413  -2.819  -1.028  0.00  0.00    +0.008 A 
ATOM     23  C   UNL     1      -3.660  -2.609  -0.472  0.00  0.00    +0.023 A 
ATOM     24  C   UNL     1      -4.151  -3.493   0.480  0.00  0.00    +0.029 A 
ATOM     25  C   UNL     1      -3.386  -4.585   0.870  0.00  0.00    +0.023 A 
ATOM     26  C   UNL     1      -2.143  -4.792   0.306  0.00  0.00    +0.008 A 
BRANCH  24  27
ATOM     27  N   UNL     1      -5.411  -3.284   1.045  0.00  0.00    -0.336 N 
ATOM     28  C   UNL     1      -6.216  -2.131   0.633  0.00  0.00    +0.129 C 
ATOM     29  C   UNL     1      -5.928  -4.217   2.050  0.00  0.00    +0.129 C 
ENDBRANCH  24  27
ENDBRANCH  20  21
BRANCH  20  30
ATOM     30  C   UNL     1      -0.454  -4.641  -2.657  0.00  0.00    +0.239 C 
ATOM     31  O   UNL     1      -0.591  -3.857  -3.572  0.00  0.00    -0.273 OA
ATOM     32  N   UNL     1      -0.443  -5.966  -2.901  0.00  0.00    -0.309 N 
ATOM     33  H   UNL     1      -0.333  -6.593  -2.168  0.00  0.00    +0.149 HD
BRANCH  32  34
ATOM     34  C   UNL     1      -0.598  -6.460  -4.271  0.00  0.00    +0.026 C 
ATOM     35  C   UNL     1       0.537  -5.916  -5.141  0.00  0.00    +0.031 C 
ATOM     36  C   UNL     1      -0.551  -7.990  -4.270  0.00  0.00    +0.031 C 
ATOM     37  C   UNL     1      -1.941  -5.992  -4.834  0.00  0.00    +0.031 C 
ENDBRANCH  32  34
ENDBRANCH  20  30
ENDBRANCH   3  20
TORSDOF 9
