REMARK  Name = ZINC36484522
REMARK  11 active torsions:
REMARK  status: ('A' for Active; 'I' for Inactive)
REMARK    1  A    between atoms: C_1  and  C_2
REMARK    2  A    between atoms: C_2  and  C_3
REMARK    3  A    between atoms: C_2  and  C_4
REMARK    4  A    between atoms: C_2  and  N_5
REMARK    5  A    between atoms: C_6  and  C_8
REMARK    6  A    between atoms: C_8  and  C_10
REMARK    7  A    between atoms: C_8  and  N_19
REMARK    8  A    between atoms: C_13  and  N_16
REMARK    9  A    between atoms: N_19  and  C_20
REMARK   10  A    between atoms: C_27  and  C_29
REMARK   11  A    between atoms: C_30  and  C_31
REMARK                            x       y       z     vdW  Elec       q    Type
REMARK                         _______ _______ _______ _____ _____    ______ ____
ROOT
ATOM      1  C   UNL     1       2.888  -0.257  -2.696  0.00  0.00    +0.198 C 
ENDROOT
BRANCH   1   2
ATOM      2  C   UNL     1       2.375   0.526  -3.876  0.00  0.00    -0.018 A 
ATOM      3  C   UNL     1       2.866   1.793  -4.131  0.00  0.00    +0.008 A 
ATOM      4  C   UNL     1       2.395   2.512  -5.214  0.00  0.00    +0.033 A 
ATOM      5  C   UNL     1       1.433   1.963  -6.042  0.00  0.00    +0.126 A 
ATOM      6  C   UNL     1       0.943   0.696  -5.788  0.00  0.00    +0.033 A 
ATOM      7  C   UNL     1       1.417  -0.024  -4.707  0.00  0.00    +0.008 A 
BRANCH   5   8
ATOM      8  N   UNL     1       0.929   2.733  -7.201  0.00  0.00    +0.056 N 
ATOM      9  O   UNL     1       1.357   3.842  -7.424  0.00  0.00    -0.126 OA
ATOM     10  O   UNL     1       0.088   2.254  -7.926  0.00  0.00    -0.126 OA
ENDBRANCH   5   8
ENDBRANCH   1   2
BRANCH   1  12
ATOM     11  N   UNL     1       1.259   0.721  -1.112  0.00  0.00    -0.309 N 
ATOM     12  C   UNL     1       2.547   0.472  -1.422  0.00  0.00    +0.239 C 
ATOM     13  O   UNL     1       3.431   0.835  -0.675  0.00  0.00    -0.273 OA
ATOM     14  H   UNL     1       0.552   0.431  -1.709  0.00  0.00    +0.149 HD
BRANCH  11  16
ATOM     15  C   UNL     1       1.578   2.815   0.111  0.00  0.00    +0.031 C 
ATOM     16  C   UNL     1       0.927   1.430   0.126  0.00  0.00    +0.026 C 
ATOM     17  C   UNL     1       1.448   0.635   1.325  0.00  0.00    +0.031 C 
ATOM     18  C   UNL     1      -0.592   1.582   0.235  0.00  0.00    +0.031 C 
ENDBRANCH  11  16
ENDBRANCH   1  12
BRANCH   1  19
ATOM     19  N   UNL     1       4.342  -0.402  -2.801  0.00  0.00    -0.245 N 
ATOM     20  C   UNL     1       5.006  -1.185  -1.927  0.00  0.00    +0.297 C 
ATOM     21  O   UNL     1       4.412  -1.700  -0.998  0.00  0.00    -0.260 OA
BRANCH  19  22
ATOM     22  C   UNL     1       5.041   0.272  -3.807  0.00  0.00    +0.040 A 
ATOM     23  C   UNL     1       5.930   1.287  -3.476  0.00  0.00    +0.023 A 
ATOM     24  C   UNL     1       6.619   1.951  -4.472  0.00  0.00    +0.003 A 
ATOM     25  C   UNL     1       6.425   1.607  -5.797  0.00  0.00    +0.020 A 
ATOM     26  C   UNL     1       5.540   0.597  -6.130  0.00  0.00    +0.043 A 
ATOM     27  C   UNL     1       4.852  -0.076  -5.138  0.00  0.00    +0.043 A 
ATOM     28 CL   UNL     1       5.299   0.169  -7.795  0.00  0.00    -0.083 Cl
ENDBRANCH  19  22
BRANCH  20  29
ATOM     29  C   UNL     1       6.410  -1.412  -2.093  0.00  0.00    -0.002 C 
ATOM     30  C   UNL     1       7.562  -1.597  -2.229  0.00  0.00    -0.057 C 
BRANCH  30  31
ATOM     31  C   UNL     1       8.966  -1.824  -2.395  0.00  0.00    +0.025 A 
ATOM     32  C   UNL     1       9.653  -1.230  -3.458  0.00  0.00    +0.017 A 
ATOM     33  C   UNL     1      11.005  -1.452  -3.611  0.00  0.00    +0.001 A 
ATOM     34  C   UNL     1      11.682  -2.262  -2.716  0.00  0.00    +0.000 A 
ATOM     35  C   UNL     1      11.009  -2.854  -1.661  0.00  0.00    +0.001 A 
ATOM     36  C   UNL     1       9.658  -2.635  -1.491  0.00  0.00    +0.017 A 
ENDBRANCH  30  31
ENDBRANCH  20  29
ENDBRANCH   1  19
TORSDOF 8
