REMARK  Name = ZINC18206121
REMARK  8 active torsions:
REMARK  status: ('A' for Active; 'I' for Inactive)
REMARK    1  A    between atoms: C_1  and  C_2
REMARK    2  A    between atoms: C_2  and  O_3
REMARK    3  A    between atoms: O_3  and  C_4
REMARK    4  A    between atoms: C_4  and  C_6
REMARK    5  A    between atoms: C_10  and  N_11
REMARK    6  A    between atoms: C_12  and  C_14
REMARK    7  A    between atoms: C_15  and  C_33
REMARK    8  A    between atoms: C_19  and  C_21
REMARK                            x       y       z     vdW  Elec       q    Type
REMARK                         _______ _______ _______ _____ _____    ______ ____
ROOT
ATOM      1  C   UNL     1      -0.891   6.177   1.321  0.00  0.00    +0.043 C 
ATOM      2  C   UNL     1      -2.162   6.573   1.136  0.00  0.00    +0.014 C 
ATOM      3  N   UNL     1      -2.726   6.532  -0.109  0.00  0.00    -0.321 N 
ATOM      4  C   UNL     1      -1.941   6.478  -1.230  0.00  0.00    +0.015 C 
ATOM      5  C   UNL     1      -0.654   6.081  -1.146  0.00  0.00    +0.024 C 
ATOM      6  C   UNL     1      -0.058   5.675   0.179  0.00  0.00    +0.090 C 
ATOM      7  C   UNL     1       0.167   6.035  -2.286  0.00  0.00    +0.162 C 
ATOM      8  O   UNL     1       1.320   5.667  -2.177  0.00  0.00    -0.292 OA
ATOM      9  C   UNL     1      -0.356   6.434  -3.639  0.00  0.00    +0.080 C 
ATOM     10  C   UNL     1      -1.472   7.469  -3.458  0.00  0.00    +0.014 C 
ATOM     11  C   UNL     1      -2.550   6.866  -2.554  0.00  0.00    +0.051 C 
ATOM     12  C   UNL     1      -2.970   7.065   2.308  0.00  0.00    +0.061 C 
ATOM     13  H   UNL     1      -3.821   6.543  -0.218  0.00  0.00    +0.152 HD
ENDROOT
BRANCH   6  14
ATOM     14  C   UNL     1       0.020   4.171   0.246  0.00  0.00    -0.035 A 
ATOM     15  C   UNL     1       1.247   3.548   0.375  0.00  0.00    +0.007 A 
ATOM     16  C   UNL     1       1.319   2.169   0.437  0.00  0.00    +0.038 A 
ATOM     17  C   UNL     1       0.162   1.412   0.370  0.00  0.00    +0.123 A 
ATOM     18  C   UNL     1      -1.066   2.037   0.236  0.00  0.00    +0.038 A 
ATOM     19  C   UNL     1      -1.137   3.416   0.179  0.00  0.00    +0.007 A 
ATOM     20  F   UNL     1       0.232   0.064   0.429  0.00  0.00    -0.205 F 
ENDBRANCH   6  14
BRANCH   1  22
ATOM     21  N   UNL     1       0.905   5.737   2.841  0.00  0.00    -0.275 N 
ATOM     22  C   UNL     1      -0.328   6.235   2.619  0.00  0.00    +0.247 C 
ATOM     23  O   UNL     1      -0.957   6.735   3.534  0.00  0.00    -0.270 OA
ATOM     24  H   UNL     1       1.473   5.286   2.015  0.00  0.00    +0.156 HD
BRANCH  21  29
ATOM     25  C   UNL     1       2.698   5.339   4.533  0.00  0.00    +0.091 A 
ATOM     26  C   UNL     1       3.038   5.522   5.934  0.00  0.00    -0.021 A 
ATOM     27  C   UNL     1       2.090   6.125   6.683  0.00  0.00    -0.004 A 
ATOM     28  S   UNL     1       0.765   6.456   5.555  0.00  0.00    -0.077 S 
ATOM     29  C   UNL     1       1.456   5.794   4.110  0.00  0.00    +0.087 A 
ATOM     30  C   UNL     1       2.159   6.442   8.145  0.00  0.00    +0.043 C 
ATOM     31  C   UNL     1       3.319   5.645   8.758  0.00  0.00    +0.005 C 
ATOM     32  C   UNL     1       4.558   5.819   7.875  0.00  0.00    +0.005 C 
ATOM     33  C   UNL     1       4.360   5.079   6.550  0.00  0.00    +0.037 C 
BRANCH  25  34
ATOM     34  C   UNL     1       3.630   4.700   3.602  0.00  0.00    +0.342 C 
ATOM     35  O   UNL     1       4.438   5.375   2.991  0.00  0.00    -0.245 OA
BRANCH  34  36
ATOM     36  O   UNL     1       3.594   3.364   3.422  0.00  0.00    -0.461 OA
BRANCH  36  38
ATOM     37  C   UNL     1       4.357   1.283   2.414  0.00  0.00    +0.048 C 
ATOM     38  C   UNL     1       4.548   2.799   2.484  0.00  0.00    +0.229 C 
ENDBRANCH  36  38
ENDBRANCH  34  36
ENDBRANCH  25  34
ENDBRANCH  21  29
ENDBRANCH   1  22
TORSDOF 6
