REMARK  Name = ZINC10220062
REMARK  6 active torsions:
REMARK  status: ('A' for Active; 'I' for Inactive)
REMARK    1  A    between atoms: C_1  and  C_2
REMARK    2  A    between atoms: C_15  and  C_17
REMARK    3  A    between atoms: C_17  and  S_18
REMARK    4  A    between atoms: S_18  and  C_19
REMARK    5  A    between atoms: C_22  and  C_25
REMARK    6  A    between atoms: N_23  and  C_24
REMARK                            x       y       z     vdW  Elec       q    Type
REMARK                         _______ _______ _______ _____ _____    ______ ____
ROOT
ATOM      1  C   UNL     1       2.009 -10.986   2.779  0.00  0.00    +0.029 C 
ATOM      2  C   UNL     1       1.320 -10.673   1.449  0.00  0.00    +0.087 C 
ATOM      3  C   UNL     1       1.723 -11.718   0.403  0.00  0.00    +0.118 C 
ATOM      4  C   UNL     1       1.397 -11.222  -0.982  0.00  0.00    +0.219 C 
ATOM      5  O   UNL     1       0.437 -11.671  -1.572  0.00  0.00    -0.275 OA
ATOM      6  N   UNL     1       2.168 -10.283  -1.571  0.00  0.00    -0.284 N 
ATOM      7  C   UNL     1       3.222  -9.686  -0.869  0.00  0.00    +0.055 A 
ATOM      8  C   UNL     1       4.477  -9.563  -1.441  0.00  0.00    +0.025 A 
ATOM      9  C   UNL     1       5.488  -8.921  -0.750  0.00  0.00    +0.002 A 
ATOM     10  C   UNL     1       5.251  -8.403   0.510  0.00  0.00    +0.002 A 
ATOM     11  C   UNL     1       4.003  -8.531   1.093  0.00  0.00    +0.025 A 
ATOM     12  C   UNL     1       2.987  -9.180   0.411  0.00  0.00    +0.058 A 
ATOM     13  N   UNL     1       1.723  -9.341   0.994  0.00  0.00    -0.266 N 
ATOM     14  C   UNL     1       0.896  -8.287   1.139  0.00  0.00    +0.230 C 
ATOM     15  O   UNL     1      -0.196  -8.438   1.646  0.00  0.00    -0.274 OA
ATOM     16  H   UNL     1       1.990 -10.018  -2.487  0.00  0.00    +0.155 HD
ENDROOT
BRANCH  14  17
ATOM     17  C   UNL     1       1.327  -6.920   0.672  0.00  0.00    +0.173 C 
BRANCH  17  18
ATOM     18  S   UNL     1       0.008  -5.726   1.002  0.00  0.00    -0.077 S 
BRANCH  18  19
ATOM     19  C   UNL     1       0.759  -4.260   0.376  0.00  0.00    +0.192 A 
ATOM     20  N   UNL     1       1.954  -4.165  -0.163  0.00  0.00    -0.122 NA
ATOM     21  N   UNL     1       2.185  -2.950  -0.512  0.00  0.00    -0.128 NA
ATOM     22  C   UNL     1       1.153  -2.195  -0.217  0.00  0.00    +0.166 A 
ATOM     23  N   UNL     1       0.210  -3.009   0.366  0.00  0.00    -0.305 N 
ATOM     24  C   UNL     1      -1.109  -2.618   0.868  0.00  0.00    +0.153 C 
BRANCH  22  25
ATOM     25  C   UNL     1       1.030  -0.742  -0.460  0.00  0.00    +0.037 A 
ATOM     26  C   UNL     1      -0.224  -0.120  -0.440  0.00  0.00    +0.014 A 
ATOM     27  C   UNL     1      -0.285   1.242  -0.672  0.00  0.00    +0.020 A 
ATOM     28  C   UNL     1       0.884   1.940  -0.915  0.00  0.00    +0.111 A 
ATOM     29  N   UNL     1       2.053   1.329  -0.928  0.00  0.00    -0.263 NA
ATOM     30  C   UNL     1       2.162   0.034  -0.713  0.00  0.00    +0.122 A 
ENDBRANCH  22  25
ENDBRANCH  18  19
ENDBRANCH  17  18
ENDBRANCH  14  17
TORSDOF 4
