REMARK  Name = ZINC01472236
REMARK  5 active torsions:
REMARK  status: ('A' for Active; 'I' for Inactive)
REMARK    1  A    between atoms: C_4  and  C_7
REMARK    2  A    between atoms: N_10  and  C_12
REMARK    3  A    between atoms: C_19  and  N_34
REMARK    4  A    between atoms: C_20  and  C_32
REMARK    5  A    between atoms: C_21  and  C_23
REMARK                            x       y       z     vdW  Elec       q    Type
REMARK                         _______ _______ _______ _____ _____    ______ ____
ROOT
ATOM      1  C   UNL     1      -2.806   0.486  -2.544  0.00  0.00    +0.101 A 
ATOM      2  C   UNL     1      -2.590   0.112  -1.214  0.00  0.00    +0.055 A 
ATOM      3  C   UNL     1      -2.448  -1.245  -1.174  0.00  0.00    +0.230 A 
ATOM      4  N   UNL     1      -2.569  -1.708  -2.439  0.00  0.00    -0.199 N 
ATOM      5  N   UNL     1      -2.793  -0.608  -3.282  0.00  0.00    -0.163 NA
ATOM      6  O   UNL     1      -2.228  -1.925  -0.021  0.00  0.00    -0.423 OA
ATOM      7  C   UNL     1      -2.423  -1.267   1.139  0.00  0.00    +0.200 C 
ATOM      8  C   UNL     1      -2.565   0.074   1.228  0.00  0.00    +0.098 C 
ATOM      9  C   UNL     1      -2.513   0.975   0.019  0.00  0.00    +0.102 C 
ENDROOT
BRANCH   9  10
ATOM     10  C   UNL     1      -1.220   1.749   0.017  0.00  0.00    -0.031 A 
ATOM     11  C   UNL     1      -0.013   1.076   0.008  0.00  0.00    +0.008 A 
ATOM     12  C   UNL     1       1.176   1.782   0.000  0.00  0.00    +0.050 A 
ATOM     13  C   UNL     1       1.160   3.167   0.007  0.00  0.00    +0.166 A 
ATOM     14  C   UNL     1      -0.057   3.845   0.022  0.00  0.00    +0.167 A 
ATOM     15  C   UNL     1      -1.244   3.131   0.029  0.00  0.00    +0.054 A 
ATOM     16  O   UNL     1       0.192   5.188   0.026  0.00  0.00    -0.453 OA
ATOM     17  C   UNL     1       1.569   5.322   0.426  0.00  0.00    +0.466 C 
ATOM     18  O   UNL     1       2.171   4.084   0.002  0.00  0.00    -0.453 OA
ENDBRANCH   9  10
BRANCH   1  22
ATOM     19  C   UNL     1      -3.400   4.451  -3.961  0.00  0.00    +0.000 A 
ATOM     20  C   UNL     1      -2.712   3.537  -4.739  0.00  0.00    +0.001 A 
ATOM     21  C   UNL     1      -2.517   2.249  -4.284  0.00  0.00    +0.010 A 
ATOM     22  C   UNL     1      -3.013   1.870  -3.038  0.00  0.00    +0.003 A 
ATOM     23  C   UNL     1      -3.709   2.793  -2.261  0.00  0.00    +0.010 A 
ATOM     24  C   UNL     1      -3.894   4.080  -2.723  0.00  0.00    +0.001 A 
ENDBRANCH   1  22
BRANCH   4  25
ATOM     25  C   UNL     1      -2.485  -3.048  -2.838  0.00  0.00    +0.069 A 
ATOM     26  C   UNL     1      -1.608  -3.911  -2.195  0.00  0.00    +0.028 A 
ATOM     27  C   UNL     1      -1.532  -5.234  -2.586  0.00  0.00    +0.002 A 
ATOM     28  C   UNL     1      -2.319  -5.695  -3.624  0.00  0.00    +0.000 A 
ATOM     29  C   UNL     1      -3.189  -4.837  -4.271  0.00  0.00    +0.002 A 
ATOM     30  C   UNL     1      -3.274  -3.514  -3.880  0.00  0.00    +0.028 A 
ENDBRANCH   4  25
BRANCH   7  31
ATOM     31  N   UNL     1      -2.481  -2.001   2.297  0.00  0.00    -0.328 N 
ATOM     32  H   UNL     1      -2.383  -2.966   2.265  0.00  0.00    +0.145 HD
ATOM     33  H   UNL     1      -2.620  -1.556   3.148  0.00  0.00    +0.145 HD
ENDBRANCH   7  31
BRANCH   8  34
ATOM     34  C   UNL     1      -2.772   0.662   2.518  0.00  0.00    +0.101 C 
ATOM     35  N   UNL     1      -2.937   1.128   3.540  0.00  0.00    -0.191 NA
ENDBRANCH   8  34
TORSDOF 5
