REMARK  Name = ZINC08845741
REMARK  6 active torsions:
REMARK  status: ('A' for Active; 'I' for Inactive)
REMARK    1  A    between atoms: C_1  and  C_2
REMARK    2  A    between atoms: C_8  and  C_28
REMARK    3  A    between atoms: C_10  and  C_15
REMARK    4  A    between atoms: C_15  and  C_17
REMARK    5  A    between atoms: C_24  and  C_27
REMARK    6  A    between atoms: C_32  and  N_34
REMARK                            x       y       z     vdW  Elec       q    Type
REMARK                         _______ _______ _______ _____ _____    ______ ____
ROOT
ATOM      1  C   UNL     1      -1.017   3.386   6.266  0.00  0.00    +0.075 C 
ATOM      2  C   UNL     1      -0.552   3.425   4.833  0.00  0.00    +0.101 A 
ATOM      3  N   UNL     1       0.373   2.711   4.223  0.00  0.00    -0.145 NA
ATOM      4  N   UNL     1       0.642   2.864   3.000  0.00  0.00    -0.125 NA
ATOM      5  C   UNL     1       0.016   3.765   2.255  0.00  0.00    +0.191 A 
ATOM      6  S   UNL     1      -1.098   4.455   3.474  0.00  0.00    -0.035 S 
ATOM      7  N   UNL     1       0.176   4.080   0.911  0.00  0.00    -0.230 N 
ATOM      8  C   UNL     1       1.125   3.452  -0.015  0.00  0.00    +0.152 C 
ATOM      9  C   UNL     1       0.920   4.130  -1.350  0.00  0.00    +0.077 C 
ATOM     10  C   UNL     1      -0.057   5.050  -1.175  0.00  0.00    +0.250 C 
ATOM     11  C   UNL     1      -0.513   5.013   0.229  0.00  0.00    +0.293 C 
ATOM     12  O   UNL     1      -1.382   5.720   0.700  0.00  0.00    -0.266 OA
ATOM     13  O   UNL     1      -0.540   5.873  -2.134  0.00  0.00    -0.282 OA
ENDROOT
BRANCH   8  14
ATOM     14  C   UNL     1       0.838   1.978  -0.133  0.00  0.00    -0.020 A 
ATOM     15  C   UNL     1      -0.467   1.534  -0.241  0.00  0.00    +0.006 A 
ATOM     16  C   UNL     1      -0.731   0.182  -0.349  0.00  0.00    +0.003 A 
ATOM     17  C   UNL     1       0.310  -0.728  -0.349  0.00  0.00    +0.033 A 
ATOM     18  C   UNL     1       1.615  -0.284  -0.240  0.00  0.00    +0.127 A 
ATOM     19  C   UNL     1       1.879   1.069  -0.133  0.00  0.00    +0.038 A 
BRANCH  18  20
ATOM     20  N   UNL     1       2.730  -1.258  -0.239  0.00  0.00    +0.056 N 
ATOM     21  O   UNL     1       2.494  -2.453  -0.239  0.00  0.00    -0.126 OA
ATOM     22  O   UNL     1       3.882  -0.865  -0.237  0.00  0.00    -0.126 OA
ENDBRANCH  18  20
ENDBRANCH   8  14
BRANCH   9  23
ATOM     23  C   UNL     1       1.641   3.846  -2.595  0.00  0.00    +0.195 C 
ATOM     24  O   UNL     1       1.048   3.372  -3.546  0.00  0.00    -0.287 OA
BRANCH  23  25
ATOM     25  C   UNL     1       3.085   4.134  -2.694  0.00  0.00    +0.023 A 
ATOM     26  C   UNL     1       3.755   4.753  -1.634  0.00  0.00    +0.015 A 
ATOM     27  C   UNL     1       5.099   5.020  -1.727  0.00  0.00    +0.046 A 
ATOM     28  C   UNL     1       5.808   4.688  -2.883  0.00  0.00    +0.124 A 
ATOM     29  C   UNL     1       5.136   4.071  -3.935  0.00  0.00    -0.002 A 
ATOM     30  C   UNL     1       3.794   3.796  -3.852  0.00  0.00    +0.019 A 
ATOM     31  C   UNL     1       6.158   3.821  -5.028  0.00  0.00    +0.083 C 
ATOM     32  C   UNL     1       7.492   4.009  -4.266  0.00  0.00    +0.175 C 
ATOM     33  O   UNL     1       7.121   4.878  -3.183  0.00  0.00    -0.488 OA
ATOM     34  C   UNL     1       8.538   4.676  -5.162  0.00  0.00    +0.052 C 
ENDBRANCH  23  25
ENDBRANCH   9  23
TORSDOF 4
