REMARK  Name = ZINC40066358
REMARK  14 active torsions:
REMARK  status: ('A' for Active; 'I' for Inactive)
REMARK    1  A    between atoms: C_1  and  C_2
REMARK    2  A    between atoms: C_2  and  C_3
REMARK    3  A    between atoms: C_3  and  C_4
REMARK    4  A    between atoms: C_4  and  N_5
REMARK    5  A    between atoms: C_6  and  C_23
REMARK    6  A    between atoms: C_14  and  C_22
REMARK    7  A    between atoms: C_15  and  C_21
REMARK    8  A    between atoms: C_26  and  O_31
REMARK    9  A    between atoms: C_27  and  O_29
REMARK   10  A    between atoms: O_29  and  C_30
REMARK   11  A    between atoms: O_31  and  C_32
REMARK   12  A    between atoms: C_32  and  C_33
REMARK   13  A    between atoms: C_33  and  C_34
REMARK   14  A    between atoms: C_33  and  C_35
REMARK                            x       y       z     vdW  Elec       q    Type
REMARK                         _______ _______ _______ _____ _____    ______ ____
ROOT
ATOM      1  N   UNL     1       1.425  -2.500  -2.470  0.00  0.00    -0.284 N 
ATOM      2  C   UNL     1       0.793  -2.784  -3.770  0.00  0.00    +0.145 C 
ATOM      3  C   UNL     1       1.897  -3.236  -4.669  0.00  0.00    +0.072 A 
ATOM      4  C   UNL     1       1.886  -3.664  -6.072  0.00  0.00    +0.199 A 
ATOM      5  O   UNL     1       0.916  -3.545  -6.798  0.00  0.00    -0.287 OA
ATOM      6  C   UNL     1       3.171  -4.256  -6.522  0.00  0.00    +0.065 A 
ATOM      7  C   UNL     1       3.261  -4.890  -7.761  0.00  0.00    +0.015 A 
ATOM      8  C   UNL     1       4.451  -5.434  -8.159  0.00  0.00    +0.004 A 
ATOM      9  C   UNL     1       5.564  -5.359  -7.334  0.00  0.00    -0.044 A 
ATOM     10  C   UNL     1       5.494  -4.736  -6.108  0.00  0.00    -0.005 A 
ATOM     11  C   UNL     1       4.293  -4.170  -5.681  0.00  0.00    +0.143 A 
ATOM     12  O   UNL     1       4.248  -3.554  -4.477  0.00  0.00    -0.449 OA
ATOM     13  C   UNL     1       3.058  -3.208  -3.950  0.00  0.00    +0.199 A 
ATOM     14  C   UNL     1       2.746  -2.745  -2.586  0.00  0.00    +0.283 C 
ATOM     15  O   UNL     1       3.560  -2.607  -1.695  0.00  0.00    -0.267 OA
ATOM     16  C   UNL     1       6.715  -4.666  -5.228  0.00  0.00    +0.048 C 
ATOM     17  C   UNL     1       6.867  -5.967  -7.786  0.00  0.00    +0.044 C 
ENDROOT
BRANCH   2  18
ATOM     18  C   UNL     1      -0.237  -3.874  -3.620  0.00  0.00    -0.019 A 
ATOM     19  C   UNL     1       0.018  -4.955  -2.796  0.00  0.00    +0.009 A 
ATOM     20  C   UNL     1      -0.923  -5.957  -2.656  0.00  0.00    +0.050 A 
ATOM     21  C   UNL     1      -2.126  -5.880  -3.340  0.00  0.00    +0.162 A 
ATOM     22  C   UNL     1      -2.382  -4.791  -4.168  0.00  0.00    +0.162 A 
ATOM     23  C   UNL     1      -1.436  -3.788  -4.301  0.00  0.00    +0.055 A 
BRANCH  22  24
ATOM     24  O   UNL     1      -3.561  -4.711  -4.842  0.00  0.00    -0.491 OA
ATOM     25  C   UNL     1      -3.755  -3.565  -5.674  0.00  0.00    +0.277 C 
ENDBRANCH  22  24
BRANCH  21  26
ATOM     26  O   UNL     1      -3.053  -6.865  -3.203  0.00  0.00    -0.488 OA
BRANCH  26  27
ATOM     27  C   UNL     1      -2.721  -7.952  -2.337  0.00  0.00    +0.232 C 
BRANCH  27  28
ATOM     28  C   UNL     1      -3.877  -8.954  -2.310  0.00  0.00    +0.020 C 
ATOM     29  C   UNL     1      -3.473 -10.176  -1.482  0.00  0.00    +0.010 C 
ATOM     30  C   UNL     1      -5.107  -8.297  -1.681  0.00  0.00    +0.010 C 
ENDBRANCH  27  28
ENDBRANCH  26  27
ENDBRANCH  21  26
ENDBRANCH   2  18
BRANCH   1  31
ATOM     31  C   UNL     1       0.739  -2.027  -1.265  0.00  0.00    +0.109 C 
BRANCH  31  32
ATOM     32  C   UNL     1       0.718  -0.497  -1.257  0.00  0.00    +0.019 C 
BRANCH  32  34
ATOM     33  C   UNL     1      -0.019   1.526   0.010  0.00  0.00    +0.004 C 
ATOM     34  C   UNL     1       0.002  -0.004   0.002  0.00  0.00    -0.002 C 
ENDBRANCH  32  34
ENDBRANCH  31  32
ENDBRANCH   1  31
TORSDOF 8
