REMARK  Name = ZINC33937551
REMARK  6 active torsions:
REMARK  status: ('A' for Active; 'I' for Inactive)
REMARK    1  A    between atoms: C_1  and  C_2
REMARK    2  A    between atoms: C_7  and  C_10
REMARK    3  A    between atoms: C_16  and  C_17
REMARK    4  A    between atoms: C_20  and  N_23
REMARK    5  A    between atoms: C_24  and  C_35
REMARK    6  A    between atoms: C_27  and  C_29
REMARK                            x       y       z     vdW  Elec       q    Type
REMARK                         _______ _______ _______ _____ _____    ______ ____
ROOT
ATOM      1  C   UNL     1      -4.705  -5.949  -3.666  0.00  0.00    -0.024 A 
ATOM      2  C   UNL     1      -5.062  -4.733  -4.264  0.00  0.00    +0.010 A 
ATOM      3  C   UNL     1      -5.956  -4.718  -5.296  0.00  0.00    +0.025 A 
ATOM      4  C   UNL     1      -6.512  -5.910  -5.756  0.00  0.00    +0.052 A 
ATOM      5  C   UNL     1      -6.160  -7.122  -5.165  0.00  0.00    +0.025 A 
ATOM      6  C   UNL     1      -5.263  -7.146  -4.136  0.00  0.00    +0.010 A 
ENDROOT
BRANCH   1  20
ATOM      7  C   UNL     1      -3.893   1.010   2.728  0.00  0.00    +0.039 C 
ATOM      8  C   UNL     1      -3.092  -0.131   2.098  0.00  0.00    +0.133 C 
ATOM      9  C   UNL     1      -3.993  -1.361   1.935  0.00  0.00    +0.138 C 
ATOM     10  N   UNL     1      -3.158  -2.494   1.506  0.00  0.00    -0.307 N 
ATOM     11  C   UNL     1      -1.938  -2.785   2.275  0.00  0.00    +0.138 C 
ATOM     12  C   UNL     1      -1.137  -1.486   2.421  0.00  0.00    +0.133 C 
ATOM     13  O   UNL     1      -1.988  -0.464   2.944  0.00  0.00    -0.371 OA
ATOM     14  C   UNL     1       0.036  -1.714   3.376  0.00  0.00    +0.039 C 
ATOM     15  C   UNL     1      -3.507  -3.256   0.422  0.00  0.00    +0.154 C 
ATOM     16  N   UNL     1      -4.559  -3.123  -0.371  0.00  0.00    -0.154 NA
ATOM     17  C   UNL     1      -4.781  -3.928  -1.388  0.00  0.00    +0.276 C 
ATOM     18  O   UNL     1      -5.755  -3.795  -2.112  0.00  0.00    -0.267 OA
ATOM     19  C   UNL     1      -3.786  -5.002  -1.605  0.00  0.00    +0.079 C 
ATOM     20  C   UNL     1      -3.745  -5.971  -2.557  0.00  0.00    +0.028 C 
ATOM     21  S   UNL     1      -2.649  -4.663  -0.267  0.00  0.00    -0.052 S 
ENDBRANCH   1  20
BRANCH   4  22
ATOM     22  N   UNL     1      -7.421  -5.890  -6.807  0.00  0.00    -0.216 N 
ATOM     23  C   UNL     1      -8.086  -7.068  -7.386  0.00  0.00    +0.134 C 
ATOM     24  C   UNL     1      -8.971  -6.474  -8.499  0.00  0.00    +0.087 C 
ATOM     25  C   UNL     1      -8.701  -4.988  -8.425  0.00  0.00    +0.069 C 
ATOM     26  N   UNL     1      -7.856  -4.751  -7.481  0.00  0.00    -0.183 NA
BRANCH  25  27
ATOM     27  C   UNL     1      -9.315  -3.967  -9.294  0.00  0.00    -0.002 A 
ATOM     28  C   UNL     1     -10.230  -4.343 -10.280  0.00  0.00    +0.010 A 
ATOM     29  C   UNL     1     -10.800  -3.383 -11.090  0.00  0.00    +0.001 A 
ATOM     30  C   UNL     1     -10.467  -2.050 -10.927  0.00  0.00    +0.000 A 
ATOM     31  C   UNL     1      -9.561  -1.670  -9.953  0.00  0.00    +0.001 A 
ATOM     32  C   UNL     1      -8.988  -2.619  -9.132  0.00  0.00    +0.010 A 
ENDBRANCH  25  27
BRANCH  23  33
ATOM     33  C   UNL     1      -7.071  -8.021  -7.963  0.00  0.00    -0.025 A 
ATOM     34  C   UNL     1      -5.959  -7.530  -8.622  0.00  0.00    +0.005 A 
ATOM     35  C   UNL     1      -5.027  -8.403  -9.151  0.00  0.00    +0.000 A 
ATOM     36  C   UNL     1      -5.207  -9.768  -9.021  0.00  0.00    +0.000 A 
ATOM     37  C   UNL     1      -6.319 -10.259  -8.361  0.00  0.00    +0.000 A 
ATOM     38  C   UNL     1      -7.248  -9.385  -7.829  0.00  0.00    +0.005 A 
ENDBRANCH  23  33
ENDBRANCH   4  22
TORSDOF 4
