REMARK  Name = ZINC21710794
REMARK  9 active torsions:
REMARK  status: ('A' for Active; 'I' for Inactive)
REMARK    1  A    between atoms: C_1  and  C_2
REMARK    2  A    between atoms: C_2  and  C_3
REMARK    3  A    between atoms: C_3  and  C_4
REMARK    4  A    between atoms: C_4  and  N_5
REMARK    5  A    between atoms: C_6  and  C_8
REMARK    6  A    between atoms: C_15  and  C_17
REMARK    7  A    between atoms: C_21  and  N_23
REMARK    8  A    between atoms: N_23  and  S_24
REMARK    9  A    between atoms: S_24  and  C_27
REMARK                            x       y       z     vdW  Elec       q    Type
REMARK                         _______ _______ _______ _____ _____    ______ ____
ROOT
ATOM      1  C   UNL     1       3.104  -4.269  -8.588  0.00  0.00    +0.039 A 
ATOM      2  C   UNL     1       3.142  -5.663  -8.662  0.00  0.00    +0.013 A 
ATOM      3  C   UNL     1       3.636  -6.280  -9.793  0.00  0.00    +0.003 A 
ATOM      4  C   UNL     1       4.094  -5.523 -10.856  0.00  0.00    +0.024 A 
ATOM      5  C   UNL     1       4.060  -4.135 -10.792  0.00  0.00    +0.049 A 
ATOM      6  C   UNL     1       3.561  -3.505  -9.662  0.00  0.00    +0.037 A 
ENDROOT
BRANCH   1  13
ATOM      7  C   UNL     1      -0.500  -2.181  -6.386  0.00  0.00    +0.092 C 
ATOM      8  C   UNL     1      -0.981  -1.574  -7.706  0.00  0.00    +0.016 C 
ATOM      9  C   UNL     1      -0.359  -2.337  -8.877  0.00  0.00    +0.020 C 
ATOM     10  C   UNL     1       1.166  -2.209  -8.813  0.00  0.00    +0.108 C 
ATOM     11  N   UNL     1       1.623  -2.656  -7.491  0.00  0.00    -0.297 N 
ATOM     12  C   UNL     1       1.024  -2.051  -6.294  0.00  0.00    +0.120 C 
ATOM     13  C   UNL     1       2.574  -3.605  -7.378  0.00  0.00    +0.247 C 
ATOM     14  O   UNL     1       2.997  -3.914  -6.281  0.00  0.00    -0.270 OA
BRANCH   7  16
ATOM     15  N   UNL     1      -0.858  -1.813  -3.966  0.00  0.00    -0.315 N 
ATOM     16  C   UNL     1      -1.138  -1.449  -5.234  0.00  0.00    +0.218 C 
ATOM     17  O   UNL     1      -1.903  -0.533  -5.446  0.00  0.00    -0.275 OA
ATOM     18  H   UNL     1      -0.163  -2.644  -3.774  0.00  0.00    +0.149 HD
BRANCH  15  19
ATOM     19  C   UNL     1      -1.478  -1.102  -2.846  0.00  0.00    +0.104 C 
BRANCH  19  20
ATOM     20  C   UNL     1      -0.995  -1.708  -1.527  0.00  0.00    +0.018 C 
BRANCH  20  22
ATOM     21  C   UNL     1      -1.159  -1.572   0.963  0.00  0.00    +0.004 C 
ATOM     22  C   UNL     1      -1.642  -0.966  -0.356  0.00  0.00    -0.002 C 
ENDBRANCH  20  22
ENDBRANCH  19  20
ENDBRANCH  15  19
ENDBRANCH   7  16
ENDBRANCH   1  13
BRANCH   5  23
ATOM     23  N   UNL     1       4.523  -3.375 -11.869  0.00  0.00    -0.216 N 
ATOM     24  H   UNL     1       5.175  -2.508 -11.689  0.00  0.00    +0.174 HD
BRANCH  23  25
ATOM     25  S   UNL     1       4.090  -3.780 -13.415  0.00  0.00    +0.072 S 
ATOM     26  O   UNL     1       4.689  -2.815 -14.270  0.00  0.00    -0.150 OA
ATOM     27  O   UNL     1       4.331  -5.173 -13.553  0.00  0.00    -0.150 OA
BRANCH  25  28
ATOM     28  C   UNL     1       2.348  -3.555 -13.544  0.00  0.00    +0.109 A 
ATOM     29  C   UNL     1       1.833  -2.334 -13.940  0.00  0.00    +0.029 A 
ATOM     30  C   UNL     1       0.468  -2.164 -14.036  0.00  0.00    +0.006 A 
ATOM     31  C   UNL     1      -0.396  -3.211 -13.738  0.00  0.00    -0.044 A 
ATOM     32  C   UNL     1       0.116  -4.428 -13.350  0.00  0.00    -0.042 A 
ATOM     33  C   UNL     1       1.492  -4.598 -13.257  0.00  0.00    +0.032 A 
ATOM     34  C   UNL     1      -0.760  -5.609 -13.022  0.00  0.00    +0.035 C 
ATOM     35  C   UNL     1      -2.193  -5.155 -12.751  0.00  0.00    +0.005 C 
ATOM     36  C   UNL     1      -2.647  -4.268 -13.916  0.00  0.00    +0.005 C 
ATOM     37  C   UNL     1      -1.876  -2.952 -13.850  0.00  0.00    +0.035 C 
ENDBRANCH  25  28
ENDBRANCH  23  25
ENDBRANCH   5  23
TORSDOF 8
