REMARK  Name = ZINC39711003
REMARK  9 active torsions:
REMARK  status: ('A' for Active; 'I' for Inactive)
REMARK    1  A    between atoms: C_1  and  C_2
REMARK    2  A    between atoms: C_4  and  C_36
REMARK    3  A    between atoms: C_9  and  C_14
REMARK    4  A    between atoms: C_14  and  C_16
REMARK    5  A    between atoms: C_14  and  N_25
REMARK    6  A    between atoms: N_20  and  C_21
REMARK    7  A    between atoms: C_21  and  C_22
REMARK    8  A    between atoms: C_22  and  O_23
REMARK    9  A    between atoms: O_23  and  C_24
REMARK                            x       y       z     vdW  Elec       q    Type
REMARK                         _______ _______ _______ _____ _____    ______ ____
ROOT
ATOM      1  C   UNL     1      -1.152  -4.909   2.945  0.00  0.00    +0.018 C 
ENDROOT
BRANCH   1  10
ATOM      2  C   UNL     1       5.172  -4.094   6.163  0.00  0.00    +0.044 C 
ATOM      3  C   UNL     1       4.027  -3.621   5.305  0.00  0.00    -0.050 A 
ATOM      4  C   UNL     1       3.811  -2.251   5.150  0.00  0.00    +0.008 A 
ATOM      5  C   UNL     1       2.801  -1.750   4.393  0.00  0.00    -0.028 A 
ATOM      6  C   UNL     1       1.916  -2.612   3.721  0.00  0.00    +0.043 A 
ATOM      7  N   UNL     1       0.928  -2.109   2.980  0.00  0.00    -0.284 N 
ATOM      8  C   UNL     1       0.062  -2.862   2.324  0.00  0.00    +0.223 C 
ATOM      9  O   UNL     1      -0.819  -2.345   1.663  0.00  0.00    -0.275 OA
ATOM     10  C   UNL     1       0.171  -4.369   2.397  0.00  0.00    +0.092 C 
ATOM     11  C   UNL     1       1.292  -4.946   3.238  0.00  0.00    -0.006 C 
ATOM     12  C   UNL     1       2.120  -4.064   3.866  0.00  0.00    -0.007 A 
ATOM     13  C   UNL     1       3.232  -4.536   4.694  0.00  0.00    +0.012 A 
ATOM     14  C   UNL     1       2.627  -0.258   4.272  0.00  0.00    +0.046 C 
ATOM     15  H   UNL     1       0.841  -1.145   2.920  0.00  0.00    +0.155 HD
ENDBRANCH   1  10
BRANCH   1  16
ATOM     16  N   UNL     1      -1.133  -6.377   2.910  0.00  0.00    +0.387 N 
ATOM     17  C   UNL     1      -1.031  -6.830   1.518  0.00  0.00    -0.078 C 
ATOM     18  C   UNL     1      -0.930  -8.357   1.480  0.00  0.00    -0.018 C 
ATOM     19  C   UNL     1      -2.181  -8.962   2.124  0.00  0.00    +0.003 C 
ATOM     20  C   UNL     1      -2.317  -8.424   3.552  0.00  0.00    -0.044 C 
ATOM     21  C   UNL     1      -2.367  -6.895   3.513  0.00  0.00    -0.071 C 
ATOM     22  C   UNL     1      -1.115  -8.875   4.383  0.00  0.00    +0.005 C 
ATOM     23  C   UNL     1      -1.064 -10.404   4.416  0.00  0.00    +0.000 C 
ATOM     24  C   UNL     1      -2.350 -10.944   5.044  0.00  0.00    +0.000 C 
ATOM     25  C   UNL     1      -3.553 -10.492   4.213  0.00  0.00    +0.000 C 
ATOM     26  C   UNL     1      -3.604  -8.963   4.179  0.00  0.00    +0.005 C 
ATOM     27  H   UNL     1      -0.338  -6.715   3.431  0.00  0.00    -0.081 HD
ENDBRANCH   1  16
BRANCH   1  28
ATOM     28  C   UNL     1      -1.334  -4.443   4.367  0.00  0.00    +0.139 A 
ATOM     29  N   UNL     1      -0.709  -4.896   5.426  0.00  0.00    -0.115 NA
ATOM     30  N   UNL     1      -1.139  -4.246   6.451  0.00  0.00    -0.023 NA
ATOM     31  N   UNL     1      -2.022  -3.388   6.074  0.00  0.00    -0.044 NA
ATOM     32  N   UNL     1      -2.167  -3.475   4.795  0.00  0.00    -0.229 N 
BRANCH  32  33
ATOM     33  C   UNL     1      -3.070  -2.674   3.964  0.00  0.00    +0.175 C 
BRANCH  33  34
ATOM     34  C   UNL     1      -4.426  -3.375   3.863  0.00  0.00    +0.183 C 
BRANCH  34  35
ATOM     35  O   UNL     1      -5.306  -2.594   3.054  0.00  0.00    -0.381 OA
ATOM     36  C   UNL     1      -6.608  -3.163   2.894  0.00  0.00    +0.194 C 
ENDBRANCH  34  35
ENDBRANCH  33  34
ENDBRANCH  32  33
ENDBRANCH   1  28
TORSDOF 6
