REMARK  Name = ZINC04237290
REMARK  3 active torsions:
REMARK  status: ('A' for Active; 'I' for Inactive)
REMARK    1  A    between atoms: C_3  and  C_6
REMARK    2  A    between atoms: C_6  and  N_48
REMARK    3  A    between atoms: C_17  and  C_22
REMARK                            x       y       z     vdW  Elec       q    Type
REMARK                         _______ _______ _______ _____ _____    ______ ____
ROOT
ATOM      1  C   UNL     1       3.848   2.975  -1.592  0.00  0.00    -0.073 C 
ATOM      2  C   UNL     1       3.649   3.111  -0.090  0.00  0.00    -0.007 C 
ATOM      3  C   UNL     1       3.576   1.734   0.575  0.00  0.00    +0.011 C 
ATOM      4  C   UNL     1       2.437   0.957  -0.094  0.00  0.00    +0.020 C 
ATOM      5  C   UNL     1       2.777   0.802  -1.585  0.00  0.00    -0.069 C 
ATOM      6  C   UNL     1       1.161   1.764   0.000  0.00  0.00    +0.023 A 
ATOM      7  C   UNL     1      -0.013   1.076   0.008  0.00  0.00    +0.022 A 
ATOM      8  C   UNL     1      -1.235   1.749   0.017  0.00  0.00    +0.015 A 
ATOM      9  C   UNL     1      -1.230   3.135  -0.003  0.00  0.00    +0.047 A 
ATOM     10  C   UNL     1       0.011   3.810  -0.023  0.00  0.00    +0.259 A 
ATOM     11  O   UNL     1       0.036   5.026  -0.113  0.00  0.00    -0.267 OA
ATOM     12  N   UNL     1       1.174   3.117   0.058  0.00  0.00    -0.311 N 
ATOM     13  C   UNL     1       2.388   3.889   0.245  0.00  0.00    +0.126 C 
ATOM     14  N   UNL     1       2.772   2.156  -2.186  0.00  0.00    +0.383 N 
ATOM     15  H   UNL     1       1.868   2.602  -1.993  0.00  0.00    -0.081 HD
ENDROOT
BRANCH   9  16
ATOM     16  C   UNL     1      -2.502   3.894  -0.010  0.00  0.00    -0.013 A 
ATOM     17  C   UNL     1      -2.846   4.675  -1.114  0.00  0.00    +0.010 A 
ATOM     18  C   UNL     1      -4.034   5.375  -1.118  0.00  0.00    +0.020 A 
ATOM     19  C   UNL     1      -4.880   5.314  -0.024  0.00  0.00    +0.041 A 
ATOM     20  C   UNL     1      -4.542   4.545   1.077  0.00  0.00    +0.020 A 
ATOM     21  C   UNL     1      -3.358   3.836   1.089  0.00  0.00    +0.010 A 
ATOM     22 CL   UNL     1      -6.372   6.202  -0.033  0.00  0.00    -0.084 Cl
ENDBRANCH   9  16
BRANCH  14  23
ATOM     23  C   UNL     1       2.958   2.061  -3.647  0.00  0.00    -0.036 C 
BRANCH  23  26
ATOM     24  C   UNL     1      -0.404   1.198  -5.217  0.00  0.00    +0.008 A 
ATOM     25  C   UNL     1       0.596   1.997  -4.695  0.00  0.00    +0.009 A 
ATOM     26  C   UNL     1       1.738   1.416  -4.251  0.00  0.00    -0.027 A 
ATOM     27  S   UNL     1       1.422  -0.311  -4.574  0.00  0.00    -0.103 S 
ATOM     28  C   UNL     1      -0.213  -0.142  -5.270  0.00  0.00    +0.045 A 
ENDBRANCH  23  26
ENDBRANCH  14  23
TORSDOF 3
