REMARK  Name = ZINC09809120
REMARK  10 active torsions:
REMARK  status: ('A' for Active; 'I' for Inactive)
REMARK    1  A    between atoms: C_1  and  O_2
REMARK    2  A    between atoms: O_2  and  C_3
REMARK    3  A    between atoms: C_8  and  C_9
REMARK    4  A    between atoms: C_9  and  N_11
REMARK    5  A    between atoms: N_13  and  C_25
REMARK    6  A    between atoms: C_17  and  S_21
REMARK    7  A    between atoms: S_21  and  N_24
REMARK    8  A    between atoms: C_25  and  C_26
REMARK    9  A    between atoms: C_26  and  O_28
REMARK   10  A    between atoms: O_28  and  C_29
REMARK                            x       y       z     vdW  Elec       q    Type
REMARK                         _______ _______ _______ _____ _____    ______ ____
ROOT
ATOM      1  N   UNL     1      -2.049   3.467   4.847  0.00  0.00    -0.152 NA
ATOM      2  C   UNL     1      -2.857   2.528   5.325  0.00  0.00    +0.167 A 
ATOM      3  N   UNL     1      -3.792   2.639   6.307  0.00  0.00    -0.310 N 
ATOM      4  C   UNL     1      -4.550   1.542   6.670  0.00  0.00    +0.058 A 
ATOM      5  C   UNL     1      -5.555   1.462   7.647  0.00  0.00    +0.029 A 
ATOM      6  C   UNL     1      -6.210   0.278   7.886  0.00  0.00    +0.030 A 
ATOM      7  C   UNL     1      -5.902  -0.870   7.175  0.00  0.00    +0.106 A 
ATOM      8  C   UNL     1      -4.915  -0.820   6.206  0.00  0.00    +0.045 A 
ATOM      9  C   UNL     1      -4.260   0.364   5.966  0.00  0.00    +0.041 A 
ATOM     10  S   UNL     1      -2.970   0.863   4.853  0.00  0.00    -0.052 S 
ENDROOT
BRANCH   7  11
ATOM     11  S   UNL     1      -6.756  -2.377   7.501  0.00  0.00    +0.056 S 
ATOM     12  O   UNL     1      -5.899  -3.428   7.077  0.00  0.00    -0.153 OA
ATOM     13  O   UNL     1      -7.249  -2.285   8.830  0.00  0.00    -0.153 OA
BRANCH  11  14
ATOM     14  N   UNL     1      -8.079  -2.414   6.506  0.00  0.00    -0.204 NA
ATOM     15  H   UNL     1      -8.428  -3.264   6.195  0.00  0.00    +0.144 HD
ATOM     16  H   UNL     1      -8.505  -1.587   6.234  0.00  0.00    +0.144 HD
ENDBRANCH  11  14
ENDBRANCH   7  11
BRANCH   1  17
ATOM     17  C   UNL     1      -1.180   3.169   3.874  0.00  0.00    +0.273 C 
ATOM     18  O   UNL     1      -1.131   2.037   3.426  0.00  0.00    -0.268 OA
BRANCH  17  24
ATOM     19  C   UNL     1       0.631   3.907   2.323  0.00  0.00    +0.132 A 
ATOM     20  C   UNL     1       1.466   4.896   1.826  0.00  0.00    +0.046 A 
ATOM     21  C   UNL     1       1.404   6.177   2.339  0.00  0.00    +0.004 A 
ATOM     22  C   UNL     1       0.508   6.483   3.350  0.00  0.00    +0.001 A 
ATOM     23  C   UNL     1      -0.330   5.511   3.854  0.00  0.00    +0.017 A 
ATOM     24  C   UNL     1      -0.280   4.214   3.341  0.00  0.00    +0.080 A 
BRANCH  19  26
ATOM     25  C   UNL     1       1.641   2.411   0.778  0.00  0.00    +0.277 C 
ATOM     26  O   UNL     1       0.691   2.648   1.820  0.00  0.00    -0.494 OA
ENDBRANCH  19  26
ENDBRANCH  17  24
ENDBRANCH   1  17
BRANCH   3  27
ATOM     27  C   UNL     1      -3.999   3.926   6.977  0.00  0.00    +0.244 C 
BRANCH  27  28
ATOM     28  C   UNL     1      -2.666   4.580   7.231  0.00  0.00    +0.327 C 
ATOM     29  O   UNL     1      -1.644   3.964   7.041  0.00  0.00    -0.249 OA
BRANCH  28  30
ATOM     30  O   UNL     1      -2.613   5.848   7.668  0.00  0.00    -0.467 OA
ATOM     31  C   UNL     1      -1.295   6.415   7.891  0.00  0.00    +0.280 C 
ENDBRANCH  28  30
ENDBRANCH  27  28
ENDBRANCH   3  27
TORSDOF 8
