REMARK  Name = ZINC59018679
REMARK  10 active torsions:
REMARK  status: ('A' for Active; 'I' for Inactive)
REMARK    1  A    between atoms: C_1  and  C_2
REMARK    2  A    between atoms: C_2  and  N_3
REMARK    3  A    between atoms: N_3  and  C_4
REMARK    4  A    between atoms: C_4  and  C_5
REMARK    5  A    between atoms: C_6  and  C_8
REMARK    6  A    between atoms: C_8  and  S_9
REMARK    7  A    between atoms: S_9  and  C_10
REMARK    8  A    between atoms: N_15  and  N_16
REMARK    9  A    between atoms: C_17  and  C_18
REMARK   10  A    between atoms: C_21  and  O_25
REMARK                            x       y       z     vdW  Elec       q    Type
REMARK                         _______ _______ _______ _____ _____    ______ ____
ROOT
ATOM      1  C   UNL     1      -5.605  -2.097   2.754  0.00  0.00    +0.211 A 
ATOM      2  N   UNL     1      -6.420  -2.401   3.769  0.00  0.00    -0.186 NA
ATOM      3  C   UNL     1      -7.575  -2.825   3.299  0.00  0.00    +0.232 A 
ATOM      4  N   UNL     1      -7.511  -2.796   1.951  0.00  0.00    -0.245 N 
ATOM      5  N   UNL     1      -6.232  -2.318   1.623  0.00  0.00    -0.144 NA
ATOM      6  N   UNL     1      -8.661  -3.228   4.053  0.00  0.00    -0.205 N 
ATOM      7  H   UNL     1      -9.473  -3.526   3.614  0.00  0.00    +0.177 HD
ATOM      8  H   UNL     1      -8.212  -3.052   1.331  0.00  0.00    +0.192 HD
ENDROOT
BRANCH   6   9
ATOM      9  N   UNL     1      -8.590  -3.206   5.452  0.00  0.00    -0.188 NA
ATOM     10  C   UNL     1      -9.610  -3.584   6.161  0.00  0.00    +0.138 C 
BRANCH  10  11
ATOM     11  C   UNL     1      -9.534  -3.561   7.633  0.00  0.00    -0.003 A 
ATOM     12  C   UNL     1      -8.368  -3.127   8.268  0.00  0.00    +0.028 A 
ATOM     13  C   UNL     1      -8.302  -3.107   9.645  0.00  0.00    +0.061 A 
ATOM     14  C   UNL     1      -9.392  -3.519  10.401  0.00  0.00    +0.145 A 
ATOM     15  C   UNL     1     -10.554  -3.951   9.774  0.00  0.00    +0.061 A 
ATOM     16  C   UNL     1     -10.631  -3.968   8.397  0.00  0.00    +0.028 A 
ATOM     17 BR   UNL     1     -12.034  -4.509  10.810  0.00  0.00    -0.046 Br
ATOM     18 BR   UNL     1      -6.724  -2.520  10.506  0.00  0.00    -0.046 Br
BRANCH  14  19
ATOM     19  O   UNL     1      -9.322  -3.498  11.758  0.00  0.00    -0.505 OA
ATOM     20  H   UNL     1      -9.612  -2.665  12.155  0.00  0.00    +0.292 HD
ENDBRANCH  14  19
ENDBRANCH  10  11
ENDBRANCH   6   9
BRANCH   1  21
ATOM     21  S   UNL     1      -3.958  -1.491   2.909  0.00  0.00    -0.075 S 
BRANCH  21  22
ATOM     22  C   UNL     1      -3.407  -1.272   1.195  0.00  0.00    +0.173 C 
BRANCH  22  24
ATOM     23  N   UNL     1      -1.372  -0.511   0.012  0.00  0.00    -0.301 N 
ATOM     24  C   UNL     1      -1.993  -0.751   1.184  0.00  0.00    +0.226 C 
ATOM     25  O   UNL     1      -1.415  -0.546   2.230  0.00  0.00    -0.275 OA
BRANCH  23  27
ATOM     26  C   UNL     1      -0.019   1.526   0.010  0.00  0.00    +0.024 C 
ATOM     27  C   UNL     1       0.002  -0.004   0.002  0.00  0.00    +0.104 C 
ENDBRANCH  23  27
BRANCH  23  28
ATOM     28  C   UNL     1      -2.072  -0.758  -1.251  0.00  0.00    +0.104 C 
ATOM     29  C   UNL     1      -1.816  -2.197  -1.703  0.00  0.00    +0.024 C 
ENDBRANCH  23  28
ENDBRANCH  22  24
ENDBRANCH  21  22
ENDBRANCH   1  21
TORSDOF 8
