REMARK  Name = ZINC33703392
REMARK  10 active torsions:
REMARK  status: ('A' for Active; 'I' for Inactive)
REMARK    1  A    between atoms: C_1  and  C_2
REMARK    2  A    between atoms: C_2  and  C_3
REMARK    3  A    between atoms: C_2  and  C_4
REMARK    4  A    between atoms: C_2  and  N_5
REMARK    5  A    between atoms: C_10  and  C_28
REMARK    6  A    between atoms: C_13  and  C_18
REMARK    7  A    between atoms: C_13  and  C_25
REMARK    8  A    between atoms: C_18  and  C_19
REMARK    9  A    between atoms: C_33  and  O_34
REMARK   10  A    between atoms: O_34  and  C_35
REMARK                            x       y       z     vdW  Elec       q    Type
REMARK                         _______ _______ _______ _____ _____    ______ ____
ROOT
ATOM      1  N   UNL     1      -1.633   2.531  -2.985  0.00  0.00    -0.236 N 
ATOM      2  C   UNL     1      -1.944   2.188  -1.699  0.00  0.00    +0.225 C 
ATOM      3  O   UNL     1      -3.027   1.839  -1.280  0.00  0.00    -0.275 OA
ATOM      4  C   UNL     1      -0.678   2.330  -0.914  0.00  0.00    +0.077 C 
ATOM      5  C   UNL     1      -0.257   1.269   0.098  0.00  0.00    -0.023 C 
ATOM      6  N   UNL     1       1.239   1.278  -0.006  0.00  0.00    +0.396 N 
ATOM      7  C   UNL     1       1.595   1.756  -1.383  0.00  0.00    +0.048 C 
ATOM      8  C   UNL     1       0.305   1.901  -2.069  0.00  0.00    +0.086 C 
ATOM      9  C   UNL     1      -0.280   2.552  -3.216  0.00  0.00    +0.225 C 
ATOM     10  O   UNL     1       0.298   3.017  -4.175  0.00  0.00    -0.275 OA
ATOM     11  H   UNL     1       1.656   1.954   0.755  0.00  0.00    -0.083 HD
ATOM     12  H   UNL     1       1.624   0.260   0.158  0.00  0.00    -0.083 HD
ENDROOT
BRANCH   5  13
ATOM     13  C   UNL     1      -0.696   1.649   1.488  0.00  0.00    -0.018 A 
ATOM     14  C   UNL     1       0.094   2.479   2.260  0.00  0.00    +0.021 A 
ATOM     15  C   UNL     1      -0.309   2.829   3.537  0.00  0.00    +0.018 A 
ATOM     16  C   UNL     1      -1.504   2.348   4.043  0.00  0.00    +0.019 A 
ATOM     17  C   UNL     1      -2.297   1.519   3.274  0.00  0.00    +0.047 A 
ATOM     18  C   UNL     1      -1.897   1.171   1.991  0.00  0.00    +0.122 A 
ATOM     19 BR   UNL     1       0.774   3.965   4.591  0.00  0.00    -0.050 Br
BRANCH  18  20
ATOM     20  O   UNL     1      -2.679   0.360   1.231  0.00  0.00    -0.495 OA
ATOM     21  C   UNL     1      -3.902  -0.095   1.814  0.00  0.00    +0.277 C 
ENDBRANCH  18  20
ENDBRANCH   5  13
BRANCH   1  23
ATOM     22  C   UNL     1      -4.035   2.722  -3.401  0.00  0.00    +0.031 C 
ATOM     23  C   UNL     1      -2.635   2.843  -4.006  0.00  0.00    +0.036 C 
ATOM     24  C   UNL     1      -2.421   4.271  -4.512  0.00  0.00    +0.031 C 
ATOM     25  C   UNL     1      -2.497   1.863  -5.173  0.00  0.00    +0.031 C 
ENDBRANCH   1  23
BRANCH   7  26
ATOM     26  C   UNL     1       2.453   0.737  -2.087  0.00  0.00    +0.346 C 
ATOM     27  O   UNL     1       2.289   0.519  -3.264  0.00  0.00    -0.248 OA
ATOM     28  O   UNL     1       3.400   0.071  -1.407  0.00  0.00    -0.248 OA
ENDBRANCH   7  26
BRANCH   7  29
ATOM     29  C   UNL     1       2.318   3.102  -1.310  0.00  0.00    +0.003 C 
BRANCH  29  30
ATOM     30  C   UNL     1       2.809   3.493  -2.705  0.00  0.00    -0.012 C 
ATOM     31  C   UNL     1       4.142   2.799  -2.990  0.00  0.00    +0.003 C 
ATOM     32  C   UNL     1       4.633   3.190  -4.385  0.00  0.00    +0.000 C 
ATOM     33  C   UNL     1       4.823   4.707  -4.452  0.00  0.00    +0.000 C 
ATOM     34  C   UNL     1       3.490   5.401  -4.167  0.00  0.00    +0.000 C 
ATOM     35  C   UNL     1       2.999   5.010  -2.772  0.00  0.00    +0.003 C 
ENDBRANCH  29  30
ENDBRANCH   7  29
TORSDOF 6
