REMARK  Name = ZINC33051219
REMARK  8 active torsions:
REMARK  status: ('A' for Active; 'I' for Inactive)
REMARK    1  A    between atoms: C_1  and  C_2
REMARK    2  A    between atoms: N_5  and  C_7
REMARK    3  A    between atoms: C_18  and  C_31
REMARK    4  A    between atoms: N_24  and  C_25
REMARK    5  A    between atoms: C_25  and  C_26
REMARK    6  A    between atoms: C_34  and  N_37
REMARK    7  A    between atoms: N_37  and  C_38
REMARK    8  A    between atoms: N_37  and  C_39
REMARK                            x       y       z     vdW  Elec       q    Type
REMARK                         _______ _______ _______ _____ _____    ______ ____
ROOT
ATOM      1  C   UNL     1       4.925   0.966   0.795  0.00  0.00    +0.068 C 
ATOM      2  C   UNL     1       3.630   0.969   0.023  0.00  0.00    +0.067 A 
ATOM      3  C   UNL     1       2.469   1.643   0.385  0.00  0.00    +0.035 A 
ATOM      4  C   UNL     1       1.539   1.415  -0.590  0.00  0.00    +0.146 A 
ATOM      5  N   UNL     1       2.083   0.589  -1.502  0.00  0.00    -0.215 N 
ATOM      6  N   UNL     1       3.408   0.337  -1.105  0.00  0.00    -0.169 NA
ATOM      7  N   UNL     1       0.279   2.020  -0.529  0.00  0.00    -0.303 N 
ATOM      8  C   UNL     1      -0.955   1.509  -0.744  0.00  0.00    +0.093 A 
ATOM      9  C   UNL     1      -1.859   2.479  -0.476  0.00  0.00    +0.020 A 
ATOM     10  C   UNL     1      -1.142   3.634  -0.092  0.00  0.00    +0.025 A 
ATOM     11  C   UNL     1       0.165   3.338  -0.162  0.00  0.00    +0.050 A 
ATOM     12  C   UNL     1       1.348   4.233   0.066  0.00  0.00    +0.155 C 
ATOM     13  N   UNL     1       2.058   3.889   1.320  0.00  0.00    -0.269 N 
ATOM     14  C   UNL     1       2.184   2.443   1.623  0.00  0.00    +0.151 C 
ATOM     15  C   UNL     1       2.560   4.835   2.137  0.00  0.00    +0.304 C 
ATOM     16  O   UNL     1       2.436   6.011   1.855  0.00  0.00    -0.253 OA
ATOM     17  N   UNL     1       3.200   4.477   3.268  0.00  0.00    -0.292 N 
ATOM     18  H   UNL     1       3.312   3.413   3.524  0.00  0.00    +0.151 HD
ENDROOT
BRANCH   5  19
ATOM     19  C   UNL     1       1.446   0.073  -2.639  0.00  0.00    +0.068 A 
ATOM     20  C   UNL     1       1.647  -1.250  -3.010  0.00  0.00    +0.028 A 
ATOM     21  C   UNL     1       1.014  -1.756  -4.128  0.00  0.00    +0.002 A 
ATOM     22  C   UNL     1       0.189  -0.944  -4.885  0.00  0.00    +0.000 A 
ATOM     23  C   UNL     1      -0.009   0.376  -4.521  0.00  0.00    +0.002 A 
ATOM     24  C   UNL     1       0.618   0.886  -3.401  0.00  0.00    +0.028 A 
ENDBRANCH   5  19
BRANCH  12  25
ATOM     25  C   UNL     1       2.300   4.095  -1.093  0.00  0.00    -0.021 A 
ATOM     26  C   UNL     1       3.665   4.087  -0.868  0.00  0.00    +0.007 A 
ATOM     27  C   UNL     1       4.540   3.955  -1.927  0.00  0.00    +0.023 A 
ATOM     28  C   UNL     1       4.050   3.842  -3.222  0.00  0.00    +0.029 A 
ATOM     29  C   UNL     1       2.679   3.856  -3.446  0.00  0.00    +0.023 A 
ATOM     30  C   UNL     1       1.808   3.983  -2.381  0.00  0.00    +0.007 A 
BRANCH  28  31
ATOM     31  N   UNL     1       4.933   3.715  -4.297  0.00  0.00    -0.336 N 
ATOM     32  C   UNL     1       4.413   3.596  -5.661  0.00  0.00    +0.129 C 
ATOM     33  C   UNL     1       6.378   3.700  -4.059  0.00  0.00    +0.129 C 
ENDBRANCH  28  31
ENDBRANCH  12  25
BRANCH  17  34
ATOM     34  C   UNL     1       3.746   5.506   4.157  0.00  0.00    +0.180 C 
BRANCH  34  35
ATOM     35  C   UNL     1       4.406   4.848   5.341  0.00  0.00    +0.122 A 
ATOM     36  C   UNL     1       5.694   4.468   5.413  0.00  0.00    +0.046 A 
ATOM     37  C   UNL     1       5.884   3.901   6.694  0.00  0.00    +0.041 A 
ATOM     38  C   UNL     1       4.698   3.961   7.326  0.00  0.00    +0.195 A 
ATOM     39  O   UNL     1       3.807   4.535   6.502  0.00  0.00    -0.466 OA
ENDBRANCH  34  35
ENDBRANCH  17  34
TORSDOF 5
