REMARK  Name = ZINC14806497
REMARK  12 active torsions:
REMARK  status: ('A' for Active; 'I' for Inactive)
REMARK    1  A    between atoms: C_1  and  C_2
REMARK    2  A    between atoms: C_4  and  O_42
REMARK    3  A    between atoms: C_6  and  N_67
REMARK    4  A    between atoms: C_9  and  O_12
REMARK    5  A    between atoms: O_12  and  C_13
REMARK    6  A    between atoms: C_16  and  C_38
REMARK    7  A    between atoms: C_16  and  O_41
REMARK    8  A    between atoms: C_20  and  O_37
REMARK    9  A    between atoms: C_23  and  O_24
REMARK   10  A    between atoms: C_31  and  O_35
REMARK   11  A    between atoms: O_35  and  C_36
REMARK   12  A    between atoms: C_38  and  C_40
REMARK                            x       y       z     vdW  Elec       q    Type
REMARK                         _______ _______ _______ _____ _____    ______ ____
ROOT
ATOM      1  C   UNL     1      -3.964  -5.590  -0.173  0.00  0.00    +0.158 C 
ATOM      2  C   UNL     1      -3.718  -7.023  -0.639  0.00  0.00    +0.079 C 
ATOM      3  C   UNL     1      -2.376  -7.494  -0.065  0.00  0.00    +0.130 C 
ATOM      4  C   UNL     1      -1.258  -6.728  -0.768  0.00  0.00    +0.082 C 
ATOM      5  C   UNL     1      -1.524  -5.245  -0.729  0.00  0.00    +0.007 A 
ATOM      6  C   UNL     1      -2.766  -4.723  -0.463  0.00  0.00    +0.030 A 
ATOM      7  C   UNL     1      -2.956  -3.335  -0.448  0.00  0.00    +0.134 A 
ATOM      8  C   UNL     1      -1.892  -2.472  -0.701  0.00  0.00    +0.078 A 
ATOM      9  C   UNL     1      -0.617  -3.007  -0.971  0.00  0.00    +0.078 A 
ATOM     10  C   UNL     1      -0.444  -4.390  -0.983  0.00  0.00    +0.132 A 
ATOM     11  C   UNL     1       0.519  -2.109  -1.239  0.00  0.00    +0.198 C 
ATOM     12  O   UNL     1       1.619  -2.571  -1.473  0.00  0.00    -0.286 OA
ATOM     13  C   UNL     1       0.319  -0.645  -1.224  0.00  0.00    +0.037 A 
ATOM     14  C   UNL     1       1.385   0.212  -1.476  0.00  0.00    +0.012 A 
ATOM     15  C   UNL     1       1.193   1.583  -1.460  0.00  0.00    +0.004 A 
ATOM     16  C   UNL     1      -0.054   2.113  -1.195  0.00  0.00    +0.046 A 
ATOM     17  C   UNL     1      -1.135   1.275  -0.941  0.00  0.00    +0.132 A 
ATOM     18  C   UNL     1      -0.955  -0.112  -0.954  0.00  0.00    +0.075 A 
ATOM     19  C   UNL     1      -2.092  -1.012  -0.687  0.00  0.00    +0.202 C 
ATOM     20  O   UNL     1      -3.193  -0.550  -0.454  0.00  0.00    -0.286 OA
ENDROOT
BRANCH   3  21
ATOM     21  C   UNL     1      -2.331  -7.214   1.415  0.00  0.00    +0.162 C 
ATOM     22  O   UNL     1      -1.807  -6.205   1.823  0.00  0.00    -0.295 OA
ATOM     23  C   UNL     1      -2.940  -8.192   2.386  0.00  0.00    +0.089 C 
ENDBRANCH   3  21
BRANCH  10  24
ATOM     24  O   UNL     1       0.781  -4.912  -1.242  0.00  0.00    -0.506 OA
ATOM     25  H   UNL     1       1.325  -5.047  -0.454  0.00  0.00    +0.292 HD
ENDBRANCH  10  24
BRANCH  17  26
ATOM     26  O   UNL     1      -2.359   1.801  -0.686  0.00  0.00    -0.494 OA
ATOM     27  C   UNL     1      -2.466   3.226  -0.690  0.00  0.00    +0.277 C 
ENDBRANCH  17  26
BRANCH   7  28
ATOM     28  O   UNL     1      -4.186  -2.828  -0.186  0.00  0.00    -0.506 OA
ATOM     29  H   UNL     1      -4.709  -2.637  -0.976  0.00  0.00    +0.292 HD
ENDBRANCH   7  28
BRANCH   3  30
ATOM     30  O   UNL     1      -2.219  -8.896  -0.295  0.00  0.00    -0.381 OA
ATOM     31  H   UNL     1      -1.390  -9.259   0.044  0.00  0.00    +0.211 HD
ENDBRANCH   3  30
BRANCH   1  32
ATOM     32  O   UNL     1      -5.103  -5.062  -0.855  0.00  0.00    -0.343 OA
BRANCH  32  38
ATOM     33  C   UNL     1      -7.773  -6.524   1.968  0.00  0.00    +0.040 C 
ATOM     34  C   UNL     1      -7.703  -5.021   1.689  0.00  0.00    +0.145 C 
ATOM     35  C   UNL     1      -8.901  -4.605   0.832  0.00  0.00    +0.129 C 
ATOM     36  C   UNL     1      -8.834  -5.332  -0.514  0.00  0.00    -0.039 C 
ATOM     37  C   UNL     1      -7.497  -5.010  -1.190  0.00  0.00    +0.048 C 
ATOM     38  C   UNL     1      -6.353  -5.411  -0.255  0.00  0.00    +0.250 C 
ATOM     39  O   UNL     1      -6.493  -4.723   0.990  0.00  0.00    -0.346 OA
BRANCH  36  42
ATOM     40  H   UNL     1      -9.911  -5.342  -2.269  0.00  0.00    -0.090 HD
ATOM     41  H   UNL     1     -10.829  -5.024  -0.919  0.00  0.00    -0.090 HD
ATOM     42  N   UNL     1      -9.933  -4.857  -1.374  0.00  0.00    +0.382 N 
ATOM     43  H   UNL     1      -9.822  -3.849  -1.536  0.00  0.00    -0.090 HD
ENDBRANCH  36  42
BRANCH  35  44
ATOM     44  O   UNL     1     -10.113  -4.955   1.504  0.00  0.00    -0.391 OA
ATOM     45  H   UNL     1     -10.222  -4.530   2.365  0.00  0.00    +0.210 HD
ENDBRANCH  35  44
ENDBRANCH  32  38
ENDBRANCH   1  32
TORSDOF 9
