REMARK  Name = ZINC11021294
REMARK  7 active torsions:
REMARK  status: ('A' for Active; 'I' for Inactive)
REMARK    1  A    between atoms: C_1  and  C_2
REMARK    2  A    between atoms: C_6  and  N_8
REMARK    3  A    between atoms: C_9  and  C_24
REMARK    4  A    between atoms: C_12  and  S_13
REMARK    5  A    between atoms: S_13  and  C_14
REMARK    6  A    between atoms: C_14  and  C_15
REMARK    7  A    between atoms: N_20  and  C_21
REMARK                            x       y       z     vdW  Elec       q    Type
REMARK                         _______ _______ _______ _____ _____    ______ ____
ROOT
ATOM      1  N   UNL     1       1.124   3.488  -0.012  0.00  0.00    -0.270 N 
ATOM      2  C   UNL     1       1.696   4.332  -0.939  0.00  0.00    +0.169 A 
ATOM      3  N   UNL     1       1.491   5.559  -0.521  0.00  0.00    -0.128 NA
ATOM      4  N   UNL     1       0.847   5.543   0.591  0.00  0.00    -0.122 NA
ATOM      5  C   UNL     1       0.596   4.304   0.951  0.00  0.00    +0.197 A 
ENDROOT
BRANCH   1  11
ATOM      6  C   UNL     1      -1.440  -0.684  -0.471  0.00  0.00    +0.044 C 
ATOM      7  C   UNL     1      -0.134   0.040  -0.266  0.00  0.00    -0.048 A 
ATOM      8  C   UNL     1       1.038  -0.678  -0.112  0.00  0.00    +0.003 A 
ATOM      9  C   UNL     1       2.238  -0.018   0.075  0.00  0.00    +0.002 A 
ATOM     10  C   UNL     1       2.269   1.363   0.108  0.00  0.00    +0.026 A 
ATOM     11  C   UNL     1       1.095   2.087  -0.045  0.00  0.00    +0.051 A 
ATOM     12  C   UNL     1      -0.108   1.421  -0.233  0.00  0.00    +0.029 A 
ENDBRANCH   1  11
BRANCH   2  13
ATOM     13  C   UNL     1       2.405   3.931  -2.172  0.00  0.00    +0.020 A 
ATOM     14  C   UNL     1       3.241   4.838  -2.827  0.00  0.00    +0.013 A 
ATOM     15  C   UNL     1       3.904   4.456  -3.974  0.00  0.00    +0.021 A 
ATOM     16  C   UNL     1       3.734   3.180  -4.484  0.00  0.00    +0.041 A 
ATOM     17  C   UNL     1       2.902   2.277  -3.842  0.00  0.00    +0.021 A 
ATOM     18  C   UNL     1       2.237   2.646  -2.691  0.00  0.00    +0.013 A 
ATOM     19 CL   UNL     1       4.566   2.709  -5.933  0.00  0.00    -0.084 Cl
ENDBRANCH   2  13
BRANCH   5  20
ATOM     20  S   UNL     1      -0.262   3.790   2.401  0.00  0.00    -0.076 S 
BRANCH  20  21
ATOM     21  C   UNL     1      -0.631   5.402   3.136  0.00  0.00    +0.173 C 
BRANCH  21  22
ATOM     22  C   UNL     1      -1.384   5.205   4.427  0.00  0.00    +0.231 C 
ATOM     23  O   UNL     1      -1.646   4.086   4.811  0.00  0.00    -0.274 OA
ATOM     24  N   UNL     1      -1.767   6.274   5.153  0.00  0.00    -0.239 N 
ATOM     25  C   UNL     1      -2.441   6.098   6.307  0.00  0.00    +0.306 C 
ATOM     26  O   UNL     1      -2.704   4.976   6.692  0.00  0.00    -0.252 OA
ATOM     27  N   UNL     1      -2.824   7.167   7.033  0.00  0.00    -0.296 N 
ATOM     28  H   UNL     1      -1.558   7.170   4.845  0.00  0.00    +0.159 HD
ATOM     29  H   UNL     1      -2.615   8.063   6.726  0.00  0.00    +0.151 HD
BRANCH  27  30
ATOM     30  C   UNL     1      -3.557   6.976   8.287  0.00  0.00    +0.075 C 
ATOM     31  C   UNL     1      -4.761   7.884   8.548  0.00  0.00    +0.024 C 
ATOM     32  C   UNL     1      -3.464   8.086   9.336  0.00  0.00    +0.024 C 
ENDBRANCH  27  30
ENDBRANCH  21  22
ENDBRANCH  20  21
ENDBRANCH   5  20
TORSDOF 6
