REMARK  Name = ZINC40057219
REMARK  8 active torsions:
REMARK  status: ('A' for Active; 'I' for Inactive)
REMARK    1  A    between atoms: C_1  and  C_2
REMARK    2  A    between atoms: C_4  and  C_31
REMARK    3  A    between atoms: C_13  and  C_22
REMARK    4  A    between atoms: N_15  and  C_18
REMARK    5  A    between atoms: C_18  and  C_19
REMARK    6  A    between atoms: C_19  and  C_20
REMARK    7  A    between atoms: C_20  and  O_21
REMARK    8  A    between atoms: C_26  and  N_28
REMARK                            x       y       z     vdW  Elec       q    Type
REMARK                         _______ _______ _______ _____ _____    ______ ____
ROOT
ATOM      1  C   UNL     1      -0.523   1.450   0.038  0.00  0.00    +0.044 C 
ATOM      2  C   UNL     1      -0.237  -0.029   0.015  0.00  0.00    -0.047 A 
ATOM      3  C   UNL     1      -0.233  -0.708  -1.195  0.00  0.00    +0.007 A 
ATOM      4  C   UNL     1       0.027  -2.050  -1.231  0.00  0.00    -0.036 A 
ATOM      5  C   UNL     1       0.289  -2.735  -0.045  0.00  0.00    +0.067 A 
ATOM      6  C   UNL     1       0.282  -2.060   1.186  0.00  0.00    +0.140 A 
ATOM      7  C   UNL     1       0.022  -0.690   1.195  0.00  0.00    +0.050 A 
ATOM      8  O   UNL     1       0.518  -2.692   2.358  0.00  0.00    -0.450 OA
ATOM      9  C   UNL     1       1.001  -3.950   2.351  0.00  0.00    +0.199 A 
ATOM     10  C   UNL     1       1.051  -4.714   1.220  0.00  0.00    +0.072 A 
ATOM     11  C   UNL     1       0.581  -4.191  -0.067  0.00  0.00    +0.199 A 
ATOM     12  O   UNL     1       0.444  -4.884  -1.059  0.00  0.00    -0.287 OA
ATOM     13  C   UNL     1       1.631  -6.039   1.591  0.00  0.00    +0.145 C 
ATOM     14  N   UNL     1       1.915  -5.964   3.033  0.00  0.00    -0.284 N 
ATOM     15  C   UNL     1       1.545  -4.742   3.468  0.00  0.00    +0.283 C 
ATOM     16  O   UNL     1       1.646  -4.351   4.614  0.00  0.00    -0.267 OA
ATOM     17  C   UNL     1       0.031  -2.784  -2.547  0.00  0.00    +0.044 C 
ENDROOT
BRANCH  13  18
ATOM     18  C   UNL     1       0.638  -7.138   1.312  0.00  0.00    -0.020 A 
ATOM     19  C   UNL     1      -0.409  -7.363   2.188  0.00  0.00    +0.006 A 
ATOM     20  C   UNL     1      -1.319  -8.370   1.932  0.00  0.00    +0.003 A 
ATOM     21  C   UNL     1      -1.185  -9.153   0.800  0.00  0.00    +0.033 A 
ATOM     22  C   UNL     1      -0.139  -8.928  -0.075  0.00  0.00    +0.127 A 
ATOM     23  C   UNL     1       0.770  -7.918   0.178  0.00  0.00    +0.038 A 
BRANCH  22  24
ATOM     24  N   UNL     1       0.006  -9.767  -1.286  0.00  0.00    +0.056 N 
ATOM     25  O   UNL     1      -0.791 -10.649  -1.509  0.00  0.00    -0.126 OA
ATOM     26  O   UNL     1       0.920  -9.570  -2.052  0.00  0.00    -0.126 OA
ENDBRANCH  22  24
ENDBRANCH  13  18
BRANCH  14  27
ATOM     27  C   UNL     1       2.498  -7.029   3.853  0.00  0.00    +0.111 C 
BRANCH  27  28
ATOM     28  C   UNL     1       4.022  -6.898   3.851  0.00  0.00    +0.047 C 
BRANCH  28  29
ATOM     29  C   UNL     1       4.631  -8.010   4.707  0.00  0.00    +0.157 C 
BRANCH  29  30
ATOM     30  O   UNL     1       6.055  -7.887   4.705  0.00  0.00    -0.395 OA
ATOM     31  H   UNL     1       6.508  -8.562   5.229  0.00  0.00    +0.209 HD
ENDBRANCH  29  30
ENDBRANCH  28  29
ENDBRANCH  27  28
ENDBRANCH  14  27
TORSDOF 6
