REMARK  Name = ZINC06197895
REMARK  13 active torsions:
REMARK  status: ('A' for Active; 'I' for Inactive)
REMARK    1  A    between atoms: C_1  and  C_2
REMARK    2  A    between atoms: C_2  and  C_3
REMARK    3  A    between atoms: C_10  and  C_15
REMARK    4  A    between atoms: C_15  and  C_17
REMARK    5  A    between atoms: C_15  and  N_69
REMARK    6  A    between atoms: N_21  and  C_22
REMARK    7  A    between atoms: C_22  and  C_23
REMARK    8  A    between atoms: C_22  and  C_24
REMARK    9  A    between atoms: C_22  and  C_25
REMARK   10  A    between atoms: C_26  and  C_27
REMARK   11  A    between atoms: C_26  and  N_69
REMARK   12  A    between atoms: C_33  and  C_34
REMARK   13  A    between atoms: C_33  and  N_69
REMARK                            x       y       z     vdW  Elec       q    Type
REMARK                         _______ _______ _______ _____ _____    ______ ____
ROOT
ATOM      1  C   UNL     1      -0.199   1.359  -0.675  0.00  0.00    +0.040 C 
ENDROOT
BRANCH   1   9
ATOM      2  C   UNL     1      -3.269   1.147  -6.043  0.00  0.00    -0.047 A 
ATOM      3  C   UNL     1      -3.377   2.521  -6.214  0.00  0.00    +0.005 A 
ATOM      4  C   UNL     1      -2.851   3.390  -5.283  0.00  0.00    +0.026 A 
ATOM      5  C   UNL     1      -2.203   2.887  -4.159  0.00  0.00    +0.049 A 
ATOM      6  C   UNL     1      -2.095   1.494  -3.989  0.00  0.00    -0.001 A 
ATOM      7  C   UNL     1      -2.638   0.631  -4.947  0.00  0.00    +0.013 A 
ATOM      8  C   UNL     1      -1.413   0.975  -2.802  0.00  0.00    +0.017 A 
ATOM      9  C   UNL     1      -0.907   1.859  -1.907  0.00  0.00    +0.011 A 
ATOM     10  C   UNL     1      -1.048   3.247  -2.122  0.00  0.00    +0.251 A 
ATOM     11  O   UNL     1      -0.590   4.025  -1.302  0.00  0.00    -0.268 OA
ATOM     12  N   UNL     1      -1.668   3.733  -3.211  0.00  0.00    -0.322 N 
ATOM     13  H   UNL     1      -1.742   4.723  -3.336  0.00  0.00    +0.169 HD
BRANCH   2  15
ATOM     14  C   UNL     1      -5.302  -0.107  -6.708  0.00  0.00    +0.009 C 
ATOM     15  C   UNL     1      -3.853   0.217  -7.075  0.00  0.00    +0.032 C 
ENDBRANCH   2  15
ENDBRANCH   1   9
BRANCH   1  16
ATOM     16  C   UNL     1       1.251   1.766  -0.729  0.00  0.00    +0.143 A 
ATOM     17  N   UNL     1       1.733   2.970  -0.535  0.00  0.00    -0.115 NA
ATOM     18  N   UNL     1       3.014   2.911  -0.663  0.00  0.00    -0.023 NA
ATOM     19  N   UNL     1       3.361   1.702  -0.942  0.00  0.00    -0.043 NA
ATOM     20  N   UNL     1       2.302   0.967  -0.991  0.00  0.00    -0.225 N 
BRANCH  20  21
ATOM     21  C   UNL     1       2.252  -0.469  -1.278  0.00  0.00    +0.059 C 
ATOM     22  C   UNL     1       1.342  -0.717  -2.482  0.00  0.00    +0.036 C 
ATOM     23  C   UNL     1       3.662  -0.975  -1.591  0.00  0.00    +0.036 C 
ATOM     24  C   UNL     1       1.701  -1.214  -0.060  0.00  0.00    +0.036 C 
ENDBRANCH  20  21
ENDBRANCH   1  16
BRANCH   1  25
ATOM     25  N   UNL     1      -0.821   1.966   0.520  0.00  0.00    +0.397 N 
ATOM     26  H   UNL     1      -0.628   2.974   0.521  0.00  0.00    -0.079 HD
BRANCH  25  27
ATOM     27  C   UNL     1      -0.251   1.367   1.746  0.00  0.00    -0.041 C 
BRANCH  27  28
ATOM     28  C   UNL     1       1.019   2.100   2.093  0.00  0.00    -0.064 A 
ATOM     29  C   UNL     1       2.243   1.579   1.716  0.00  0.00    +0.002 A 
ATOM     30  C   UNL     1       3.408   2.253   2.029  0.00  0.00    +0.000 A 
ATOM     31  C   UNL     1       3.350   3.444   2.730  0.00  0.00    +0.000 A 
ATOM     32  C   UNL     1       2.127   3.962   3.112  0.00  0.00    +0.000 A 
ATOM     33  C   UNL     1       0.961   3.290   2.793  0.00  0.00    +0.002 A 
ENDBRANCH  27  28
ENDBRANCH  25  27
BRANCH  25  34
ATOM     34  C   UNL     1      -2.284   1.757   0.489  0.00  0.00    -0.001 C 
BRANCH  34  35
ATOM     35  C   UNL     1      -2.925   2.676   1.497  0.00  0.00    +0.089 A 
ATOM     36  C   UNL     1      -3.417   3.902   1.243  0.00  0.00    +0.042 A 
ATOM     37  C   UNL     1      -3.920   4.403   2.465  0.00  0.00    +0.041 A 
ATOM     38  C   UNL     1      -3.706   3.453   3.394  0.00  0.00    +0.195 A 
ATOM     39  O   UNL     1      -3.108   2.407   2.800  0.00  0.00    -0.470 OA
ENDBRANCH  34  35
ENDBRANCH  25  34
ENDBRANCH   1  25
TORSDOF 9
