REMARK  Name = ZINC39468296
REMARK  7 active torsions:
REMARK  status: ('A' for Active; 'I' for Inactive)
REMARK    1  A    between atoms: C_1  and  C_2
REMARK    2  A    between atoms: C_2  and  O_3
REMARK    3  A    between atoms: O_3  and  C_4
REMARK    4  A    between atoms: C_16  and  C_17
REMARK    5  A    between atoms: C_22  and  O_23
REMARK    6  A    between atoms: P_26  and  S_29
REMARK    7  A    between atoms: S_29  and  C_30
REMARK                            x       y       z     vdW  Elec       q    Type
REMARK                         _______ _______ _______ _____ _____    ______ ____
ROOT
ATOM      1  C   UNL     1      -1.498  -1.848   0.006  0.00  0.00    +0.124 C 
ATOM      2  C   UNL     1      -0.434  -2.652  -0.003  0.00  0.00    +0.021 C 
ATOM      3  C   UNL     1      -0.629  -4.144  -0.020  0.00  0.00    +0.008 C 
ATOM      4  C   UNL     1       0.603  -4.840  -0.582  0.00  0.00    -0.046 C 
ATOM      5  N   UNL     1       0.851  -4.436  -1.976  0.00  0.00    +0.398 N 
ATOM      6  C   UNL     1      -0.288  -4.801  -2.822  0.00  0.00    -0.020 C 
ATOM      7  C   UNL     1      -1.561  -4.105  -2.324  0.00  0.00    -0.003 C 
ATOM      8  C   UNL     1      -1.837  -4.496  -0.892  0.00  0.00    +0.016 C 
ATOM      9  C   UNL     1      -3.030  -3.700  -0.421  0.00  0.00    -0.011 C 
ATOM     10  C   UNL     1      -2.856  -2.441   0.016  0.00  0.00    +0.023 C 
ATOM     11  C   UNL     1      -0.077  -4.357  -4.275  0.00  0.00    +0.157 C 
ATOM     12  O   UNL     1       1.080  -5.018  -4.816  0.00  0.00    -0.312 OA
ATOM     13  P   UNL     1       2.457  -4.960  -3.950  0.00  0.00    +0.314 P 
ATOM     14  O   UNL     1       3.140  -3.664  -4.159  0.00  0.00    -0.262 OA
ATOM     15  N   UNL     1       1.983  -5.116  -2.372  0.00  0.00    -0.283 NA
ATOM     16  H   UNL     1       2.485  -5.661  -1.745  0.00  0.00    +0.112 HD
ATOM     17  H   UNL     1       1.018  -3.442  -2.018  0.00  0.00    -0.055 HD
ENDROOT
BRANCH  10  18
ATOM     18  C   UNL     1      -4.013  -1.649   0.499  0.00  0.00    +0.027 A 
ATOM     19  C   UNL     1      -4.564  -1.907   1.752  0.00  0.00    +0.012 A 
ATOM     20  C   UNL     1      -5.641  -1.167   2.197  0.00  0.00    +0.001 A 
ATOM     21  C   UNL     1      -6.176  -0.168   1.403  0.00  0.00    +0.004 A 
ATOM     22  C   UNL     1      -5.637   0.097   0.158  0.00  0.00    +0.046 A 
ATOM     23  C   UNL     1      -4.552  -0.635  -0.299  0.00  0.00    +0.125 A 
BRANCH  23  24
ATOM     24  O   UNL     1      -4.018  -0.372  -1.520  0.00  0.00    -0.506 OA
ATOM     25  H   UNL     1      -4.417  -0.879  -2.241  0.00  0.00    +0.292 HD
ENDBRANCH  23  24
ENDBRANCH  10  18
BRANCH  13  26
ATOM     26  S   UNL     1       3.737  -6.560  -4.495  0.00  0.00    -0.059 S 
ATOM     27  C   UNL     1       4.042  -6.295  -6.264  0.00  0.00    +0.096 C 
ENDBRANCH  13  26
BRANCH   1  28
ATOM     28  O   UNL     1      -1.339  -0.499   0.012  0.00  0.00    -0.492 OA
BRANCH  28  30
ATOM     29  C   UNL     1      -0.019   1.526   0.010  0.00  0.00    +0.048 C 
ATOM     30  C   UNL     1       0.002  -0.004   0.002  0.00  0.00    +0.225 C 
ENDBRANCH  28  30
ENDBRANCH   1  28
TORSDOF 5
