REMARK  Name = ZINC59006467
REMARK  7 active torsions:
REMARK  status: ('A' for Active; 'I' for Inactive)
REMARK    1  A    between atoms: C_7  and  C_11
REMARK    2  A    between atoms: N_12  and  N_13
REMARK    3  A    between atoms: C_16  and  S_19
REMARK    4  A    between atoms: S_19  and  C_20
REMARK    5  A    between atoms: C_20  and  C_21
REMARK    6  A    between atoms: N_23  and  C_24
REMARK    7  A    between atoms: C_24  and  C_25
REMARK                            x       y       z     vdW  Elec       q    Type
REMARK                         _______ _______ _______ _____ _____    ______ ____
ROOT
ATOM      1  N   UNL     1      -1.468  -4.168  -0.004  0.00  0.00    -0.205 N 
ATOM      2  C   UNL     1      -2.835  -3.967   0.011  0.00  0.00    +0.232 A 
ATOM      3  N   UNL     1      -3.446  -2.800   0.018  0.00  0.00    -0.186 NA
ATOM      4  C   UNL     1      -4.771  -2.986   0.033  0.00  0.00    +0.211 A 
ATOM      5  N   UNL     1      -5.020  -4.274   0.035  0.00  0.00    -0.144 NA
ATOM      6  N   UNL     1      -3.780  -4.932   0.016  0.00  0.00    -0.245 N 
ATOM      7  H   UNL     1      -1.111  -5.069  -0.013  0.00  0.00    +0.177 HD
ATOM      8  H   UNL     1      -3.631  -5.890   0.009  0.00  0.00    +0.192 HD
ENDROOT
BRANCH   1  10
ATOM      9  C   UNL     1       0.686  -3.258  -0.021  0.00  0.00    +0.140 C 
ATOM     10  N   UNL     1      -0.599  -3.069  -0.007  0.00  0.00    -0.187 NA
BRANCH   9  17
ATOM     11  C   UNL     1      -0.017   1.363   0.009  0.00  0.00    +0.001 A 
ATOM     12  C   UNL     1       1.170   2.083   0.002  0.00  0.00    +0.002 A 
ATOM     13  C   UNL     1       2.385   1.434  -0.013  0.00  0.00    +0.026 A 
ATOM     14  C   UNL     1       2.425   0.043  -0.021  0.00  0.00    +0.047 A 
ATOM     15  C   UNL     1       1.221  -0.680  -0.013  0.00  0.00    +0.008 A 
ATOM     16  C   UNL     1       0.002  -0.004   0.002  0.00  0.00    +0.010 A 
ATOM     17  C   UNL     1       1.600  -2.104  -0.025  0.00  0.00    +0.020 A 
ATOM     18  C   UNL     1       2.959  -2.143  -0.038  0.00  0.00    +0.093 A 
ATOM     19  N   UNL     1       3.456  -0.872  -0.036  0.00  0.00    -0.360 N 
ATOM     20  H   UNL     1       4.399  -0.645  -0.045  0.00  0.00    +0.165 HD
ENDBRANCH   9  17
ENDBRANCH   1  10
BRANCH   4  21
ATOM     21  S   UNL     1      -5.984  -1.708   0.047  0.00  0.00    -0.075 S 
BRANCH  21  22
ATOM     22  C   UNL     1      -7.562  -2.602   0.064  0.00  0.00    +0.173 C 
BRANCH  22  23
ATOM     23  C   UNL     1      -8.699  -1.613   0.077  0.00  0.00    +0.224 C 
ATOM     24  O   UNL     1      -8.468  -0.423   0.075  0.00  0.00    -0.275 OA
ATOM     25  N   UNL     1      -9.974  -2.052   0.091  0.00  0.00    -0.311 N 
ATOM     26  H   UNL     1     -10.159  -3.004   0.093  0.00  0.00    +0.149 HD
BRANCH  25  27
ATOM     27  C   UNL     1     -11.079  -1.090   0.104  0.00  0.00    +0.139 C 
BRANCH  27  28
ATOM     28  C   UNL     1     -12.390  -1.833   0.118  0.00  0.00    -0.029 A 
ATOM     29  C   UNL     1     -13.002  -2.178  -1.073  0.00  0.00    +0.005 A 
ATOM     30  C   UNL     1     -14.205  -2.858  -1.060  0.00  0.00    +0.002 A 
ATOM     31  C   UNL     1     -14.797  -3.195   0.143  0.00  0.00    +0.020 A 
ATOM     32  C   UNL     1     -14.185  -2.850   1.335  0.00  0.00    +0.041 A 
ATOM     33  C   UNL     1     -12.978  -2.174   1.321  0.00  0.00    +0.025 A 
ATOM     34 CL   UNL     1     -14.928  -3.272   2.846  0.00  0.00    -0.084 Cl
ENDBRANCH  27  28
ENDBRANCH  25  27
ENDBRANCH  22  23
ENDBRANCH  21  22
ENDBRANCH   4  21
TORSDOF 7
