REMARK  Name = ZINC12876948
REMARK  6 active torsions:
REMARK  status: ('A' for Active; 'I' for Inactive)
REMARK    1  A    between atoms: C_3  and  S_16
REMARK    2  A    between atoms: C_6  and  S_7
REMARK    3  A    between atoms: S_7  and  N_10
REMARK    4  A    between atoms: N_10  and  C_11
REMARK    5  A    between atoms: S_16  and  N_19
REMARK    6  A    between atoms: C_22  and  C_25
REMARK                            x       y       z     vdW  Elec       q    Type
REMARK                         _______ _______ _______ _____ _____    ______ ____
ROOT
ATOM      1  S   UNL     1       2.296  -3.603  -1.091  0.00  0.00    +0.061 S 
ATOM      2  O   UNL     1       2.787  -4.285   0.056  0.00  0.00    -0.153 OA
ATOM      3  O   UNL     1       1.714  -4.287  -2.192  0.00  0.00    -0.153 OA
ENDROOT
BRANCH   1   6
ATOM      4  C   UNL     1       5.743  -1.563  -1.412  0.00  0.00    +0.030 A 
ATOM      5  C   UNL     1       4.687  -2.298  -0.907  0.00  0.00    +0.030 A 
ATOM      6  C   UNL     1       3.643  -2.667  -1.735  0.00  0.00    +0.106 A 
ATOM      7  C   UNL     1       3.658  -2.305  -3.069  0.00  0.00    +0.030 A 
ATOM      8  C   UNL     1       4.712  -1.567  -3.573  0.00  0.00    +0.030 A 
ATOM      9  C   UNL     1       5.756  -1.197  -2.745  0.00  0.00    +0.105 A 
BRANCH   9  10
ATOM     10  S   UNL     1       7.102  -0.260  -3.389  0.00  0.00    +0.059 S 
ATOM     11  O   UNL     1       6.611   0.421  -4.535  0.00  0.00    -0.153 OA
ATOM     12  O   UNL     1       7.684   0.424  -2.287  0.00  0.00    -0.153 OA
BRANCH  10  13
ATOM     13  N   UNL     1       8.236  -1.339  -3.928  0.00  0.00    -0.187 NA
ATOM     14  H   UNL     1       9.105  -1.385  -3.499  0.00  0.00    +0.148 HD
BRANCH  13  15
ATOM     15  C   UNL     1       7.927  -2.225  -5.054  0.00  0.00    +0.077 C 
ATOM     16  C   UNL     1       7.493  -3.610  -4.533  0.00  0.00    +0.020 C 
ATOM     17  C   UNL     1       8.102  -4.607  -5.550  0.00  0.00    +0.002 C 
ATOM     18  C   UNL     1       9.475  -3.967  -5.875  0.00  0.00    +0.002 C 
ATOM     19  C   UNL     1       9.187  -2.452  -5.907  0.00  0.00    +0.020 C 
ENDBRANCH  13  15
ENDBRANCH  10  13
ENDBRANCH   9  10
ENDBRANCH   1   6
BRANCH   1  20
ATOM     20  N   UNL     1       1.163  -2.523  -0.550  0.00  0.00    -0.177 NA
ATOM     21  C   UNL     1       0.106  -2.036  -1.447  0.00  0.00    +0.110 C 
ATOM     22  C   UNL     1       0.120  -0.504  -1.439  0.00  0.00    +0.028 C 
ATOM     23  C   UNL     1       0.002  -0.004   0.002  0.00  0.00    +0.057 C 
ATOM     24  C   UNL     1       1.198  -0.502   0.816  0.00  0.00    +0.028 C 
ATOM     25  C   UNL     1       1.196  -2.034   0.835  0.00  0.00    +0.110 C 
BRANCH  23  26
ATOM     26  C   UNL     1      -0.018   1.503   0.010  0.00  0.00    +0.111 A 
ATOM     27  N   UNL     1       1.086   2.297   0.004  0.00  0.00    -0.342 N 
ATOM     28  H   UNL     1       2.037   1.989  -0.006  0.00  0.00    +0.167 HD
ATOM     29  C   UNL     1       0.649   3.607   0.014  0.00  0.00    +0.066 A 
ATOM     30  C   UNL     1       1.291   4.838   0.014  0.00  0.00    +0.029 A 
ATOM     31  C   UNL     1       0.548   5.999   0.026  0.00  0.00    +0.022 A 
ATOM     32  C   UNL     1      -0.840   5.946   0.038  0.00  0.00    +0.043 A 
ATOM     33  C   UNL     1      -1.493   4.734   0.039  0.00  0.00    +0.050 A 
ATOM     34  C   UNL     1      -0.754   3.548   0.027  0.00  0.00    +0.090 A 
ATOM     35  N   UNL     1      -1.095   2.233   0.019  0.00  0.00    -0.232 NA
ATOM     36 CL   UNL     1      -1.758   7.420   0.054  0.00  0.00    -0.083 Cl
ENDBRANCH  23  26
ENDBRANCH   1  20
TORSDOF 6
