REMARK  Name = ZINC21524216
REMARK  7 active torsions:
REMARK  status: ('A' for Active; 'I' for Inactive)
REMARK    1  A    between atoms: C_1  and  C_2
REMARK    2  A    between atoms: C_7  and  C_12
REMARK    3  A    between atoms: C_14  and  C_17
REMARK    4  A    between atoms: N_19  and  C_20
REMARK    5  A    between atoms: C_21  and  C_28
REMARK    6  A    between atoms: N_30  and  C_31
REMARK    7  A    between atoms: C_31  and  C_32
REMARK                            x       y       z     vdW  Elec       q    Type
REMARK                         _______ _______ _______ _____ _____    ______ ____
ROOT
ATOM      1  C   UNL     1      -1.472   3.215   8.381  0.00  0.00    +0.270 C 
ATOM      2  O   UNL     1      -2.571   3.692   8.588  0.00  0.00    -0.268 OA
ATOM      3  N   UNL     1      -0.604   3.057   9.399  0.00  0.00    -0.274 N 
ATOM      4  H   UNL     1       0.391   2.626   9.212  0.00  0.00    +0.156 HD
ENDROOT
BRANCH   3   5
ATOM      5  C   UNL     1      -0.963   3.439  10.682  0.00  0.00    +0.085 A 
ATOM      6  C   UNL     1      -0.218   3.352  11.846  0.00  0.00    +0.069 A 
ATOM      7  C   UNL     1      -0.835   3.833  13.082  0.00  0.00    -0.023 A 
ATOM      8  C   UNL     1      -2.086   4.308  12.948  0.00  0.00    -0.004 A 
ATOM      9  S   UNL     1      -2.454   4.133  11.219  0.00  0.00    -0.077 S 
ATOM     10  C   UNL     1      -2.653   4.781  14.259  0.00  0.00    +0.043 C 
ATOM     11  C   UNL     1      -1.423   4.940  15.180  0.00  0.00    +0.010 C 
ATOM     12  C   UNL     1      -0.429   3.943  14.552  0.00  0.00    +0.037 C 
BRANCH   6  13
ATOM     13  C   UNL     1       1.141   2.801  11.839  0.00  0.00    +0.247 C 
ATOM     14  O   UNL     1       2.094   3.536  11.660  0.00  0.00    -0.270 OA
ATOM     15  N   UNL     1       1.334   1.481  12.032  0.00  0.00    -0.304 N 
ATOM     16  H   UNL     1       0.472   0.817  12.194  0.00  0.00    +0.149 HD
BRANCH  15  17
ATOM     17  C   UNL     1       2.691   0.931  12.025  0.00  0.00    +0.179 C 
BRANCH  17  18
ATOM     18  C   UNL     1       2.632  -0.556  12.261  0.00  0.00    +0.122 A 
ATOM     19  C   UNL     1       2.528  -1.500  11.308  0.00  0.00    +0.046 A 
ATOM     20  C   UNL     1       2.506  -2.749  11.970  0.00  0.00    +0.041 A 
ATOM     21  C   UNL     1       2.598  -2.494  13.288  0.00  0.00    +0.195 A 
ATOM     22  O   UNL     1       2.680  -1.164  13.458  0.00  0.00    -0.466 OA
ENDBRANCH  17  18
ENDBRANCH  15  17
ENDBRANCH   6  13
ENDBRANCH   3   5
BRANCH   1  25
ATOM     23  C   UNL     1      -1.078   2.403   4.853  0.00  0.00    +0.168 A 
ATOM     24  C   UNL     1      -1.883   2.906   5.837  0.00  0.00    +0.086 A 
ATOM     25  C   UNL     1      -1.088   2.807   7.009  0.00  0.00    +0.169 A 
ATOM     26  N   UNL     1       0.054   2.282   6.635  0.00  0.00    -0.073 NA
ATOM     27  O   UNL     1       0.074   2.048   5.450  0.00  0.00    -0.354 OA
BRANCH  23  33
ATOM     28  C   UNL     1      -0.280   2.983  -1.647  0.00  0.00    +0.052 C 
ATOM     29  C   UNL     1      -0.834   1.634  -1.183  0.00  0.00    +0.175 C 
ATOM     30  C   UNL     1      -0.013   1.086   0.008  0.00  0.00    +0.083 C 
ATOM     31  C   UNL     1      -0.795   1.611   1.196  0.00  0.00    -0.002 A 
ATOM     32  C   UNL     1      -0.478   1.732   2.527  0.00  0.00    +0.019 A 
ATOM     33  C   UNL     1      -1.410   2.269   3.419  0.00  0.00    +0.020 A 
ATOM     34  C   UNL     1      -2.658   2.679   2.945  0.00  0.00    +0.015 A 
ATOM     35  C   UNL     1      -2.967   2.550   1.610  0.00  0.00    +0.046 A 
ATOM     36  C   UNL     1      -2.040   2.010   0.719  0.00  0.00    +0.124 A 
ATOM     37  O   UNL     1      -2.147   1.790  -0.620  0.00  0.00    -0.488 OA
ENDBRANCH  23  33
ENDBRANCH   1  25
TORSDOF 6
