REMARK  Name = ZINC06197873
REMARK  9 active torsions:
REMARK  status: ('A' for Active; 'I' for Inactive)
REMARK    1  A    between atoms: C_1  and  C_2
REMARK    2  A    between atoms: C_2  and  C_3
REMARK    3  A    between atoms: C_10  and  C_15
REMARK    4  A    between atoms: C_15  and  N_67
REMARK    5  A    between atoms: C_16  and  C_17
REMARK    6  A    between atoms: C_16  and  N_67
REMARK    7  A    between atoms: N_21  and  C_22
REMARK    8  A    between atoms: C_22  and  C_23
REMARK    9  A    between atoms: C_29  and  N_67
REMARK                            x       y       z     vdW  Elec       q    Type
REMARK                         _______ _______ _______ _____ _____    ______ ____
ROOT
ATOM      1  N   UNL     1       0.593   0.293   0.318  0.00  0.00    +0.389 N 
ATOM      2  H   UNL     1       1.310   0.015   0.998  0.00  0.00    -0.080 HD
ENDROOT
BRANCH   1   3
ATOM      3  C   UNL     1      -0.741   0.129   0.933  0.00  0.00    -0.068 C 
ATOM      4  C   UNL     1      -0.835  -1.273   1.538  0.00  0.00    -0.015 C 
ATOM      5  C   UNL     1      -2.204  -1.452   2.199  0.00  0.00    -0.002 C 
ATOM      6  C   UNL     1      -3.303  -1.274   1.150  0.00  0.00    -0.000 C 
ATOM      7  C   UNL     1      -3.209   0.128   0.544  0.00  0.00    -0.002 C 
ATOM      8  C   UNL     1      -1.841   0.307  -0.116  0.00  0.00    -0.015 C 
ENDBRANCH   1   3
BRANCH   1   9
ATOM      9  C   UNL     1       0.807   1.708  -0.055  0.00  0.00    -0.037 C 
BRANCH   9  17
ATOM     10  C   UNL     1       3.910   4.528   4.495  0.00  0.00    -0.047 A 
ATOM     11  C   UNL     1       2.796   5.007   5.170  0.00  0.00    +0.005 A 
ATOM     12  C   UNL     1       1.526   4.753   4.700  0.00  0.00    +0.026 A 
ATOM     13  C   UNL     1       1.356   4.008   3.537  0.00  0.00    +0.049 A 
ATOM     14  C   UNL     1       2.489   3.524   2.856  0.00  0.00    -0.001 A 
ATOM     15  C   UNL     1       3.768   3.794   3.352  0.00  0.00    +0.013 A 
ATOM     16  C   UNL     1       2.300   2.741   1.633  0.00  0.00    +0.017 A 
ATOM     17  C   UNL     1       1.036   2.510   1.200  0.00  0.00    +0.001 A 
ATOM     18  C   UNL     1      -0.066   3.022   1.918  0.00  0.00    +0.251 A 
ATOM     19  O   UNL     1      -1.194   2.807   1.509  0.00  0.00    -0.268 OA
ATOM     20  N   UNL     1       0.097   3.737   3.045  0.00  0.00    -0.322 N 
ATOM     21  H   UNL     1      -0.706   4.078   3.533  0.00  0.00    +0.169 HD
BRANCH  10  23
ATOM     22  C   UNL     1       5.709   3.707   5.992  0.00  0.00    +0.009 C 
ATOM     23  C   UNL     1       5.289   4.819   5.029  0.00  0.00    +0.032 C 
ENDBRANCH  10  23
ENDBRANCH   9  17
ENDBRANCH   1   9
BRANCH   1  24
ATOM     24  C   UNL     1       0.707  -0.567  -0.879  0.00  0.00    +0.001 C 
BRANCH  24  25
ATOM     25  C   UNL     1       0.962  -1.983  -0.433  0.00  0.00    +0.135 A 
ATOM     26  N   UNL     1       1.992  -2.414   0.255  0.00  0.00    -0.115 NA
ATOM     27  N   UNL     1       1.846  -3.680   0.439  0.00  0.00    -0.023 NA
ATOM     28  N   UNL     1       0.753  -4.071  -0.119  0.00  0.00    -0.044 NA
ATOM     29  N   UNL     1       0.180  -3.053  -0.667  0.00  0.00    -0.229 N 
BRANCH  29  30
ATOM     30  C   UNL     1      -1.085  -3.061  -1.407  0.00  0.00    +0.178 C 
BRANCH  30  31
ATOM     31  C   UNL     1      -0.824  -3.467  -2.859  0.00  0.00    +0.140 C 
ATOM     32  C   UNL     1      -2.160  -3.570  -3.637  0.00  0.00    +0.035 C 
ATOM     33  C   UNL     1      -1.671  -3.333  -5.093  0.00  0.00    +0.031 C 
ATOM     34  C   UNL     1      -0.512  -2.333  -4.893  0.00  0.00    +0.160 C 
ATOM     35  O   UNL     1      -0.071  -2.447  -3.535  0.00  0.00    -0.375 OA
ENDBRANCH  30  31
ENDBRANCH  29  30
ENDBRANCH  24  25
ENDBRANCH   1  24
TORSDOF 8
