REMARK  Name = ZINC09358869
REMARK  18 active torsions:
REMARK  status: ('A' for Active; 'I' for Inactive)
REMARK    1  A    between atoms: C_1  and  C_2
REMARK    2  A    between atoms: C_2  and  N_72
REMARK    3  A    between atoms: C_3  and  C_4
REMARK    4  A    between atoms: C_3  and  N_72
REMARK    5  A    between atoms: C_5  and  C_6
REMARK    6  A    between atoms: C_5  and  N_72
REMARK    7  A    between atoms: C_6  and  N_7
REMARK    8  A    between atoms: C_8  and  C_29
REMARK    9  A    between atoms: C_10  and  C_15
REMARK   10  A    between atoms: C_11  and  O_14
REMARK   11  A    between atoms: C_15  and  C_17
REMARK   12  A    between atoms: C_20  and  O_24
REMARK   13  A    between atoms: C_21  and  C_23
REMARK   14  A    between atoms: O_24  and  C_25
REMARK   15  A    between atoms: C_25  and  C_26
REMARK   16  A    between atoms: C_26  and  C_27
REMARK   17  A    between atoms: C_26  and  C_28
REMARK   18  A    between atoms: C_33  and  N_35
REMARK                            x       y       z     vdW  Elec       q    Type
REMARK                         _______ _______ _______ _____ _____    ______ ____
ROOT
ATOM      1  N   UNL     1      -0.253   1.938   2.981  0.00  0.00    -0.285 N 
ATOM      2  C   UNL     1       0.874   2.617   3.632  0.00  0.00    +0.144 C 
ATOM      3  C   UNL     1       1.229   1.780   4.839  0.00  0.00    +0.071 C 
ATOM      4  C   UNL     1       0.373   0.732   4.853  0.00  0.00    +0.188 C 
ATOM      5  C   UNL     1      -0.545   0.840   3.700  0.00  0.00    +0.282 C 
ATOM      6  O   UNL     1      -1.433   0.051   3.439  0.00  0.00    -0.267 OA
ENDROOT
BRANCH   2   7
ATOM      7  C   UNL     1       2.048   2.692   2.690  0.00  0.00    -0.020 A 
ATOM      8  C   UNL     1       2.450   1.567   1.996  0.00  0.00    +0.006 A 
ATOM      9  C   UNL     1       3.527   1.636   1.132  0.00  0.00    +0.003 A 
ATOM     10  C   UNL     1       4.202   2.830   0.963  0.00  0.00    +0.033 A 
ATOM     11  C   UNL     1       3.799   3.956   1.656  0.00  0.00    +0.127 A 
ATOM     12  C   UNL     1       2.719   3.888   2.517  0.00  0.00    +0.038 A 
BRANCH  11  13
ATOM     13  N   UNL     1       4.520   5.236   1.474  0.00  0.00    +0.056 N 
ATOM     14  O   UNL     1       5.407   5.322   0.643  0.00  0.00    -0.126 OA
ATOM     15  O   UNL     1       4.228   6.202   2.155  0.00  0.00    -0.126 OA
ENDBRANCH  11  13
ENDBRANCH   2   7
BRANCH   4  16
ATOM     16  O   UNL     1       0.358  -0.255   5.778  0.00  0.00    -0.502 OA
ATOM     17  H   UNL     1      -0.370  -0.906   5.559  0.00  0.00    +0.292 HD
ENDBRANCH   4  16
BRANCH   3  18
ATOM     18  C   UNL     1       2.295   2.052   5.808  0.00  0.00    +0.195 C 
ATOM     19  O   UNL     1       3.252   1.304   5.885  0.00  0.00    -0.287 OA
BRANCH  18  20
ATOM     20  C   UNL     1       2.207   3.232   6.691  0.00  0.00    +0.023 A 
ATOM     21  C   UNL     1       1.060   4.032   6.680  0.00  0.00    +0.015 A 
ATOM     22  C   UNL     1       0.981   5.129   7.507  0.00  0.00    +0.046 A 
ATOM     23  C   UNL     1       2.043   5.448   8.347  0.00  0.00    +0.123 A 
ATOM     24  C   UNL     1       3.187   4.657   8.357  0.00  0.00    -0.008 A 
ATOM     25  C   UNL     1       3.273   3.556   7.536  0.00  0.00    +0.018 A 
ATOM     26  C   UNL     1       4.335   5.008   9.269  0.00  0.00    +0.047 C 
BRANCH  23  27
ATOM     27  O   UNL     1       1.963   6.533   9.157  0.00  0.00    -0.491 OA
BRANCH  27  28
ATOM     28  C   UNL     1       0.719   7.237   9.178  0.00  0.00    +0.232 C 
BRANCH  28  29
ATOM     29  C   UNL     1       0.845   8.468  10.077  0.00  0.00    +0.020 C 
ATOM     30  C   UNL     1      -0.444   9.289  10.001  0.00  0.00    +0.010 C 
ATOM     31  C   UNL     1       1.082   8.023  11.521  0.00  0.00    +0.010 C 
ENDBRANCH  28  29
ENDBRANCH  27  28
ENDBRANCH  23  27
ENDBRANCH  18  20
ENDBRANCH   3  18
BRANCH   1  32
ATOM     32  C   UNL     1      -0.941   2.382   1.766  0.00  0.00    +0.090 C 
BRANCH  32  33
ATOM     33  C   UNL     1      -0.256   1.773   0.541  0.00  0.00    -0.060 C 
BRANCH  33  34
ATOM     34  N   UNL     1      -0.985   2.200  -0.673  0.00  0.00    +0.380 N 
ATOM     35  H   UNL     1      -1.126   3.216  -0.636  0.00  0.00    -0.082 HD
BRANCH  34  37
ATOM     36  C   UNL     1      -0.860   2.514  -3.095  0.00  0.00    -0.017 C 
ATOM     37  C   UNL     1      -0.196   1.867  -1.878  0.00  0.00    -0.082 C 
ENDBRANCH  34  37
BRANCH  34  38
ATOM     38  C   UNL     1      -2.303   1.534  -0.731  0.00  0.00    -0.082 C 
ATOM     39  C   UNL     1      -2.134   0.015  -0.807  0.00  0.00    -0.017 C 
ENDBRANCH  34  38
ENDBRANCH  33  34
ENDBRANCH  32  33
ENDBRANCH   1  32
TORSDOF 13
