REMARK  Name = ZINC02426927
REMARK  9 active torsions:
REMARK  status: ('A' for Active; 'I' for Inactive)
REMARK    1  A    between atoms: C_1  and  C_2
REMARK    2  A    between atoms: C_6  and  O_8
REMARK    3  A    between atoms: O_8  and  C_9
REMARK    4  A    between atoms: C_9  and  C_10
REMARK    5  A    between atoms: C_10  and  C_12
REMARK    6  A    between atoms: C_10  and  O_31
REMARK    7  A    between atoms: C_12  and  N_13
REMARK    8  A    between atoms: N_23  and  C_30
REMARK    9  A    between atoms: N_26  and  C_29
REMARK                            x       y       z     vdW  Elec       q    Type
REMARK                         _______ _______ _______ _____ _____    ______ ____
ROOT
ATOM      1  N   UNL     1      -0.764   3.263   1.476  0.00  0.00    -0.304 N 
ATOM      2  C   UNL     1      -1.319   3.281   2.749  0.00  0.00    +0.153 A 
ATOM      3  C   UNL     1      -1.704   1.974   3.027  0.00  0.00    +0.170 A 
ATOM      4  N   UNL     1      -1.395   1.229   1.964  0.00  0.00    -0.196 NA
ATOM      5  C   UNL     1      -0.840   1.979   1.035  0.00  0.00    +0.201 A 
ATOM      6  N   UNL     1      -0.399   1.533  -0.190  0.00  0.00    -0.301 N 
ATOM      7  C   UNL     1       0.946   0.912  -0.078  0.00  0.00    +0.108 C 
ATOM      8  C   UNL     1       1.038   0.034  -1.351  0.00  0.00    +0.020 C 
ATOM      9  C   UNL     1      -0.401  -0.511  -1.500  0.00  0.00    +0.020 C 
ATOM     10  C   UNL     1      -1.288   0.476  -0.720  0.00  0.00    +0.108 C 
ATOM     11  N   UNL     1      -2.292   1.697   4.251  0.00  0.00    -0.280 N 
ATOM     12  C   UNL     1      -2.480   2.683   5.147  0.00  0.00    +0.333 A 
ATOM     13  O   UNL     1      -2.997   2.423   6.216  0.00  0.00    -0.246 OA
ATOM     14  N   UNL     1      -2.111   3.950   4.889  0.00  0.00    -0.262 N 
ATOM     15  C   UNL     1      -1.535   4.280   3.714  0.00  0.00    +0.282 A 
ATOM     16  O   UNL     1      -1.206   5.432   3.492  0.00  0.00    -0.265 OA
ATOM     17  C   UNL     1      -2.339   4.988   5.897  0.00  0.00    +0.157 C 
ATOM     18  C   UNL     1      -2.708   0.329   4.570  0.00  0.00    +0.155 C 
ENDROOT
BRANCH   1  19
ATOM     19  C   UNL     1      -0.208   4.406   0.749  0.00  0.00    +0.160 C 
BRANCH  19  20
ATOM     20  C   UNL     1      -1.279   4.994  -0.173  0.00  0.00    +0.172 C 
BRANCH  20  21
ATOM     21  O   UNL     1      -2.345   5.528   0.615  0.00  0.00    -0.387 OA
ATOM     22  H   UNL     1      -2.072   6.232   1.220  0.00  0.00    +0.210 HD
ENDBRANCH  20  21
BRANCH  20  23
ATOM     23  C   UNL     1      -0.665   6.107  -1.024  0.00  0.00    +0.262 C 
BRANCH  23  24
ATOM     24  O   UNL     1      -1.633   6.576  -1.965  0.00  0.00    -0.489 OA
BRANCH  24  30
ATOM     25  C   UNL     1      -2.702   9.636  -5.614  0.00  0.00    +0.044 C 
ATOM     26  C   UNL     1      -1.737   9.090  -4.593  0.00  0.00    -0.047 A 
ATOM     27  C   UNL     1      -0.456   9.603  -4.510  0.00  0.00    +0.003 A 
ATOM     28  C   UNL     1       0.432   9.103  -3.575  0.00  0.00    +0.004 A 
ATOM     29  C   UNL     1       0.040   8.089  -2.722  0.00  0.00    +0.045 A 
ATOM     30  C   UNL     1      -1.245   7.573  -2.803  0.00  0.00    +0.121 A 
ATOM     31  C   UNL     1      -2.132   8.073  -3.746  0.00  0.00    +0.049 A 
ENDBRANCH  24  30
ENDBRANCH  23  24
ENDBRANCH  20  23
ENDBRANCH  19  20
ENDBRANCH   1  19
TORSDOF 6
