REMARK  Name = ZINC39914116
REMARK  15 active torsions:
REMARK  status: ('A' for Active; 'I' for Inactive)
REMARK    1  A    between atoms: C_1  and  C_2
REMARK    2  A    between atoms: C_4  and  O_37
REMARK    3  A    between atoms: C_5  and  C_9
REMARK    4  A    between atoms: N_17  and  C_33
REMARK    5  A    between atoms: C_18  and  C_20
REMARK    6  A    between atoms: C_23  and  O_28
REMARK    7  A    between atoms: C_24  and  O_26
REMARK    8  A    between atoms: O_26  and  C_27
REMARK    9  A    between atoms: O_28  and  C_29
REMARK   10  A    between atoms: C_29  and  C_30
REMARK   11  A    between atoms: C_30  and  C_31
REMARK   12  A    between atoms: C_30  and  C_32
REMARK   13  A    between atoms: C_33  and  C_34
REMARK   14  A    between atoms: C_34  and  O_35
REMARK   15  A    between atoms: O_35  and  C_36
REMARK                            x       y       z     vdW  Elec       q    Type
REMARK                         _______ _______ _______ _____ _____    ______ ____
ROOT
ATOM      1  C   UNL     1      -1.016  -4.354   0.973  0.00  0.00    +0.102 A 
ATOM      2  C   UNL     1      -0.574  -5.217   1.982  0.00  0.00    +0.035 A 
ATOM      3  C   UNL     1      -0.406  -6.448   1.378  0.00  0.00    +0.126 A 
ATOM      4  N   UNL     1      -0.745  -6.276   0.066  0.00  0.00    -0.272 N 
ATOM      5  H   UNL     1      -0.726  -6.972  -0.610  0.00  0.00    +0.189 HD
ATOM      6  N   UNL     1      -1.099  -5.058  -0.139  0.00  0.00    -0.173 NA
ATOM      7  C   UNL     1       0.059  -7.405   2.389  0.00  0.00    +0.266 C 
ATOM      8  O   UNL     1       0.301  -8.577   2.176  0.00  0.00    -0.268 OA
ATOM      9  N   UNL     1       0.179  -6.801   3.585  0.00  0.00    -0.283 N 
ATOM     10  C   UNL     1      -0.204  -5.391   3.430  0.00  0.00    +0.141 C 
ENDROOT
BRANCH   1  15
ATOM     11  C   UNL     1      -2.267   1.240   1.577  0.00  0.00    +0.045 C 
ATOM     12  C   UNL     1      -1.940  -0.223   1.417  0.00  0.00    -0.029 A 
ATOM     13  C   UNL     1      -1.958  -0.798   0.160  0.00  0.00    +0.050 A 
ATOM     14  C   UNL     1      -1.659  -2.142   0.007  0.00  0.00    +0.126 A 
ATOM     15  C   UNL     1      -1.337  -2.914   1.128  0.00  0.00    +0.045 A 
ATOM     16  C   UNL     1      -1.321  -2.325   2.390  0.00  0.00    +0.034 A 
ATOM     17  C   UNL     1      -1.616  -0.983   2.528  0.00  0.00    +0.045 A 
ATOM     18 CL   UNL     1      -1.589  -0.248   4.100  0.00  0.00    -0.083 Cl
BRANCH  14  19
ATOM     19  O   UNL     1      -1.678  -2.709  -1.227  0.00  0.00    -0.506 OA
ATOM     20  H   UNL     1      -0.830  -2.671  -1.691  0.00  0.00    +0.292 HD
ENDBRANCH  14  19
ENDBRANCH   1  15
BRANCH  10  21
ATOM     21  C   UNL     1       0.957  -4.496   3.780  0.00  0.00    -0.019 A 
ATOM     22  C   UNL     1       2.131  -4.573   3.054  0.00  0.00    +0.009 A 
ATOM     23  C   UNL     1       3.198  -3.754   3.371  0.00  0.00    +0.050 A 
ATOM     24  C   UNL     1       3.093  -2.853   4.418  0.00  0.00    +0.162 A 
ATOM     25  C   UNL     1       1.911  -2.775   5.149  0.00  0.00    +0.162 A 
ATOM     26  C   UNL     1       0.843  -3.596   4.823  0.00  0.00    +0.055 A 
BRANCH  25  27
ATOM     27  O   UNL     1       1.803  -1.893   6.178  0.00  0.00    -0.491 OA
ATOM     28  C   UNL     1       0.526  -1.788   6.811  0.00  0.00    +0.277 C 
ENDBRANCH  25  27
BRANCH  24  29
ATOM     29  O   UNL     1       4.143  -2.047   4.732  0.00  0.00    -0.488 OA
BRANCH  29  30
ATOM     30  C   UNL     1       5.324  -2.183   3.939  0.00  0.00    +0.232 C 
BRANCH  30  31
ATOM     31  C   UNL     1       6.387  -1.202   4.438  0.00  0.00    +0.020 C 
ATOM     32  C   UNL     1       6.807  -1.583   5.859  0.00  0.00    +0.010 C 
ATOM     33  C   UNL     1       7.605  -1.257   3.514  0.00  0.00    +0.010 C 
ENDBRANCH  30  31
ENDBRANCH  29  30
ENDBRANCH  24  29
ENDBRANCH  10  21
BRANCH   9  34
ATOM     34  C   UNL     1       0.618  -7.439   4.828  0.00  0.00    +0.137 C 
BRANCH  34  35
ATOM     35  C   UNL     1       2.146  -7.509   4.855  0.00  0.00    +0.178 C 
BRANCH  35  36
ATOM     36  O   UNL     1       2.681  -6.191   4.991  0.00  0.00    -0.381 OA
ATOM     37  C   UNL     1       4.099  -6.154   5.163  0.00  0.00    +0.194 C 
ENDBRANCH  35  36
ENDBRANCH  34  35
ENDBRANCH   9  34
TORSDOF 10
