REMARK  Name = ZINC40361195
REMARK  10 active torsions:
REMARK  status: ('A' for Active; 'I' for Inactive)
REMARK    1  A    between atoms: C_1  and  C_2
REMARK    2  A    between atoms: C_2  and  C_3
REMARK    3  A    between atoms: C_3  and  C_4
REMARK    4  A    between atoms: C_4  and  C_5
REMARK    5  A    between atoms: C_5  and  C_6
REMARK    6  A    between atoms: C_6  and  C_7
REMARK    7  A    between atoms: C_10  and  C_41
REMARK    8  A    between atoms: C_12  and  C_34
REMARK    9  A    between atoms: C_14  and  C_26
REMARK   10  A    between atoms: C_26  and  C_28
REMARK                            x       y       z     vdW  Elec       q    Type
REMARK                         _______ _______ _______ _____ _____    ______ ____
ROOT
ATOM      1  C   UNL     1       3.064  -4.388   5.069  0.00  0.00    +0.217 C 
ATOM      2  O   UNL     1       2.413  -3.552   4.479  0.00  0.00    -0.276 OA
ATOM      3  N   UNL     1       2.949  -5.689   4.739  0.00  0.00    -0.279 N 
ATOM      4  C   UNL     1       2.154  -6.228   3.617  0.00  0.00    +0.082 C 
ATOM      5  C   UNL     1       2.811  -7.592   3.284  0.00  0.00    +0.053 C 
ATOM      6  C   UNL     1       3.206  -8.103   4.696  0.00  0.00    +0.106 C 
ATOM      7  C   UNL     1       3.594  -6.808   5.427  0.00  0.00    +0.151 C 
ATOM      8  C   UNL     1       5.089  -6.641   5.465  0.00  0.00    +0.007 A 
ATOM      9  C   UNL     1       6.050  -6.518   4.487  0.00  0.00    +0.008 A 
ATOM     10  C   UNL     1       7.381  -6.375   4.839  0.00  0.00    +0.000 A 
ATOM     11  C   UNL     1       7.741  -6.356   6.174  0.00  0.00    +0.002 A 
ATOM     12  C   UNL     1       6.781  -6.479   7.157  0.00  0.00    +0.023 A 
ATOM     13  C   UNL     1       5.439  -6.622   6.811  0.00  0.00    +0.039 A 
ATOM     14  N   UNL     1       4.301  -6.759   7.608  0.00  0.00    -0.283 N 
ATOM     15  C   UNL     1       3.178  -6.873   6.874  0.00  0.00    +0.246 C 
ATOM     16  O   UNL     1       2.048  -7.002   7.297  0.00  0.00    -0.273 OA
ATOM     17  C   UNL     1       2.231  -5.289   2.411  0.00  0.00    +0.029 C 
ATOM     18  H   UNL     1       4.317  -6.771   8.577  0.00  0.00    +0.155 HD
ENDROOT
BRANCH   5  19
ATOM     19  C   UNL     1       1.822  -8.521   2.629  0.00  0.00    -0.042 A 
ATOM     20  C   UNL     1       0.493  -8.495   3.009  0.00  0.00    +0.005 A 
ATOM     21  C   UNL     1      -0.414  -9.348   2.409  0.00  0.00    +0.020 A 
ATOM     22  C   UNL     1       0.007 -10.227   1.428  0.00  0.00    +0.041 A 
ATOM     23  C   UNL     1       1.337 -10.253   1.048  0.00  0.00    +0.020 A 
ATOM     24  C   UNL     1       2.243  -9.396   1.645  0.00  0.00    +0.005 A 
ATOM     25 CL   UNL     1      -1.132 -11.299   0.674  0.00  0.00    -0.084 Cl
ENDBRANCH   5  19
BRANCH   6  26
ATOM     26  C   UNL     1       2.036  -8.776   5.367  0.00  0.00    +0.170 C 
ATOM     27  O   UNL     1       1.014  -8.155   5.569  0.00  0.00    -0.292 OA
BRANCH  26  28
ATOM     28  C   UNL     1       2.134 -10.186   5.776  0.00  0.00    +0.018 A 
ATOM     29  C   UNL     1       3.313 -10.904   5.549  0.00  0.00    +0.011 A 
ATOM     30  C   UNL     1       3.397 -12.225   5.936  0.00  0.00    +0.001 A 
ATOM     31  C   UNL     1       2.318 -12.841   6.546  0.00  0.00    +0.000 A 
ATOM     32  C   UNL     1       1.148 -12.138   6.774  0.00  0.00    +0.001 A 
ATOM     33  C   UNL     1       1.050 -10.814   6.398  0.00  0.00    +0.011 A 
ENDBRANCH  26  28
ENDBRANCH   6  26
BRANCH   1  34
ATOM     34  C   UNL     1       4.003  -3.971   6.172  0.00  0.00    +0.096 C 
BRANCH  34  35
ATOM     35  C   UNL     1       4.032  -2.445   6.267  0.00  0.00    +0.009 C 
BRANCH  35  36
ATOM     36  C   UNL     1       4.985  -2.022   7.387  0.00  0.00    +0.000 C 
BRANCH  36  37
ATOM     37  C   UNL     1       5.014  -0.495   7.482  0.00  0.00    -0.000 C 
BRANCH  37  39
ATOM     38  C   UNL     1       5.996   1.455   8.697  0.00  0.00    +0.004 C 
ATOM     39  C   UNL     1       5.968  -0.072   8.602  0.00  0.00    -0.003 C 
ENDBRANCH  37  39
ENDBRANCH  36  37
ENDBRANCH  35  36
ENDBRANCH  34  35
ENDBRANCH   1  34
TORSDOF 8
