REMARK  Name = ZINC36570423
REMARK  13 active torsions:
REMARK  status: ('A' for Active; 'I' for Inactive)
REMARK    1  A    between atoms: C_1  and  C_2
REMARK    2  A    between atoms: C_2  and  C_3
REMARK    3  A    between atoms: C_3  and  N_4
REMARK    4  A    between atoms: N_4  and  C_5
REMARK    5  A    between atoms: C_5  and  C_7
REMARK    6  A    between atoms: C_5  and  C_14
REMARK    7  A    between atoms: C_12  and  O_13
REMARK    8  A    between atoms: N_16  and  C_17
REMARK    9  A    between atoms: C_17  and  S_18
REMARK   10  A    between atoms: S_18  and  C_21
REMARK   11  A    between atoms: C_24  and  C_27
REMARK   12  A    between atoms: C_28  and  C_30
REMARK   13  A    between atoms: C_31  and  C_32
REMARK                            x       y       z     vdW  Elec       q    Type
REMARK                         _______ _______ _______ _____ _____    ______ ____
ROOT
ATOM      1  C   UNL     1       1.787  -2.461   0.556  0.00  0.00    +0.196 C 
ENDROOT
BRANCH   1   2
ATOM      2  C   UNL     1       2.721  -1.778   1.521  0.00  0.00    +0.023 A 
ATOM      3  C   UNL     1       3.401  -0.638   1.137  0.00  0.00    +0.009 A 
ATOM      4  C   UNL     1       4.258  -0.011   2.022  0.00  0.00    +0.001 A 
ATOM      5  C   UNL     1       4.436  -0.522   3.294  0.00  0.00    +0.004 A 
ATOM      6  C   UNL     1       3.758  -1.660   3.684  0.00  0.00    +0.046 A 
ATOM      7  C   UNL     1       2.893  -2.289   2.799  0.00  0.00    +0.122 A 
BRANCH   7   8
ATOM      8  O   UNL     1       2.221  -3.406   3.182  0.00  0.00    -0.506 OA
ATOM      9  H   UNL     1       2.724  -4.224   3.074  0.00  0.00    +0.292 HD
ENDBRANCH   7   8
ENDBRANCH   1   2
BRANCH   1  10
ATOM     10  C   UNL     1       2.090  -2.001  -0.847  0.00  0.00    +0.239 C 
ATOM     11  O   UNL     1       1.448  -1.099  -1.342  0.00  0.00    -0.273 OA
ATOM     12  N   UNL     1       3.075  -2.592  -1.552  0.00  0.00    -0.294 N 
ATOM     13  H   UNL     1       3.539  -3.362  -1.186  0.00  0.00    +0.150 HD
BRANCH  12  14
ATOM     14  C   UNL     1       3.445  -2.074  -2.871  0.00  0.00    +0.278 C 
BRANCH  14  15
ATOM     15  S   UNL     1       4.844  -0.931  -2.700  0.00  0.00    +0.013 S 
ATOM     16  O   UNL     1       5.256  -0.467  -3.979  0.00  0.00    -0.168 OA
ATOM     17  O   UNL     1       4.601  -0.015  -1.641  0.00  0.00    -0.168 OA
BRANCH  15  18
ATOM     18  C   UNL     1       6.179  -1.931  -2.133  0.00  0.00    +0.090 A 
ATOM     19  C   UNL     1       6.382  -2.109  -0.778  0.00  0.00    +0.027 A 
ATOM     20  C   UNL     1       7.430  -2.893  -0.333  0.00  0.00    +0.005 A 
ATOM     21  C   UNL     1       8.274  -3.501  -1.244  0.00  0.00    -0.050 A 
ATOM     22  C   UNL     1       8.070  -3.324  -2.599  0.00  0.00    +0.005 A 
ATOM     23  C   UNL     1       7.020  -2.542  -3.044  0.00  0.00    +0.027 A 
ATOM     24  C   UNL     1       9.416  -4.355  -0.759  0.00  0.00    +0.044 C 
ENDBRANCH  15  18
ENDBRANCH  14  15
ENDBRANCH  12  14
ENDBRANCH   1  10
BRANCH   1  25
ATOM     25  N   UNL     1       0.402  -2.121   0.892  0.00  0.00    -0.275 N 
ATOM     26  C   UNL     1       0.031  -0.830   0.997  0.00  0.00    +0.292 C 
ATOM     27  O   UNL     1       0.847   0.054   0.812  0.00  0.00    -0.260 OA
BRANCH  26  28
ATOM     28  C   UNL     1      -1.322  -0.498   1.326  0.00  0.00    -0.003 C 
ATOM     29  C   UNL     1      -2.432  -0.226   1.595  0.00  0.00    -0.057 C 
BRANCH  29  30
ATOM     30  C   UNL     1      -3.786   0.106   1.924  0.00  0.00    +0.025 A 
ATOM     31  C   UNL     1      -4.724  -0.907   2.143  0.00  0.00    +0.017 A 
ATOM     32  C   UNL     1      -6.026  -0.579   2.460  0.00  0.00    +0.001 A 
ATOM     33  C   UNL     1      -6.404   0.748   2.561  0.00  0.00    +0.000 A 
ATOM     34  C   UNL     1      -5.481   1.757   2.345  0.00  0.00    +0.001 A 
ATOM     35  C   UNL     1      -4.174   1.445   2.034  0.00  0.00    +0.017 A 
ENDBRANCH  29  30
ENDBRANCH  26  28
BRANCH  25  36
ATOM     36  C   UNL     1      -0.580  -3.186   1.115  0.00  0.00    +0.109 C 
BRANCH  36  38
ATOM     37  C   UNL     1      -1.754  -4.544   2.853  0.00  0.00    +0.005 C 
ATOM     38  C   UNL     1      -0.671  -3.490   2.611  0.00  0.00    +0.016 C 
ENDBRANCH  36  38
ENDBRANCH  25  36
ENDBRANCH   1  25
TORSDOF 11
