REMARK  Name = ZINC01944613
REMARK  13 active torsions:
REMARK  status: ('A' for Active; 'I' for Inactive)
REMARK    1  A    between atoms: C_1  and  C_2
REMARK    2  A    between atoms: C_6  and  C_31
REMARK    3  A    between atoms: C_7  and  O_8
REMARK    4  A    between atoms: O_8  and  C_9
REMARK    5  A    between atoms: C_9  and  C_10
REMARK    6  A    between atoms: N_12  and  C_13
REMARK    7  A    between atoms: C_14  and  C_27
REMARK    8  A    between atoms: C_19  and  C_23
REMARK    9  A    between atoms: C_23  and  C_24
REMARK   10  A    between atoms: C_23  and  C_25
REMARK   11  A    between atoms: C_23  and  C_26
REMARK   12  A    between atoms: C_27  and  O_29
REMARK   13  A    between atoms: O_29  and  C_30
REMARK                            x       y       z     vdW  Elec       q    Type
REMARK                         _______ _______ _______ _____ _____    ______ ____
ROOT
ATOM      1  C   UNL     1       1.720  -2.772  -0.575  0.00  0.00    +0.086 A 
ATOM      2  C   UNL     1       0.659  -2.064  -1.123  0.00  0.00    +0.091 A 
ATOM      3  C   UNL     1      -0.396  -2.828  -1.767  0.00  0.00    -0.021 A 
ATOM      4  C   UNL     1      -0.217  -4.167  -1.771  0.00  0.00    -0.004 A 
ATOM      5  S   UNL     1       1.317  -4.421  -0.924  0.00  0.00    -0.077 S 
ATOM      6  C   UNL     1      -1.128  -5.198  -2.361  0.00  0.00    +0.046 C 
ATOM      7  C   UNL     1      -2.116  -4.491  -3.300  0.00  0.00    -0.000 C 
ATOM      8  C   UNL     1      -2.699  -3.274  -2.577  0.00  0.00    +0.009 C 
ATOM      9  C   UNL     1      -1.622  -2.199  -2.417  0.00  0.00    +0.037 C 
ENDROOT
BRANCH   1  12
ATOM     10  C   UNL     1       3.770  -3.129   0.555  0.00  0.00    +0.255 C 
ATOM     11  O   UNL     1       3.639  -4.324   0.395  0.00  0.00    -0.272 OA
ATOM     12  N   UNL     1       2.833  -2.280   0.089  0.00  0.00    -0.277 N 
ATOM     13  H   UNL     1       2.952  -1.196   0.234  0.00  0.00    +0.155 HD
BRANCH  10  14
ATOM     14  C   UNL     1       4.980  -2.594   1.277  0.00  0.00    +0.324 C 
BRANCH  14  15
ATOM     15  O   UNL     1       5.819  -3.681   1.671  0.00  0.00    -0.482 OA
BRANCH  15  22
ATOM     16  C   UNL     1       8.145  -3.235   0.132  0.00  0.00    +0.047 C 
ATOM     17  C   UNL     1       8.135  -3.138   1.636  0.00  0.00    -0.007 A 
ATOM     18  C   UNL     1       9.294  -2.816   2.316  0.00  0.00    +0.022 A 
ATOM     19  C   UNL     1       9.286  -2.732   3.696  0.00  0.00    +0.019 A 
ATOM     20  C   UNL     1       8.118  -2.967   4.399  0.00  0.00    +0.022 A 
ATOM     21  C   UNL     1       6.956  -3.285   3.723  0.00  0.00    -0.007 A 
ATOM     22  C   UNL     1       6.961  -3.368   2.338  0.00  0.00    +0.127 A 
ATOM     23  C   UNL     1       5.684  -3.540   4.489  0.00  0.00    +0.047 C 
ATOM     24 BR   UNL     1      10.875  -2.298   4.625  0.00  0.00    -0.050 Br
ENDBRANCH  15  22
ENDBRANCH  14  15
ENDBRANCH  10  14
ENDBRANCH   1  12
BRANCH   7  25
ATOM     25  C   UNL     1      -3.244  -5.453  -3.677  0.00  0.00    -0.035 C 
ATOM     26  C   UNL     1      -3.978  -5.899  -2.411  0.00  0.00    +0.011 C 
ATOM     27  C   UNL     1      -4.226  -4.746  -4.613  0.00  0.00    +0.011 C 
ATOM     28  C   UNL     1      -2.657  -6.676  -4.384  0.00  0.00    +0.011 C 
ENDBRANCH   7  25
BRANCH   2  29
ATOM     29  C   UNL     1       0.601  -0.603  -1.048  0.00  0.00    +0.342 C 
ATOM     30  O   UNL     1       1.094   0.071  -1.932  0.00  0.00    -0.245 OA
BRANCH  29  31
ATOM     31  O   UNL     1       0.002  -0.004   0.002  0.00  0.00    -0.464 OA
ATOM     32  C   UNL     1      -0.018   1.448   0.010  0.00  0.00    +0.280 C 
ENDBRANCH  29  31
ENDBRANCH   2  29
TORSDOF 7
