REMARK  Name = ZINC56660617
REMARK  5 active torsions:
REMARK  status: ('A' for Active; 'I' for Inactive)
REMARK    1  A    between atoms: C_1  and  C_2
REMARK    2  A    between atoms: C_2  and  C_4
REMARK    3  A    between atoms: C_2  and  N_10
REMARK    4  A    between atoms: N_13  and  N_14
REMARK    5  A    between atoms: N_17  and  C_18
REMARK                            x       y       z     vdW  Elec       q    Type
REMARK                         _______ _______ _______ _____ _____    ______ ____
ROOT
ATOM      1  N   UNL     1      -1.379  -0.492   0.014  0.00  0.00    -0.293 N 
ATOM      2  C   UNL     1      -2.058  -0.622  -1.143  0.00  0.00    +0.316 C 
ATOM      3  O   UNL     1      -1.533  -0.312  -2.195  0.00  0.00    -0.251 OA
ATOM      4  N   UNL     1      -3.320  -1.095  -1.134  0.00  0.00    -0.217 N 
ATOM      5  H   UNL     1      -1.798  -0.739   0.853  0.00  0.00    +0.151 HD
ATOM      6  H   UNL     1      -3.809  -1.189  -1.966  0.00  0.00    +0.174 HD
ENDROOT
BRANCH   4   7
ATOM      7  N   UNL     1      -3.926  -1.452   0.078  0.00  0.00    -0.217 N 
ATOM      8  C   UNL     1      -5.188  -1.926   0.087  0.00  0.00    +0.320 C 
ATOM      9  O   UNL     1      -5.714  -2.235   1.139  0.00  0.00    -0.251 OA
ATOM     10  N   UNL     1      -5.867  -2.055  -1.070  0.00  0.00    -0.268 N 
ATOM     11  H   UNL     1      -3.437  -1.359   0.910  0.00  0.00    +0.174 HD
ATOM     12  H   UNL     1      -5.474  -1.746  -1.901  0.00  0.00    +0.156 HD
BRANCH  10  13
ATOM     13  C   UNL     1      -7.141  -2.637  -1.072  0.00  0.00    +0.035 A 
ATOM     14  C   UNL     1      -7.543  -3.426  -2.142  0.00  0.00    +0.024 A 
ATOM     15  C   UNL     1      -8.799  -3.999  -2.141  0.00  0.00    +0.017 A 
ATOM     16  C   UNL     1      -9.657  -3.788  -1.077  0.00  0.00    +0.018 A 
ATOM     17  C   UNL     1      -9.259  -3.001  -0.010  0.00  0.00    +0.017 A 
ATOM     18  C   UNL     1      -8.002  -2.430  -0.003  0.00  0.00    +0.024 A 
ATOM     19 BR   UNL     1     -11.377  -4.574  -1.080  0.00  0.00    -0.050 Br
ENDBRANCH  10  13
ENDBRANCH   4   7
BRANCH   1  21
ATOM     20  C   UNL     1      -0.036   1.552   0.019  0.00  0.00    +0.030 C 
ATOM     21  C   UNL     1      -0.007   0.022   0.004  0.00  0.00    +0.100 C 
BRANCH  21  22
ATOM     22  C   UNL     1       0.737  -0.486   1.240  0.00  0.00    +0.138 C 
ATOM     23  C   UNL     1       2.216  -0.028   1.204  0.00  0.00    +0.035 C 
ATOM     24  C   UNL     1       2.570  -0.053   2.716  0.00  0.00    +0.031 C 
ATOM     25  C   UNL     1       1.238   0.368   3.371  0.00  0.00    +0.160 C 
ATOM     26  O   UNL     1       0.189   0.104   2.430  0.00  0.00    -0.375 OA
ENDBRANCH  21  22
ENDBRANCH   1  21
TORSDOF 4
