REMARK  Name = ZINC02129717
REMARK  11 active torsions:
REMARK  status: ('A' for Active; 'I' for Inactive)
REMARK    1  A    between atoms: C_1  and  C_2
REMARK    2  A    between atoms: C_2  and  O_3
REMARK    3  A    between atoms: O_3  and  C_4
REMARK    4  A    between atoms: C_6  and  C_30
REMARK    5  A    between atoms: C_9  and  O_10
REMARK    6  A    between atoms: O_10  and  C_11
REMARK    7  A    between atoms: C_11  and  C_12
REMARK    8  A    between atoms: C_13  and  C_14
REMARK    9  A    between atoms: C_21  and  O_22
REMARK   10  A    between atoms: O_22  and  C_23
REMARK   11  A    between atoms: C_29  and  N_56
REMARK                            x       y       z     vdW  Elec       q    Type
REMARK                         _______ _______ _______ _____ _____    ______ ____
ROOT
ATOM      1  C   UNL     1       0.002  -0.004   0.002  0.00  0.00    +0.043 C 
ATOM      2  C   UNL     1      -0.018   1.502   0.010  0.00  0.00    -0.001 A 
ATOM      3  C   UNL     1       1.143   2.246   0.003  0.00  0.00    -0.039 A 
ATOM      4  C   UNL     1       1.079   3.631   0.017  0.00  0.00    +0.053 A 
ATOM      5  C   UNL     1      -0.145   4.278   0.035  0.00  0.00    +0.170 A 
ATOM      6  C   UNL     1      -1.319   3.532   0.039  0.00  0.00    +0.208 A 
ATOM      7  C   UNL     1      -1.251   2.146   0.031  0.00  0.00    +0.168 A 
ATOM      8  O   UNL     1      -2.381   4.390   0.056  0.00  0.00    -0.449 OA
ATOM      9  C   UNL     1      -1.844   5.659   0.475  0.00  0.00    +0.467 C 
ATOM     10  O   UNL     1      -0.469   5.604   0.050  0.00  0.00    -0.452 OA
ATOM     11  C   UNL     1       2.501   1.591  -0.021  0.00  0.00    +0.017 C 
ATOM     12  C   UNL     1       2.379   0.122   0.384  0.00  0.00    -0.072 C 
ATOM     13  C   UNL     1       1.379  -1.963  -0.341  0.00  0.00    -0.094 C 
ATOM     14  N   UNL     1       1.319  -0.488  -0.445  0.00  0.00    +0.390 N 
ATOM     15  H   UNL     1       1.462  -0.215  -1.425  0.00  0.00    -0.080 HD
ENDROOT
BRANCH   1  17
ATOM     16  C   UNL     1      -0.520  -0.898   2.437  0.00  0.00    -0.063 C 
ATOM     17  C   UNL     1      -0.288  -0.501   1.357  0.00  0.00    -0.109 C 
BRANCH  16  18
ATOM     18  C   UNL     1      -0.811  -1.395   3.792  0.00  0.00    +0.317 C 
BRANCH  18  19
ATOM     19  O   UNL     1      -2.101  -0.936   4.201  0.00  0.00    -0.476 OA
BRANCH  19  25
ATOM     20  C   UNL     1      -3.774  -0.894   5.897  0.00  0.00    +0.163 A 
ATOM     21  C   UNL     1      -4.207  -1.272   7.152  0.00  0.00    +0.060 A 
ATOM     22  C   UNL     1      -3.389  -2.072   7.959  0.00  0.00    +0.018 A 
ATOM     23  C   UNL     1      -2.136  -2.483   7.489  0.00  0.00    +0.015 A 
ATOM     24  C   UNL     1      -1.714  -2.106   6.234  0.00  0.00    +0.050 A 
ATOM     25  C   UNL     1      -2.524  -1.308   5.436  0.00  0.00    +0.163 A 
BRANCH  22  26
ATOM     26  C   UNL     1      -3.844  -2.478   9.295  0.00  0.00    +0.258 C 
ATOM     27  O   UNL     1      -4.930  -2.120   9.700  0.00  0.00    -0.296 OA
ENDBRANCH  22  26
BRANCH  20  28
ATOM     28  O   UNL     1      -4.566  -0.117   5.110  0.00  0.00    -0.489 OA
BRANCH  28  30
ATOM     29  C   UNL     1      -6.575   1.133   4.624  0.00  0.00    +0.048 C 
ATOM     30  C   UNL     1      -5.832   0.270   5.645  0.00  0.00    +0.226 C 
ENDBRANCH  28  30
ENDBRANCH  20  28
ENDBRANCH  19  25
ENDBRANCH  18  19
ENDBRANCH  16  18
ENDBRANCH   1  17
BRANCH   7  31
ATOM     31  O   UNL     1      -2.397   1.413   0.040  0.00  0.00    -0.491 OA
ATOM     32  C   UNL     1      -2.928   1.053   1.317  0.00  0.00    +0.277 C 
ENDBRANCH   7  31
TORSDOF 8
