REMARK  Name = ZINC59110028
REMARK  7 active torsions:
REMARK  status: ('A' for Active; 'I' for Inactive)
REMARK    1  A    between atoms: C_1  and  C_2
REMARK    2  A    between atoms: N_5  and  C_20
REMARK    3  A    between atoms: N_8  and  C_9
REMARK    4  A    between atoms: C_9  and  N_11
REMARK    5  A    between atoms: N_11  and  C_12
REMARK    6  A    between atoms: C_20  and  N_22
REMARK    7  A    between atoms: N_22  and  C_23
REMARK                            x       y       z     vdW  Elec       q    Type
REMARK                         _______ _______ _______ _____ _____    ______ ____
ROOT
ATOM      1  C   UNL     1       0.143   1.671   0.011  0.00  0.00    +0.029 C 
ATOM      2  C   UNL     1       0.168   0.143   0.097  0.00  0.00    +0.089 C 
ATOM      3  C   UNL     1      -1.257  -0.384   0.306  0.00  0.00    +0.129 C 
ATOM      4  N   UNL     1      -1.185  -1.812   0.645  0.00  0.00    -0.309 N 
ATOM      5  C   UNL     1      -0.359  -2.228   1.787  0.00  0.00    +0.126 C 
ATOM      6  C   UNL     1       1.067  -1.701   1.578  0.00  0.00    +0.126 C 
ATOM      7  N   UNL     1       0.998  -0.273   1.237  0.00  0.00    -0.307 N 
ENDROOT
BRANCH   7   8
ATOM      8  C   UNL     1       1.680   0.639   1.958  0.00  0.00    +0.137 C 
ATOM      9  S   UNL     1       1.464   2.309   1.650  0.00  0.00    -0.018 S 
BRANCH   8  10
ATOM     10  N   UNL     1       2.532   0.236   2.921  0.00  0.00    -0.296 N 
ATOM     11  H   UNL     1       2.303   0.364   3.855  0.00  0.00    +0.154 HD
BRANCH  10  12
ATOM     12  C   UNL     1       3.746  -0.368   2.574  0.00  0.00    +0.051 A 
ATOM     13  C   UNL     1       4.126  -0.451   1.241  0.00  0.00    +0.026 A 
ATOM     14  C   UNL     1       5.324  -1.047   0.901  0.00  0.00    +0.022 A 
ATOM     15  C   UNL     1       6.147  -1.562   1.888  0.00  0.00    +0.042 A 
ATOM     16  C   UNL     1       5.772  -1.481   3.217  0.00  0.00    +0.041 A 
ATOM     17  C   UNL     1       4.576  -0.881   3.563  0.00  0.00    +0.063 A 
ATOM     18 CL   UNL     1       4.109  -0.774   5.232  0.00  0.00    -0.082 Cl
ATOM     19 CL   UNL     1       7.653  -2.311   1.456  0.00  0.00    -0.083 Cl
ENDBRANCH  10  12
ENDBRANCH   8  10
ENDBRANCH   7   8
BRANCH   4  20
ATOM     20  C   UNL     1      -1.865  -2.724  -0.078  0.00  0.00    +0.137 C 
ATOM     21  S   UNL     1      -2.717  -2.240  -1.482  0.00  0.00    -0.018 S 
BRANCH  20  22
ATOM     22  N   UNL     1      -1.874  -4.016   0.304  0.00  0.00    -0.296 N 
ATOM     23  H   UNL     1      -1.295  -4.657  -0.138  0.00  0.00    +0.154 HD
BRANCH  22  24
ATOM     24  C   UNL     1      -2.718  -4.434   1.340  0.00  0.00    +0.051 A 
ATOM     25  C   UNL     1      -3.626  -3.544   1.899  0.00  0.00    +0.026 A 
ATOM     26  C   UNL     1      -4.459  -3.959   2.920  0.00  0.00    +0.022 A 
ATOM     27  C   UNL     1      -4.389  -5.260   3.386  0.00  0.00    +0.042 A 
ATOM     28  C   UNL     1      -3.485  -6.149   2.832  0.00  0.00    +0.041 A 
ATOM     29  C   UNL     1      -2.654  -5.741   1.806  0.00  0.00    +0.063 A 
ATOM     30 CL   UNL     1      -1.525  -6.859   1.106  0.00  0.00    -0.082 Cl
ATOM     31 CL   UNL     1      -5.436  -5.777   4.670  0.00  0.00    -0.083 Cl
ENDBRANCH  22  24
ENDBRANCH  20  22
ENDBRANCH   4  20
TORSDOF 6
