REMARK  Name = ZINC13031621
REMARK  13 active torsions:
REMARK  status: ('A' for Active; 'I' for Inactive)
REMARK    1  A    between atoms: C_1  and  C_2
REMARK    2  A    between atoms: C_2  and  C_3
REMARK    3  A    between atoms: C_2  and  C_4
REMARK    4  A    between atoms: C_4  and  C_5
REMARK    5  A    between atoms: C_5  and  N_6
REMARK    6  A    between atoms: C_7  and  C_9
REMARK    7  A    between atoms: C_9  and  C_11
REMARK    8  A    between atoms: C_9  and  N_16
REMARK    9  A    between atoms: N_16  and  C_17
REMARK   10  A    between atoms: C_17  and  C_18
REMARK   11  A    between atoms: C_18  and  N_69
REMARK   12  A    between atoms: C_24  and  C_26
REMARK   13  A    between atoms: C_26  and  N_27
REMARK                            x       y       z     vdW  Elec       q    Type
REMARK                         _______ _______ _______ _____ _____    ______ ____
ROOT
ATOM      1  N   UNL     1       1.630  -2.634   0.841  0.00  0.00    -0.286 N 
ATOM      2  C   UNL     1       2.210  -3.237   1.898  0.00  0.00    +0.238 C 
ATOM      3  O   UNL     1       3.312  -2.890   2.265  0.00  0.00    -0.274 OA
ENDROOT
BRANCH   1   4
ATOM      4  C   UNL     1       2.332  -1.559   0.135  0.00  0.00    +0.199 C 
BRANCH   4   5
ATOM      5  C   UNL     1       3.575  -2.111  -0.513  0.00  0.00    +0.019 A 
ATOM      6  C   UNL     1       4.052  -1.898  -1.764  0.00  0.00    +0.013 A 
ATOM      7  C   UNL     1       5.227  -2.518  -2.148  0.00  0.00    +0.008 A 
ATOM      8  C   UNL     1       5.867  -3.320  -1.262  0.00  0.00    +0.045 A 
ATOM      9  S   UNL     1       4.801  -3.217   0.167  0.00  0.00    -0.099 S 
ENDBRANCH   4   5
BRANCH   4  11
ATOM     10  N   UNL     1       3.293   0.655   0.677  0.00  0.00    -0.313 N 
ATOM     11  C   UNL     1       2.714  -0.480   1.116  0.00  0.00    +0.239 C 
ATOM     12  O   UNL     1       2.500  -0.634   2.300  0.00  0.00    -0.273 OA
ATOM     13  H   UNL     1       3.464   0.778  -0.269  0.00  0.00    +0.149 HD
BRANCH  10  14
ATOM     14  C   UNL     1       3.664   1.704   1.631  0.00  0.00    +0.104 C 
BRANCH  14  15
ATOM     15  C   UNL     1       4.298   2.876   0.879  0.00  0.00    +0.022 C 
BRANCH  15  17
ATOM     16  C   UNL     1       5.781   3.448   2.806  0.00  0.00    +0.007 C 
ATOM     17  C   UNL     1       4.686   3.971   1.874  0.00  0.00    -0.016 C 
ATOM     18  C   UNL     1       5.204   5.192   1.113  0.00  0.00    +0.007 C 
ENDBRANCH  15  17
ENDBRANCH  14  15
ENDBRANCH  10  14
ENDBRANCH   4  11
ENDBRANCH   1   4
BRANCH   1  19
ATOM     19  C   UNL     1       0.298  -3.054   0.398  0.00  0.00    +0.090 C 
BRANCH  19  20
ATOM     20  C   UNL     1       0.436  -4.085  -0.724  0.00  0.00    -0.059 C 
BRANCH  20  26
ATOM     21  C   UNL     1      -1.708  -5.106  -0.247  0.00  0.00    -0.050 C 
ATOM     22  C   UNL     1      -3.103  -5.373  -0.820  0.00  0.00    +0.141 C 
ATOM     23  O   UNL     1      -2.979  -6.127  -2.030  0.00  0.00    -0.383 OA
ATOM     24  C   UNL     1      -2.193  -5.479  -3.034  0.00  0.00    +0.141 C 
ATOM     25  C   UNL     1      -0.790  -5.213  -2.483  0.00  0.00    -0.050 C 
ATOM     26  N   UNL     1      -0.908  -4.389  -1.261  0.00  0.00    +0.384 N 
ATOM     27  H   UNL     1      -1.380  -3.508  -1.497  0.00  0.00    -0.082 HD
ENDBRANCH  20  26
ENDBRANCH  19  20
ENDBRANCH   1  19
BRANCH   2  28
ATOM     28  C   UNL     1       1.488  -4.343   2.623  0.00  0.00    +0.241 C 
BRANCH  28  29
ATOM     29  N   UNL     1       2.322  -4.830   3.725  0.00  0.00    -0.235 N 
ATOM     30  C   UNL     1       2.332  -4.362   5.018  0.00  0.00    +0.090 A 
ATOM     31  C   UNL     1       1.635  -3.364   5.690  0.00  0.00    +0.029 A 
ATOM     32  C   UNL     1       1.881  -3.138   7.015  0.00  0.00    +0.002 A 
ATOM     33  C   UNL     1       2.823  -3.897   7.698  0.00  0.00    +0.002 A 
ATOM     34  C   UNL     1       3.520  -4.881   7.062  0.00  0.00    +0.032 A 
ATOM     35  C   UNL     1       3.286  -5.134   5.703  0.00  0.00    +0.113 A 
ATOM     36  N   UNL     1       3.806  -6.016   4.827  0.00  0.00    -0.129 NA
ATOM     37  N   UNL     1       3.262  -5.869   3.670  0.00  0.00    -0.064 NA
ENDBRANCH  28  29
ENDBRANCH   2  28
TORSDOF 11
