REMARK  Name = ZINC58894440
REMARK  16 active torsions:
REMARK  status: ('A' for Active; 'I' for Inactive)
REMARK    1  A    between atoms: C_1  and  C_2
REMARK    2  A    between atoms: C_2  and  O_3
REMARK    3  A    between atoms: O_3  and  C_4
REMARK    4  A    between atoms: C_7  and  C_10
REMARK    5  A    between atoms: C_10  and  C_12
REMARK    6  A    between atoms: C_10  and  O_41
REMARK    7  A    between atoms: C_12  and  C_13
REMARK    8  A    between atoms: C_13  and  C_14
REMARK    9  A    between atoms: N_16  and  N_17
REMARK   10  A    between atoms: C_18  and  C_19
REMARK   11  A    between atoms: C_20  and  C_40
REMARK   12  A    between atoms: C_21  and  C_26
REMARK   13  A    between atoms: C_23  and  C_25
REMARK   14  A    between atoms: C_29  and  O_32
REMARK   15  A    between atoms: O_32  and  C_33
REMARK   16  A    between atoms: C_33  and  C_34
REMARK                            x       y       z     vdW  Elec       q    Type
REMARK                         _______ _______ _______ _____ _____    ______ ____
ROOT
ATOM      1  C   UNL     1      -2.948 -12.085  -6.103  0.00  0.00    -0.006 C 
ATOM      2  C   UNL     1      -3.043 -13.374  -6.475  0.00  0.00    -0.053 C 
ATOM      3  C   UNL     1      -3.224 -13.379  -7.976  0.00  0.00    +0.071 C 
ATOM      4  C   UNL     1      -3.216 -11.923  -8.383  0.00  0.00    -0.061 C 
ATOM      5  C   UNL     1      -3.062 -11.208  -7.280  0.00  0.00    +0.009 C 
ATOM      6  C   UNL     1      -3.364 -11.386  -9.783  0.00  0.00    +0.040 C 
ATOM      7  C   UNL     1      -2.981 -14.579  -5.571  0.00  0.00    +0.040 C 
ENDROOT
BRANCH   3   8
ATOM      8  C   UNL     1      -4.539 -14.018  -8.342  0.00  0.00    -0.036 A 
ATOM      9  C   UNL     1      -5.723 -13.474  -7.880  0.00  0.00    +0.008 A 
ATOM     10  C   UNL     1      -6.929 -14.059  -8.214  0.00  0.00    +0.046 A 
ATOM     11  C   UNL     1      -6.952 -15.193  -9.013  0.00  0.00    +0.121 A 
ATOM     12  C   UNL     1      -5.762 -15.737  -9.475  0.00  0.00    +0.046 A 
ATOM     13  C   UNL     1      -4.559 -15.145  -9.143  0.00  0.00    +0.008 A 
BRANCH  11  14
ATOM     14  O   UNL     1      -8.137 -15.770  -9.342  0.00  0.00    -0.487 OA
BRANCH  14  15
ATOM     15  C   UNL     1      -8.085 -16.935 -10.167  0.00  0.00    +0.264 C 
BRANCH  15  16
ATOM     16  C   UNL     1      -9.484 -17.432 -10.425  0.00  0.00    -0.010 A 
ATOM     17  C   UNL     1     -10.063 -18.345  -9.564  0.00  0.00    +0.007 A 
ATOM     18  C   UNL     1     -11.346 -18.801  -9.800  0.00  0.00    +0.000 A 
ATOM     19  C   UNL     1     -12.051 -18.343 -10.898  0.00  0.00    +0.000 A 
ATOM     20  C   UNL     1     -11.472 -17.430 -11.759  0.00  0.00    +0.000 A 
ATOM     21  C   UNL     1     -10.190 -16.971 -11.520  0.00  0.00    +0.007 A 
ENDBRANCH  15  16
ENDBRANCH  14  15
ENDBRANCH  11  14
ENDBRANCH   3   8
BRANCH   1  23
ATOM     22  N   UNL     1      -2.689 -10.347  -4.465  0.00  0.00    -0.188 NA
ATOM     23  C   UNL     1      -2.763 -11.618  -4.717  0.00  0.00    +0.138 C 
BRANCH  22  26
ATOM     24  C   UNL     1      -2.436  -8.583  -2.886  0.00  0.00    +0.232 C 
ATOM     25  O   UNL     1      -2.519  -7.780  -3.791  0.00  0.00    -0.274 OA
ATOM     26  N   UNL     1      -2.514  -9.903  -3.148  0.00  0.00    -0.207 N 
ATOM     27  H   UNL     1      -2.448 -10.546  -2.424  0.00  0.00    +0.177 HD
BRANCH  24  28
ATOM     28  C   UNL     1      -2.247  -8.106  -1.469  0.00  0.00    +0.100 C 
BRANCH  28  29
ATOM     29  C   UNL     1      -2.192  -6.577  -1.450  0.00  0.00    +0.045 C 
BRANCH  29  30
ATOM     30  C   UNL     1      -2.001  -6.092  -0.011  0.00  0.00    +0.145 C 
BRANCH  30  34
ATOM     31  C   UNL     1      -1.498  -1.848   0.006  0.00  0.00    +0.121 A 
ATOM     32  C   UNL     1      -0.388  -2.679  -0.003  0.00  0.00    +0.046 A 
ATOM     33  C   UNL     1      -0.553  -4.051  -0.008  0.00  0.00    +0.010 A 
ATOM     34  C   UNL     1      -1.823  -4.596  -0.005  0.00  0.00    -0.019 A 
ATOM     35  C   UNL     1      -2.932  -3.769   0.004  0.00  0.00    +0.010 A 
ATOM     36  C   UNL     1      -2.772  -2.397   0.016  0.00  0.00    +0.046 A 
BRANCH  31  37
ATOM     37  O   UNL     1      -1.339  -0.499   0.012  0.00  0.00    -0.492 OA
BRANCH  37  39
ATOM     38  C   UNL     1      -0.019   1.526   0.010  0.00  0.00    +0.048 C 
ATOM     39  C   UNL     1       0.002  -0.004   0.002  0.00  0.00    +0.225 C 
ENDBRANCH  37  39
ENDBRANCH  31  37
ENDBRANCH  30  34
BRANCH  30  40
ATOM     40  O   UNL     1      -3.149  -6.439   0.766  0.00  0.00    -0.387 OA
ATOM     41  H   UNL     1      -3.974  -6.053   0.442  0.00  0.00    +0.210 HD
ENDBRANCH  30  40
ENDBRANCH  29  30
ENDBRANCH  28  29
ENDBRANCH  24  28
ENDBRANCH  22  26
ENDBRANCH   1  23
TORSDOF 13
