REMARK  Name = ZINC09216731
REMARK  9 active torsions:
REMARK  status: ('A' for Active; 'I' for Inactive)
REMARK    1  A    between atoms: C_1  and  C_2
REMARK    2  A    between atoms: C_2  and  C_3
REMARK    3  A    between atoms: C_3  and  C_4
REMARK    4  A    between atoms: C_3  and  C_5
REMARK    5  A    between atoms: C_3  and  C_6
REMARK    6  A    between atoms: C_13  and  N_17
REMARK    7  A    between atoms: C_14  and  C_15
REMARK    8  A    between atoms: C_18  and  C_20
REMARK    9  A    between atoms: C_20  and  N_21
REMARK                            x       y       z     vdW  Elec       q    Type
REMARK                         _______ _______ _______ _____ _____    ______ ____
ROOT
ATOM      1  N   UNL     1      -0.011   0.966   0.007  0.00  0.00    -0.278 N 
ATOM      2  C   UNL     1      -1.187   1.624   0.017  0.00  0.00    +0.236 C 
ATOM      3  O   UNL     1      -1.204   2.837   0.023  0.00  0.00    -0.274 OA
ATOM      4  H   UNL     1       0.002  -0.004   0.002  0.00  0.00    +0.155 HD
ENDROOT
BRANCH   1  11
ATOM      5  C   UNL     1       5.487   4.202  -0.410  0.00  0.00    -0.000 C 
ATOM      6  C   UNL     1       5.864   2.970   0.417  0.00  0.00    +0.009 C 
ATOM      7  C   UNL     1       5.038   1.765  -0.036  0.00  0.00    +0.037 C 
ATOM      8  C   UNL     1       3.563   2.148  -0.021  0.00  0.00    -0.018 A 
ATOM      9  C   UNL     1       3.181   3.444  -0.011  0.00  0.00    -0.004 A 
ATOM     10  S   UNL     1       1.411   3.393  -0.001  0.00  0.00    -0.077 S 
ATOM     11  C   UNL     1       1.181   1.676  -0.000  0.00  0.00    +0.090 A 
ATOM     12  C   UNL     1       2.478   1.183  -0.015  0.00  0.00    +0.084 A 
ATOM     13  C   UNL     1       4.071   4.649  -0.015  0.00  0.00    +0.047 C 
BRANCH   5  14
ATOM     14  C   UNL     1       6.478   5.333  -0.129  0.00  0.00    -0.032 C 
ATOM     15  C   UNL     1       6.451   5.676   1.362  0.00  0.00    +0.011 C 
ATOM     16  C   UNL     1       7.887   4.885  -0.523  0.00  0.00    +0.011 C 
BRANCH  14  18
ATOM     17  C   UNL     1       7.080   7.698  -0.662  0.00  0.00    +0.004 C 
ATOM     18  C   UNL     1       6.088   6.568  -0.944  0.00  0.00    +0.003 C 
ENDBRANCH  14  18
ENDBRANCH   5  14
BRANCH  12  19
ATOM     19  C   UNL     1       2.736  -0.225  -0.024  0.00  0.00    +0.102 C 
ATOM     20  N   UNL     1       2.941  -1.342  -0.032  0.00  0.00    -0.191 NA
ENDBRANCH  12  19
ENDBRANCH   1  11
BRANCH   2  21
ATOM     21  C   UNL     1      -2.482   0.853   0.018  0.00  0.00    +0.214 C 
BRANCH  21  22
ATOM     22  N   UNL     1      -3.608   1.789   0.029  0.00  0.00    -0.215 N 
ATOM     23  C   UNL     1      -4.197   2.280  -1.081  0.00  0.00    +0.247 C 
ATOM     24  O   UNL     1      -3.906   2.040  -2.234  0.00  0.00    -0.273 OA
ATOM     25  C   UNL     1      -5.295   3.193  -0.587  0.00  0.00    +0.113 C 
ATOM     26  C   UNL     1      -6.655   2.692  -1.061  0.00  0.00    +0.035 C 
ATOM     27  C   UNL     1      -7.756   3.612  -0.526  0.00  0.00    +0.003 C 
ATOM     28  C   UNL     1      -7.515   5.038  -1.028  0.00  0.00    +0.000 C 
ATOM     29  C   UNL     1      -6.158   5.535  -0.523  0.00  0.00    +0.003 C 
ATOM     30  C   UNL     1      -5.051   4.622  -1.058  0.00  0.00    +0.035 C 
ATOM     31  N   UNL     1      -5.197   3.108   0.876  0.00  0.00    -0.285 N 
ATOM     32  C   UNL     1      -4.185   2.260   1.141  0.00  0.00    +0.310 C 
ATOM     33  O   UNL     1      -3.833   1.958   2.265  0.00  0.00    -0.252 OA
ATOM     34  H   UNL     1      -5.754   3.569   1.523  0.00  0.00    +0.151 HD
ENDBRANCH  21  22
ENDBRANCH   2  21
TORSDOF 6
