REMARK  Name = ZINC13992041
REMARK  7 active torsions:
REMARK  status: ('A' for Active; 'I' for Inactive)
REMARK    1  A    between atoms: C_1  and  C_2
REMARK    2  A    between atoms: C_11  and  C_12
REMARK    3  A    between atoms: C_12  and  C_14
REMARK    4  A    between atoms: C_14  and  S_15
REMARK    5  A    between atoms: S_15  and  C_16
REMARK    6  A    between atoms: C_18  and  C_27
REMARK    7  A    between atoms: C_19  and  C_22
REMARK                            x       y       z     vdW  Elec       q    Type
REMARK                         _______ _______ _______ _____ _____    ______ ____
ROOT
ATOM      1  C   UNL     1      -3.258  -2.554   0.011  0.00  0.00    +0.210 A 
ATOM      2  N   UNL     1      -3.364  -1.421   0.695  0.00  0.00    -0.218 NA
ATOM      3  C   UNL     1      -2.337  -0.574   0.718  0.00  0.00    +0.105 A 
ATOM      4  C   UNL     1      -1.167  -0.914   0.008  0.00  0.00    +0.122 A 
ATOM      5  N   UNL     1      -1.132  -2.062  -0.660  0.00  0.00    -0.144 NA
ATOM      6  N   UNL     1      -2.146  -2.854  -0.650  0.00  0.00    -0.122 NA
ENDROOT
BRANCH   4   7
ATOM      7  C   UNL     1       0.002  -0.004   0.002  0.00  0.00    +0.042 A 
ATOM      8  C   UNL     1       1.420  -0.383  -0.014  0.00  0.00    +0.051 A 
ATOM      9  C   UNL     1       2.112   0.768  -0.014  0.00  0.00    +0.195 A 
ATOM     10  O   UNL     1       1.250   1.796  -0.000  0.00  0.00    -0.470 OA
ATOM     11  C   UNL     1      -0.016   1.355   0.009  0.00  0.00    +0.205 A 
ENDBRANCH   4   7
BRANCH   3  12
ATOM     12  C   UNL     1      -2.423   0.698   1.471  0.00  0.00    +0.040 A 
ATOM     13  C   UNL     1      -3.608   1.546   1.647  0.00  0.00    +0.051 A 
ATOM     14  C   UNL     1      -3.211   2.586   2.398  0.00  0.00    +0.195 A 
ATOM     15  O   UNL     1      -1.909   2.445   2.688  0.00  0.00    -0.470 OA
ATOM     16  C   UNL     1      -1.421   1.321   2.148  0.00  0.00    +0.204 A 
ENDBRANCH   3  12
BRANCH   1  17
ATOM     17  S   UNL     1      -4.615  -3.678  -0.021  0.00  0.00    -0.076 S 
BRANCH  17  18
ATOM     18  C   UNL     1      -3.918  -4.983  -1.064  0.00  0.00    +0.157 C 
BRANCH  18  19
ATOM     19  C   UNL     1      -4.932  -6.084  -1.235  0.00  0.00    +0.175 C 
ATOM     20  O   UNL     1      -6.020  -5.995  -0.703  0.00  0.00    -0.291 OA
BRANCH  19  31
ATOM     21  C   UNL     1      -7.191 -12.073  -3.608  0.00  0.00    +0.044 C 
ATOM     22  C   UNL     1      -6.585 -10.774  -3.144  0.00  0.00    -0.048 A 
ATOM     23  C   UNL     1      -7.324  -9.920  -2.337  0.00  0.00    +0.004 A 
ATOM     24  C   UNL     1      -6.782  -8.729  -1.907  0.00  0.00    +0.011 A 
ATOM     25  C   UNL     1      -5.485  -8.387  -2.279  0.00  0.00    +0.010 A 
ATOM     26  C   UNL     1      -4.738  -9.246  -3.100  0.00  0.00    +0.047 A 
ATOM     27  C   UNL     1      -5.303 -10.444  -3.525  0.00  0.00    +0.029 A 
ATOM     28  N   UNL     1      -3.508  -8.656  -3.312  0.00  0.00    -0.360 N 
ATOM     29  H   UNL     1      -2.796  -9.043  -3.845  0.00  0.00    +0.165 HD
ATOM     30  C   UNL     1      -3.433  -7.471  -2.679  0.00  0.00    +0.095 A 
ATOM     31  C   UNL     1      -4.616  -7.223  -2.016  0.00  0.00    +0.043 A 
ENDBRANCH  19  31
ENDBRANCH  18  19
ENDBRANCH  17  18
ENDBRANCH   1  17
TORSDOF 6
