REMARK  Name = ZINC34755866
REMARK  8 active torsions:
REMARK  status: ('A' for Active; 'I' for Inactive)
REMARK    1  A    between atoms: C_1  and  C_2
REMARK    2  A    between atoms: C_2  and  N_3
REMARK    3  A    between atoms: N_3  and  C_4
REMARK    4  A    between atoms: C_4  and  C_5
REMARK    5  A    between atoms: C_6  and  C_8
REMARK    6  A    between atoms: C_8  and  N_9
REMARK    7  A    between atoms: C_22  and  S_24
REMARK    8  A    between atoms: S_24  and  C_25
REMARK                            x       y       z     vdW  Elec       q    Type
REMARK                         _______ _______ _______ _____ _____    ______ ____
ROOT
ATOM      1  N   UNL     1       4.201  -1.345   2.062  0.00  0.00    +0.387 N 
ATOM      2  C   UNL     1       4.764  -0.019   1.780  0.00  0.00    -0.059 C 
ATOM      3  C   UNL     1       6.225  -0.168   1.341  0.00  0.00    +0.088 C 
ATOM      4  N   UNL     1       6.946  -0.928   2.374  0.00  0.00    -0.318 N 
ATOM      5  C   UNL     1       6.363  -2.197   2.836  0.00  0.00    +0.088 C 
ATOM      6  C   UNL     1       4.896  -1.952   3.204  0.00  0.00    -0.059 C 
ATOM      7  C   UNL     1       8.139  -0.462   2.896  0.00  0.00    +0.134 A 
ATOM      8  C   UNL     1       9.381  -0.915   2.369  0.00  0.00    +0.051 A 
ATOM      9  C   UNL     1       9.621  -1.869   1.283  0.00  0.00    -0.025 A 
ATOM     10  C   UNL     1      10.906  -2.131   0.972  0.00  0.00    -0.004 A 
ATOM     11  S   UNL     1      11.863  -1.141   2.088  0.00  0.00    -0.073 S 
ATOM     12  C   UNL     1      10.532  -0.374   2.974  0.00  0.00    +0.115 A 
ATOM     13  N   UNL     1      10.449   0.493   3.965  0.00  0.00    -0.215 NA
ATOM     14  C   UNL     1       9.264   0.880   4.417  0.00  0.00    +0.191 A 
ATOM     15  N   UNL     1       8.139   0.414   3.887  0.00  0.00    -0.206 NA
ATOM     16  C   UNL     1      11.411  -3.062  -0.088  0.00  0.00    +0.043 C 
ATOM     17  C   UNL     1      10.253  -3.965  -0.533  0.00  0.00    +0.005 C 
ATOM     18  C   UNL     1       9.023  -3.091  -0.796  0.00  0.00    +0.005 C 
ATOM     19  C   UNL     1       8.481  -2.545   0.525  0.00  0.00    +0.037 C 
ATOM     20  H   UNL     1       4.312  -1.935   1.250  0.00  0.00    -0.081 HD
ENDROOT
BRANCH  14  21
ATOM     21  S   UNL     1       9.180   2.040   5.740  0.00  0.00    -0.089 S 
ATOM     22  C   UNL     1      10.917   2.392   6.126  0.00  0.00    +0.093 C 
ENDBRANCH  14  21
BRANCH   1  23
ATOM     23  C   UNL     1       2.772  -1.212   2.375  0.00  0.00    +0.019 C 
BRANCH  23  25
ATOM     24  N   UNL     1       0.705  -0.504   1.215  0.00  0.00    -0.304 N 
ATOM     25  C   UNL     1       2.036  -0.704   1.161  0.00  0.00    +0.199 C 
ATOM     26  O   UNL     1       2.643  -0.476   0.136  0.00  0.00    -0.278 OA
BRANCH  24  28
ATOM     27  C   UNL     1      -0.037   1.519   0.058  0.00  0.00    +0.024 C 
ATOM     28  C   UNL     1      -0.010  -0.010   0.035  0.00  0.00    +0.104 C 
ENDBRANCH  24  28
BRANCH  24  29
ATOM     29  C   UNL     1      -0.028  -0.779   2.454  0.00  0.00    +0.104 C 
ATOM     30  C   UNL     1      -0.505  -2.233   2.451  0.00  0.00    +0.024 C 
ENDBRANCH  24  29
ENDBRANCH  23  25
ENDBRANCH   1  23
TORSDOF 5
