REMARK  Name = ZINC03768548
REMARK  7 active torsions:
REMARK  status: ('A' for Active; 'I' for Inactive)
REMARK    1  A    between atoms: C_1  and  C_2
REMARK    2  A    between atoms: C_2  and  O_3
REMARK    3  A    between atoms: O_3  and  C_4
REMARK    4  A    between atoms: C_4  and  C_6
REMARK    5  A    between atoms: C_7  and  C_35
REMARK    6  A    between atoms: C_14  and  C_15
REMARK    7  A    between atoms: C_27  and  C_29
REMARK                            x       y       z     vdW  Elec       q    Type
REMARK                         _______ _______ _______ _____ _____    ______ ____
ROOT
ATOM      1  C   UNL     1       4.348   0.069   1.718  0.00  0.00    +0.085 C 
ATOM      2  C   UNL     1       3.643  -1.095   1.855  0.00  0.00    +0.053 C 
ATOM      3  N   UNL     1       2.341  -1.129   1.605  0.00  0.00    -0.228 NA
ATOM      4  C   UNL     1       1.630  -0.101   1.219  0.00  0.00    +0.178 A 
ATOM      5  N   UNL     1       2.141   1.162   1.019  0.00  0.00    -0.275 N 
ATOM      6  C   UNL     1       1.304   2.128   0.623  0.00  0.00    +0.268 A 
ATOM      7  O   UNL     1       1.714   3.259   0.434  0.00  0.00    -0.266 OA
ATOM      8  C   UNL     1      -0.069   1.820   0.423  0.00  0.00    +0.081 A 
ATOM      9  C   UNL     1      -1.087   2.632   0.022  0.00  0.00    +0.030 C 
ATOM     10  S   UNL     1      -0.100   0.081   0.831  0.00  0.00    -0.046 S 
ATOM     11  C   UNL     1       3.601   1.306   1.275  0.00  0.00    +0.162 C 
ATOM     12  C   UNL     1       4.352  -2.350   2.295  0.00  0.00    +0.066 C 
ENDROOT
BRANCH   9  13
ATOM     13  C   UNL     1      -2.446   2.102  -0.084  0.00  0.00    +0.001 A 
ATOM     14  C   UNL     1      -2.812   0.785  -0.103  0.00  0.00    +0.091 A 
ATOM     15  N   UNL     1      -4.162   0.688  -0.208  0.00  0.00    -0.360 N 
ATOM     16  H   UNL     1      -4.656  -0.147  -0.238  0.00  0.00    +0.165 HD
ATOM     17  C   UNL     1      -4.732   1.943  -0.272  0.00  0.00    +0.047 A 
ATOM     18  C   UNL     1      -3.692   2.884  -0.198  0.00  0.00    +0.008 A 
ATOM     19  C   UNL     1      -3.978   4.246  -0.239  0.00  0.00    +0.025 A 
ATOM     20  C   UNL     1      -5.287   4.665  -0.353  0.00  0.00    +0.019 A 
ATOM     21  C   UNL     1      -6.316   3.736  -0.426  0.00  0.00    +0.017 A 
ATOM     22  C   UNL     1      -6.046   2.385  -0.386  0.00  0.00    +0.027 A 
ATOM     23 BR   UNL     1      -5.682   6.514  -0.410  0.00  0.00    -0.050 Br
ENDBRANCH   9  13
BRANCH  11  24
ATOM     24  C   UNL     1       3.784   2.362   2.334  0.00  0.00    -0.020 A 
ATOM     25  C   UNL     1       3.013   2.333   3.481  0.00  0.00    +0.006 A 
ATOM     26  C   UNL     1       3.185   3.299   4.455  0.00  0.00    +0.000 A 
ATOM     27  C   UNL     1       4.120   4.301   4.276  0.00  0.00    +0.000 A 
ATOM     28  C   UNL     1       4.887   4.334   3.127  0.00  0.00    +0.000 A 
ATOM     29  C   UNL     1       4.719   3.365   2.155  0.00  0.00    +0.006 A 
ENDBRANCH  11  24
BRANCH   1  30
ATOM     30  C   UNL     1       5.726   0.114   1.981  0.00  0.00    +0.339 C 
ATOM     31  O   UNL     1       6.311  -0.894   2.338  0.00  0.00    -0.245 OA
BRANCH  30  32
ATOM     32  O   UNL     1       6.403   1.274   1.839  0.00  0.00    -0.462 OA
BRANCH  32  34
ATOM     33  C   UNL     1       8.395   2.641   1.909  0.00  0.00    +0.048 C 
ATOM     34  C   UNL     1       7.803   1.246   2.124  0.00  0.00    +0.229 C 
ENDBRANCH  32  34
ENDBRANCH  30  32
ENDBRANCH   1  30
TORSDOF 5
