REMARK  Name = ZINC36618857
REMARK  8 active torsions:
REMARK  status: ('A' for Active; 'I' for Inactive)
REMARK    1  A    between atoms: C_1  and  C_2
REMARK    2  A    between atoms: C_5  and  C_9
REMARK    3  A    between atoms: C_6  and  C_8
REMARK    4  A    between atoms: C_16  and  N_32
REMARK    5  A    between atoms: C_17  and  C_30
REMARK    6  A    between atoms: C_18  and  C_20
REMARK    7  A    between atoms: C_25  and  O_26
REMARK    8  A    between atoms: O_26  and  C_27
REMARK                            x       y       z     vdW  Elec       q    Type
REMARK                         _______ _______ _______ _____ _____    ______ ____
ROOT
ATOM      1  C   UNL     1       0.135  -4.080  -0.065  0.00  0.00    +0.101 A 
ATOM      2  C   UNL     1       0.007  -4.973  -1.132  0.00  0.00    +0.054 A 
ATOM      3  C   UNL     1       0.059  -6.242  -0.631  0.00  0.00    +0.223 A 
ATOM      4  N   UNL     1       0.212  -6.148   0.707  0.00  0.00    -0.246 N 
ATOM      5  H   UNL     1       0.280  -6.891   1.326  0.00  0.00    +0.192 HD
ATOM      6  N   UNL     1       0.264  -4.786   1.043  0.00  0.00    -0.171 NA
ATOM      7  O   UNL     1      -0.034  -7.344  -1.416  0.00  0.00    -0.423 OA
ATOM      8  C   UNL     1       0.095  -7.175  -2.747  0.00  0.00    +0.200 C 
ATOM      9  C   UNL     1       0.048  -5.972  -3.361  0.00  0.00    +0.098 C 
ATOM     10  C   UNL     1      -0.162  -4.685  -2.602  0.00  0.00    +0.105 C 
ENDROOT
BRANCH   1  15
ATOM     11  C   UNL     1       0.127   1.668  -0.436  0.00  0.00    +0.044 C 
ATOM     12  C   UNL     1       0.129   0.164  -0.339  0.00  0.00    -0.050 A 
ATOM     13  C   UNL     1       0.931  -0.581  -1.186  0.00  0.00    +0.004 A 
ATOM     14  C   UNL     1       0.937  -1.958  -1.101  0.00  0.00    +0.010 A 
ATOM     15  C   UNL     1       0.133  -2.599  -0.160  0.00  0.00    +0.005 A 
ATOM     16  C   UNL     1      -0.672  -1.845   0.690  0.00  0.00    -0.041 A 
ATOM     17  C   UNL     1      -0.667  -0.467   0.600  0.00  0.00    +0.007 A 
ATOM     18  C   UNL     1      -1.545  -2.531   1.709  0.00  0.00    +0.044 C 
ENDBRANCH   1  15
BRANCH  10  19
ATOM     19  C   UNL     1      -1.551  -4.162  -2.861  0.00  0.00    +0.010 A 
ATOM     20  C   UNL     1      -2.652  -4.929  -2.530  0.00  0.00    +0.028 A 
ATOM     21  C   UNL     1      -3.927  -4.450  -2.768  0.00  0.00    +0.043 A 
ATOM     22  C   UNL     1      -4.104  -3.201  -3.337  0.00  0.00    +0.043 A 
ATOM     23  C   UNL     1      -3.006  -2.430  -3.669  0.00  0.00    +0.084 A 
ATOM     24  C   UNL     1      -1.725  -2.907  -3.425  0.00  0.00    +0.142 A 
ATOM     25 CL   UNL     1      -3.228  -0.863  -4.383  0.00  0.00    -0.080 Cl
ATOM     26 CL   UNL     1      -5.308  -5.416  -2.353  0.00  0.00    -0.083 Cl
BRANCH  24  27
ATOM     27  O   UNL     1      -0.644  -2.149  -3.746  0.00  0.00    -0.493 OA
ATOM     28  C   UNL     1      -0.107  -2.307  -5.061  0.00  0.00    +0.277 C 
ENDBRANCH  24  27
ENDBRANCH  10  19
BRANCH   8  29
ATOM     29  N   UNL     1       0.285  -8.290  -3.525  0.00  0.00    -0.328 N 
ATOM     30  H   UNL     1       0.323  -9.168  -3.113  0.00  0.00    +0.145 HD
ATOM     31  H   UNL     1       0.380  -8.201  -4.486  0.00  0.00    +0.145 HD
ENDBRANCH   8  29
BRANCH   9  32
ATOM     32  C   UNL     1       0.202  -5.916  -4.783  0.00  0.00    +0.101 C 
ATOM     33  N   UNL     1       0.325  -5.872  -5.912  0.00  0.00    -0.191 NA
ENDBRANCH   9  32
TORSDOF 5
