REMARK  Name = ZINC09941122
REMARK  11 active torsions:
REMARK  status: ('A' for Active; 'I' for Inactive)
REMARK    1  A    between atoms: C_1  and  C_2
REMARK    2  A    between atoms: C_2  and  C_3
REMARK    3  A    between atoms: C_2  and  C_4
REMARK    4  A    between atoms: C_2  and  C_5
REMARK    5  A    between atoms: C_8  and  S_11
REMARK    6  A    between atoms: S_11  and  C_14
REMARK    7  A    between atoms: C_17  and  S_21
REMARK    8  A    between atoms: S_21  and  C_22
REMARK    9  A    between atoms: C_22  and  C_23
REMARK   10  A    between atoms: N_25  and  C_26
REMARK   11  A    between atoms: C_26  and  C_27
REMARK                            x       y       z     vdW  Elec       q    Type
REMARK                         _______ _______ _______ _____ _____    ______ ____
ROOT
ATOM      1  C   UNL     1       2.564  -0.744  -6.219  0.00  0.00    +0.177 A 
ATOM      2  C   UNL     1       3.623  -0.025  -6.741  0.00  0.00    +0.146 A 
ATOM      3  N   UNL     1       3.393   0.874  -7.685  0.00  0.00    -0.228 NA
ATOM      4  C   UNL     1       2.164   1.093  -8.131  0.00  0.00    +0.192 A 
ATOM      5  N   UNL     1       1.123   0.424  -7.655  0.00  0.00    -0.182 NA
ATOM      6  C   UNL     1       1.284  -0.496  -6.713  0.00  0.00    +0.299 A 
ATOM      7  O   UNL     1       0.218  -1.182  -6.233  0.00  0.00    -0.264 OA
ENDROOT
BRANCH   1   8
ATOM      8  S   UNL     1       2.826  -1.950  -4.962  0.00  0.00    +0.032 S 
ATOM      9  O   UNL     1       4.217  -1.937  -4.669  0.00  0.00    -0.164 OA
ATOM     10  O   UNL     1       2.148  -3.127  -5.380  0.00  0.00    -0.164 OA
BRANCH   8  14
ATOM     11  C   UNL     1       0.707  -0.490  -1.238  0.00  0.00    -0.042 A 
ATOM     12  C   UNL     1       0.036  -1.284  -2.148  0.00  0.00    +0.006 A 
ATOM     13  C   UNL     1       0.683  -1.730  -3.286  0.00  0.00    +0.027 A 
ATOM     14  C   UNL     1       2.001  -1.381  -3.513  0.00  0.00    +0.094 A 
ATOM     15  C   UNL     1       2.672  -0.586  -2.603  0.00  0.00    +0.027 A 
ATOM     16  C   UNL     1       2.024  -0.137  -1.467  0.00  0.00    +0.006 A 
BRANCH  11  18
ATOM     17  C   UNL     1      -0.019   1.526   0.010  0.00  0.00    +0.015 C 
ATOM     18  C   UNL     1       0.002  -0.004   0.002  0.00  0.00    -0.013 C 
ATOM     19  C   UNL     1       0.742  -0.511   1.242  0.00  0.00    +0.015 C 
ATOM     20  C   UNL     1      -1.433  -0.534   0.013  0.00  0.00    +0.015 C 
ENDBRANCH  11  18
ENDBRANCH   8  14
ENDBRANCH   1   8
BRANCH   4  21
ATOM     21  S   UNL     1       1.909   2.301  -9.388  0.00  0.00    -0.077 S 
BRANCH  21  22
ATOM     22  C   UNL     1       0.118   2.259  -9.679  0.00  0.00    +0.173 C 
BRANCH  22  23
ATOM     23  C   UNL     1      -0.240   3.260 -10.747  0.00  0.00    +0.224 C 
ATOM     24  O   UNL     1       0.626   3.934 -11.262  0.00  0.00    -0.275 OA
ATOM     25  N   UNL     1      -1.524   3.405 -11.131  0.00  0.00    -0.310 N 
ATOM     26  H   UNL     1      -2.217   2.865 -10.720  0.00  0.00    +0.149 HD
BRANCH  25  27
ATOM     27  C   UNL     1      -1.873   4.377 -12.170  0.00  0.00    +0.141 C 
BRANCH  27  28
ATOM     28  C   UNL     1      -3.360   4.343 -12.411  0.00  0.00    -0.012 A 
ATOM     29  C   UNL     1      -3.869   3.643 -13.489  0.00  0.00    +0.006 A 
ATOM     30  C   UNL     1      -5.233   3.611 -13.711  0.00  0.00    +0.000 A 
ATOM     31  C   UNL     1      -6.089   4.279 -12.855  0.00  0.00    +0.001 A 
ATOM     32  C   UNL     1      -5.581   4.979 -11.777  0.00  0.00    +0.020 A 
ATOM     33  C   UNL     1      -4.216   5.006 -11.551  0.00  0.00    +0.046 A 
ATOM     34 CL   UNL     1      -3.578   5.879 -10.193  0.00  0.00    -0.083 Cl
ENDBRANCH  27  28
ENDBRANCH  25  27
ENDBRANCH  22  23
ENDBRANCH  21  22
ENDBRANCH   4  21
TORSDOF 8
