REMARK  Name = ZINC19807926
REMARK  11 active torsions:
REMARK  status: ('A' for Active; 'I' for Inactive)
REMARK    1  A    between atoms: C_1  and  C_2
REMARK    2  A    between atoms: C_2  and  C_3
REMARK    3  A    between atoms: C_6  and  N_9
REMARK    4  A    between atoms: N_11  and  C_32
REMARK    5  A    between atoms: C_15  and  C_16
REMARK    6  A    between atoms: C_18  and  O_28
REMARK    7  A    between atoms: C_19  and  O_23
REMARK    8  A    between atoms: O_23  and  C_24
REMARK    9  A    between atoms: C_24  and  C_25
REMARK   10  A    between atoms: O_28  and  C_29
REMARK   11  A    between atoms: C_29  and  C_30
REMARK                            x       y       z     vdW  Elec       q    Type
REMARK                         _______ _______ _______ _____ _____    ______ ____
ROOT
ATOM      1  N   UNL     1      -5.048  -2.697  -0.962  0.00  0.00    -0.226 NA
ATOM      2  C   UNL     1      -6.004  -2.003  -1.537  0.00  0.00    +0.168 C 
ATOM      3  N   UNL     1      -7.340  -2.319  -1.655  0.00  0.00    -0.249 N 
ATOM      4  C   UNL     1      -8.175  -1.499  -2.271  0.00  0.00    +0.259 C 
ATOM      5  O   UNL     1      -9.358  -1.763  -2.384  0.00  0.00    -0.269 OA
ATOM      6  C   UNL     1      -7.608  -0.250  -2.814  0.00  0.00    +0.078 C 
ATOM      7  C   UNL     1      -8.226   0.757  -3.482  0.00  0.00    +0.028 C 
ATOM      8  S   UNL     1      -5.891  -0.416  -2.349  0.00  0.00    -0.049 S 
ATOM      9  C   UNL     1      -7.840  -3.577  -1.094  0.00  0.00    +0.140 C 
ENDROOT
BRANCH   7  10
ATOM     10  C   UNL     1      -7.431   1.839  -4.077  0.00  0.00    -0.019 A 
ATOM     11  C   UNL     1      -6.061   1.661  -4.304  0.00  0.00    +0.057 A 
ATOM     12  C   UNL     1      -5.319   2.682  -4.864  0.00  0.00    +0.164 A 
ATOM     13  C   UNL     1      -5.933   3.887  -5.203  0.00  0.00    +0.177 A 
ATOM     14  C   UNL     1      -7.292   4.065  -4.979  0.00  0.00    +0.064 A 
ATOM     15  C   UNL     1      -8.042   3.049  -4.426  0.00  0.00    +0.027 A 
ATOM     16 BR   UNL     1      -8.117   5.703  -5.440  0.00  0.00    -0.046 Br
BRANCH  13  17
ATOM     17  O   UNL     1      -5.200   4.889  -5.754  0.00  0.00    -0.478 OA
BRANCH  17  18
ATOM     18  C   UNL     1      -5.102   4.913  -7.179  0.00  0.00    +0.324 C 
BRANCH  18  19
ATOM     19  C   UNL     1      -4.257   6.086  -7.605  0.00  0.00    +0.248 C 
ATOM     20  O   UNL     1      -3.785   6.829  -6.770  0.00  0.00    -0.272 OA
ATOM     21  N   UNL     1      -4.025   6.310  -8.913  0.00  0.00    -0.327 N 
ATOM     22  H   UNL     1      -4.402   5.716  -9.581  0.00  0.00    +0.145 HD
ATOM     23  H   UNL     1      -3.481   7.065  -9.187  0.00  0.00    +0.145 HD
ENDBRANCH  18  19
ENDBRANCH  17  18
ENDBRANCH  13  17
BRANCH  12  24
ATOM     24  O   UNL     1      -3.988   2.512  -5.086  0.00  0.00    -0.489 OA
BRANCH  24  25
ATOM     25  C   UNL     1      -3.424   1.253  -4.714  0.00  0.00    +0.226 C 
ATOM     26  C   UNL     1      -1.928   1.249  -5.036  0.00  0.00    +0.048 C 
ENDBRANCH  24  25
ENDBRANCH  12  24
ENDBRANCH   7  10
BRANCH   1  30
ATOM     27  C   UNL     1      -1.180  -1.228  -0.893  0.00  0.00    -0.047 A 
ATOM     28  C   UNL     1      -1.729  -1.775   0.253  0.00  0.00    +0.006 A 
ATOM     29  C   UNL     1      -3.018  -2.266   0.238  0.00  0.00    +0.028 A 
ATOM     30  C   UNL     1      -3.769  -2.211  -0.939  0.00  0.00    +0.067 A 
ATOM     31  C   UNL     1      -3.208  -1.657  -2.092  0.00  0.00    +0.028 A 
ATOM     32  C   UNL     1      -1.919  -1.165  -2.061  0.00  0.00    +0.006 A 
BRANCH  27  34
ATOM     33  C   UNL     1       0.206   0.785  -0.473  0.00  0.00    +0.009 C 
ATOM     34  C   UNL     1       0.229  -0.693  -0.868  0.00  0.00    +0.032 C 
ENDBRANCH  27  34
ENDBRANCH   1  30
TORSDOF 8
