REMARK  Name = ZINC17042709
REMARK  6 active torsions:
REMARK  status: ('A' for Active; 'I' for Inactive)
REMARK    1  A    between atoms: C_1  and  C_2
REMARK    2  A    between atoms: C_5  and  N_8
REMARK    3  A    between atoms: C_11  and  C_34
REMARK    4  A    between atoms: N_18  and  S_21
REMARK    5  A    between atoms: S_21  and  C_24
REMARK    6  A    between atoms: C_31  and  C_33
REMARK                            x       y       z     vdW  Elec       q    Type
REMARK                         _______ _______ _______ _____ _____    ______ ____
ROOT
ATOM      1  N   UNL     1       4.119   5.770   8.496  0.00  0.00    -0.299 N 
ATOM      2  C   UNL     1       4.211   4.727   7.588  0.00  0.00    +0.128 A 
ATOM      3  C   UNL     1       3.986   3.410   7.997  0.00  0.00    +0.067 A 
ATOM      4  C   UNL     1       4.088   2.402   7.058  0.00  0.00    +0.045 A 
ATOM      5  N   UNL     1       4.394   2.712   5.806  0.00  0.00    -0.219 NA
ATOM      6  C   UNL     1       4.603   3.969   5.446  0.00  0.00    +0.220 A 
ATOM      7  N   UNL     1       4.520   4.964   6.317  0.00  0.00    -0.199 NA
ATOM      8  N   UNL     1       4.920   4.251   4.129  0.00  0.00    -0.297 N 
ATOM      9  C   UNL     1       4.970   3.022   3.325  0.00  0.00    +0.125 C 
ATOM     10  C   UNL     1       5.499   3.353   1.925  0.00  0.00    +0.128 C 
ATOM     11  N   UNL     1       4.678   4.434   1.359  0.00  0.00    -0.174 NA
ATOM     12  C   UNL     1       4.473   5.647   2.164  0.00  0.00    +0.128 C 
ATOM     13  C   UNL     1       3.980   5.224   3.557  0.00  0.00    +0.125 C 
ATOM     14  C   UNL     1       3.854   0.967   7.452  0.00  0.00    +0.066 C 
ATOM     15  H   UNL     1       3.816   5.600   9.402  0.00  0.00    +0.154 HD
ENDROOT
BRANCH   1  20
ATOM     16  C   UNL     1       5.513  11.036   6.917  0.00  0.00    +0.044 C 
ATOM     17  C   UNL     1       5.143   9.637   7.337  0.00  0.00    -0.050 A 
ATOM     18  C   UNL     1       4.140   9.439   8.268  0.00  0.00    +0.005 A 
ATOM     19  C   UNL     1       3.798   8.158   8.654  0.00  0.00    +0.023 A 
ATOM     20  C   UNL     1       4.463   7.068   8.107  0.00  0.00    +0.032 A 
ATOM     21  C   UNL     1       5.473   7.271   7.176  0.00  0.00    +0.023 A 
ATOM     22  C   UNL     1       5.807   8.554   6.790  0.00  0.00    +0.005 A 
ENDBRANCH   1  20
BRANCH  11  23
ATOM     23  S   UNL     1       4.007   4.291  -0.148  0.00  0.00    +0.061 S 
ATOM     24  O   UNL     1       4.801   3.351  -0.859  0.00  0.00    -0.153 OA
ATOM     25  O   UNL     1       3.784   5.612  -0.621  0.00  0.00    -0.153 OA
BRANCH  23  26
ATOM     26  C   UNL     1       2.418   3.555   0.056  0.00  0.00    +0.107 A 
ATOM     27  C   UNL     1       1.298   4.351   0.252  0.00  0.00    +0.030 A 
ATOM     28  C   UNL     1       0.059   3.813   0.413  0.00  0.00    +0.031 A 
ATOM     29  C   UNL     1      -0.128   2.413   0.385  0.00  0.00    +0.079 A 
ATOM     30  C   UNL     1       1.030   1.627   0.184  0.00  0.00    +0.041 A 
ATOM     31  C   UNL     1       2.277   2.181   0.024  0.00  0.00    +0.045 A 
ATOM     32  S   UNL     1       0.372  -0.021   0.214  0.00  0.00    -0.072 S 
ATOM     33  C   UNL     1      -1.292   0.402   0.475  0.00  0.00    +0.076 A 
ATOM     34  N   UNL     1      -1.267   1.704   0.523  0.00  0.00    -0.244 NA
ATOM     35  C   UNL     1      -2.479  -0.516   0.612  0.00  0.00    +0.073 C 
ENDBRANCH  23  26
ENDBRANCH  11  23
TORSDOF 3
