REMARK  Name = ZINC13065524
REMARK  8 active torsions:
REMARK  status: ('A' for Active; 'I' for Inactive)
REMARK    1  A    between atoms: C_6  and  C_7
REMARK    2  A    between atoms: C_7  and  N_8
REMARK    3  A    between atoms: C_9  and  C_13
REMARK    4  A    between atoms: C_13  and  N_60
REMARK    5  A    between atoms: C_14  and  C_15
REMARK    6  A    between atoms: C_14  and  N_60
REMARK    7  A    between atoms: C_22  and  C_23
REMARK    8  A    between atoms: C_22  and  N_60
REMARK                            x       y       z     vdW  Elec       q    Type
REMARK                         _______ _______ _______ _____ _____    ______ ____
ROOT
ATOM      1  N   UNL     1       1.576  -2.083  -1.331  0.00  0.00    +0.390 N 
ATOM      2  H   UNL     1       0.854  -1.854  -2.024  0.00  0.00    -0.080 HD
ENDROOT
BRANCH   1   3
ATOM      3  C   UNL     1       1.446  -1.165  -0.180  0.00  0.00    +0.001 C 
BRANCH   3   5
ATOM      4  N   UNL     1       0.431   1.030  -0.990  0.00  0.00    -0.227 N 
ATOM      5  C   UNL     1       1.488   0.255  -0.684  0.00  0.00    +0.135 A 
ATOM      6  N   UNL     1       2.560   0.975  -0.908  0.00  0.00    -0.115 NA
ATOM      7  N   UNL     1       2.182   2.131  -1.331  0.00  0.00    -0.023 NA
ATOM      8  N   UNL     1       0.896   2.169  -1.382  0.00  0.00    -0.044 NA
BRANCH   4   9
ATOM      9  C   UNL     1      -0.981   0.653  -0.898  0.00  0.00    +0.182 C 
BRANCH   9  15
ATOM     10  C   UNL     1      -1.917   1.146  -3.166  0.00  0.00    +0.008 A 
ATOM     11  C   UNL     1      -2.363   0.740  -4.409  0.00  0.00    +0.038 A 
ATOM     12  C   UNL     1      -2.375  -0.606  -4.735  0.00  0.00    +0.123 A 
ATOM     13  C   UNL     1      -1.934  -1.543  -3.816  0.00  0.00    +0.038 A 
ATOM     14  C   UNL     1      -1.484  -1.135  -2.575  0.00  0.00    +0.008 A 
ATOM     15  C   UNL     1      -1.472   0.209  -2.251  0.00  0.00    -0.026 A 
ATOM     16  F   UNL     1      -2.815  -1.004  -5.949  0.00  0.00    -0.205 F 
ENDBRANCH   9  15
ENDBRANCH   4   9
ENDBRANCH   3   5
ENDBRANCH   1   3
BRANCH   1  17
ATOM     17  C   UNL     1       2.907  -1.928  -1.954  0.00  0.00    -0.042 C 
BRANCH  17  18
ATOM     18  C   UNL     1       2.890  -2.595  -3.305  0.00  0.00    -0.064 A 
ATOM     19  C   UNL     1       3.370  -3.884  -3.445  0.00  0.00    +0.004 A 
ATOM     20  C   UNL     1       3.351  -4.499  -4.682  0.00  0.00    +0.038 A 
ATOM     21  C   UNL     1       2.860  -3.820  -5.784  0.00  0.00    +0.123 A 
ATOM     22  C   UNL     1       2.385  -2.527  -5.645  0.00  0.00    +0.038 A 
ATOM     23  C   UNL     1       2.400  -1.916  -4.405  0.00  0.00    +0.004 A 
ATOM     24  F   UNL     1       2.845  -4.419  -6.995  0.00  0.00    -0.205 F 
ENDBRANCH  17  18
ENDBRANCH   1  17
BRANCH   1  25
ATOM     25  C   UNL     1       1.387  -3.480  -0.886  0.00  0.00    -0.036 C 
BRANCH  25  26
ATOM     26  C   UNL     1      -0.088  -3.733  -0.702  0.00  0.00    +0.001 A 
ATOM     27  C   UNL     1      -0.817  -4.253  -1.722  0.00  0.00    +0.017 A 
ATOM     28  C   UNL     1      -2.245  -4.488  -1.512  0.00  0.00    +0.002 A 
ATOM     29  C   UNL     1      -3.046  -5.024  -2.528  0.00  0.00    +0.059 A 
ATOM     30  C   UNL     1      -4.388  -5.234  -2.300  0.00  0.00    +0.167 A 
ATOM     31  C   UNL     1      -4.952  -4.913  -1.059  0.00  0.00    +0.168 A 
ATOM     32  C   UNL     1      -4.168  -4.383  -0.050  0.00  0.00    +0.075 A 
ATOM     33  C   UNL     1      -2.813  -4.166  -0.264  0.00  0.00    +0.053 A 
ATOM     34  N   UNL     1      -2.016  -3.639   0.732  0.00  0.00    -0.322 N 
ATOM     35  H   UNL     1      -2.408  -3.417   1.591  0.00  0.00    +0.169 HD
ATOM     36  C   UNL     1      -0.703  -3.433   0.530  0.00  0.00    +0.251 A 
ATOM     37  O   UNL     1      -0.028  -2.971   1.434  0.00  0.00    -0.268 OA
ATOM     38  O   UNL     1      -6.282  -5.216  -1.097  0.00  0.00    -0.453 OA
ATOM     39  C   UNL     1      -6.444  -6.103  -2.219  0.00  0.00    +0.466 C 
ATOM     40  O   UNL     1      -5.370  -5.736  -3.106  0.00  0.00    -0.453 OA
ENDBRANCH  25  26
ENDBRANCH   1  25
TORSDOF 8
