REMARK  Name = ZINC39211551
REMARK  10 active torsions:
REMARK  status: ('A' for Active; 'I' for Inactive)
REMARK    1  A    between atoms: C_1  and  C_2
REMARK    2  A    between atoms: C_4  and  C_12
REMARK    3  A    between atoms: C_12  and  C_13
REMARK    4  A    between atoms: C_13  and  N_14
REMARK    5  A    between atoms: N_14  and  C_15
REMARK    6  A    between atoms: C_15  and  C_17
REMARK    7  A    between atoms: C_15  and  C_25
REMARK    8  A    between atoms: N_30  and  C_31
REMARK    9  A    between atoms: C_34  and  O_37
REMARK   10  A    between atoms: O_37  and  C_38
REMARK                            x       y       z     vdW  Elec       q    Type
REMARK                         _______ _______ _______ _____ _____    ______ ____
ROOT
ATOM      1  C   UNL     1      -4.368   4.113   2.479  0.00  0.00    +0.120 C 
ENDROOT
BRANCH   1   2
ATOM      2  C   UNL     1      -4.730   3.488   3.828  0.00  0.00    +0.164 C 
ATOM      3  N   UNL     1      -5.946   2.649   3.693  0.00  0.00    -0.327 NA
ATOM      4  N   UNL     1      -6.676   2.936   4.941  0.00  0.00    +0.410 N 
ATOM      5  N   UNL     1      -6.387   4.359   5.168  0.00  0.00    -0.266 NA
ATOM      6  N   UNL     1      -5.073   4.539   4.801  0.00  0.00    -0.262 N 
ATOM      7  H   UNL     1      -6.487   2.923   2.887  0.00  0.00    +0.106 HD
ATOM      8  H   UNL     1      -7.667   2.788   4.817  0.00  0.00    -0.031 HD
ATOM      9  H   UNL     1      -6.999   4.944   4.620  0.00  0.00    +0.125 HD
ATOM     10  H   UNL     1      -6.322   2.374   5.700  0.00  0.00    -0.031 HD
BRANCH   6  11
ATOM     11  C   UNL     1      -4.215   5.542   5.267  0.00  0.00    +0.045 A 
ATOM     12  C   UNL     1      -2.865   5.508   4.942  0.00  0.00    +0.028 A 
ATOM     13  C   UNL     1      -2.020   6.498   5.402  0.00  0.00    +0.047 A 
ATOM     14  C   UNL     1      -2.518   7.526   6.188  0.00  0.00    +0.120 A 
ATOM     15  C   UNL     1      -3.866   7.561   6.513  0.00  0.00    +0.047 A 
ATOM     16  C   UNL     1      -4.714   6.574   6.049  0.00  0.00    +0.028 A 
BRANCH  14  17
ATOM     17  O   UNL     1      -1.685   8.501   6.641  0.00  0.00    -0.495 OA
ATOM     18  C   UNL     1      -2.266   9.529   7.445  0.00  0.00    +0.277 C 
ENDBRANCH  14  17
ENDBRANCH   6  11
ENDBRANCH   1   2
BRANCH   1  19
ATOM     19  C   UNL     1      -5.587   4.773   1.888  0.00  0.00    -0.009 A 
ATOM     20  C   UNL     1      -6.486   4.028   1.148  0.00  0.00    +0.008 A 
ATOM     21  C   UNL     1      -7.604   4.632   0.606  0.00  0.00    +0.020 A 
ATOM     22  C   UNL     1      -7.825   5.984   0.804  0.00  0.00    +0.042 A 
ATOM     23  C   UNL     1      -6.926   6.730   1.544  0.00  0.00    +0.040 A 
ATOM     24  C   UNL     1      -5.809   6.123   2.091  0.00  0.00    +0.047 A 
ATOM     25 CL   UNL     1      -4.684   7.058   3.026  0.00  0.00    -0.083 Cl
ATOM     26 CL   UNL     1      -9.229   6.743   0.122  0.00  0.00    -0.083 Cl
ENDBRANCH   1  19
BRANCH   1  27
ATOM     27  N   UNL     1      -3.886   3.067   1.567  0.00  0.00    -0.306 NA
ATOM     28  H   UNL     1      -4.655   2.524   1.203  0.00  0.00    +0.123 HD
BRANCH  27  29
ATOM     29  C   UNL     1      -3.087   3.645   0.479  0.00  0.00    +0.086 C 
BRANCH  29  30
ATOM     30  C   UNL     1      -2.605   2.527  -0.448  0.00  0.00    +0.052 C 
BRANCH  30  34
ATOM     31  C   UNL     1       0.464   2.990  -0.416  0.00  0.00    +0.063 C 
ATOM     32  C   UNL     1      -0.458   3.323  -1.560  0.00  0.00    +0.017 A 
ATOM     33  H   UNL     1       0.844   4.125  -2.975  0.00  0.00    +0.166 HD
ATOM     34  C   UNL     1      -1.785   3.119  -1.565  0.00  0.00    -0.018 A 
ATOM     35  C   UNL     1      -2.284   3.581  -2.862  0.00  0.00    +0.003 A 
ATOM     36  C   UNL     1      -3.548   3.632  -3.454  0.00  0.00    +0.010 A 
ATOM     37  C   UNL     1      -3.686   4.136  -4.716  0.00  0.00    +0.001 A 
ATOM     38  C   UNL     1      -2.581   4.598  -5.416  0.00  0.00    +0.002 A 
ATOM     39  C   UNL     1      -1.324   4.558  -4.851  0.00  0.00    +0.026 A 
ATOM     40  C   UNL     1      -1.160   4.049  -3.567  0.00  0.00    +0.047 A 
ATOM     41  N   UNL     1      -0.068   3.883  -2.746  0.00  0.00    -0.358 N 
ENDBRANCH  30  34
ENDBRANCH  29  30
ENDBRANCH  27  29
ENDBRANCH   1  27
TORSDOF 8
