REMARK  Name = ZINC35132494
REMARK  12 active torsions:
REMARK  status: ('A' for Active; 'I' for Inactive)
REMARK    1  A    between atoms: C_1  and  C_2
REMARK    2  A    between atoms: C_2  and  O_3
REMARK    3  A    between atoms: O_3  and  C_4
REMARK    4  A    between atoms: C_4  and  C_6
REMARK    5  A    between atoms: C_10  and  N_11
REMARK    6  A    between atoms: C_12  and  C_14
REMARK    7  A    between atoms: C_14  and  C_15
REMARK    8  A    between atoms: C_14  and  C_21
REMARK    9  A    between atoms: C_27  and  C_33
REMARK   10  A    between atoms: C_27  and  C_34
REMARK   11  A    between atoms: C_29  and  C_31
REMARK   12  A    between atoms: C_29  and  C_32
REMARK                            x       y       z     vdW  Elec       q    Type
REMARK                         _______ _______ _______ _____ _____    ______ ____
ROOT
ATOM      1  C   UNL     1      -0.717  -2.591   0.700  0.00  0.00    +0.091 A 
ATOM      2  C   UNL     1      -0.838  -2.910  -0.706  0.00  0.00    -0.024 A 
ATOM      3  C   UNL     1      -2.047  -3.396  -1.072  0.00  0.00    -0.016 A 
ATOM      4  S   UNL     1      -2.980  -3.430   0.430  0.00  0.00    -0.079 S 
ATOM      5  C   UNL     1      -1.832  -2.824   1.496  0.00  0.00    +0.086 A 
ATOM      6  C   UNL     1      -2.461  -3.791  -2.450  0.00  0.00    -0.041 C 
ATOM      7  N   UNL     1      -1.337  -3.807  -3.384  0.00  0.00    +0.389 N 
ATOM      8  C   UNL     1      -0.004  -3.880  -2.800  0.00  0.00    -0.069 C 
ATOM      9  C   UNL     1       0.234  -2.764  -1.775  0.00  0.00    +0.024 C 
ATOM     10  C   UNL     1       0.235  -5.239  -2.139  0.00  0.00    -0.010 C 
ATOM     11  C   UNL     1       1.031  -3.713  -3.928  0.00  0.00    -0.010 C 
ATOM     12  C   UNL     1      -3.505  -2.774  -2.951  0.00  0.00    -0.005 C 
ATOM     13  C   UNL     1      -3.133  -5.171  -2.405  0.00  0.00    -0.005 C 
ATOM     14  H   UNL     1      -1.455  -4.596  -4.022  0.00  0.00    -0.084 HD
ATOM     15  H   UNL     1      -1.389  -2.970  -3.968  0.00  0.00    -0.084 HD
ENDROOT
BRANCH   5  16
ATOM     16  N   UNL     1      -1.964  -2.607   2.858  0.00  0.00    -0.279 N 
ATOM     17  C   UNL     1      -3.127  -2.892   3.477  0.00  0.00    +0.229 C 
ATOM     18  O   UNL     1      -4.058  -3.338   2.841  0.00  0.00    -0.274 OA
ATOM     19  H   UNL     1      -1.219  -2.249   3.367  0.00  0.00    +0.155 HD
BRANCH  17  20
ATOM     20  C   UNL     1      -3.271  -2.655   4.958  0.00  0.00    +0.135 C 
BRANCH  20  21
ATOM     21  C   UNL     1      -3.047  -1.195   5.257  0.00  0.00    -0.031 A 
ATOM     22  C   UNL     1      -3.741  -0.230   4.551  0.00  0.00    +0.005 A 
ATOM     23  C   UNL     1      -3.536   1.109   4.825  0.00  0.00    +0.000 A 
ATOM     24  C   UNL     1      -2.638   1.484   5.807  0.00  0.00    +0.000 A 
ATOM     25  C   UNL     1      -1.944   0.519   6.514  0.00  0.00    +0.000 A 
ATOM     26  C   UNL     1      -2.152  -0.820   6.242  0.00  0.00    +0.005 A 
ENDBRANCH  20  21
BRANCH  20  27
ATOM     27  C   UNL     1      -4.656  -3.052   5.398  0.00  0.00    -0.031 A 
ATOM     28  C   UNL     1      -5.762  -2.534   4.750  0.00  0.00    +0.005 A 
ATOM     29  C   UNL     1      -7.033  -2.898   5.154  0.00  0.00    +0.000 A 
ATOM     30  C   UNL     1      -7.198  -3.780   6.205  0.00  0.00    +0.000 A 
ATOM     31  C   UNL     1      -6.092  -4.298   6.853  0.00  0.00    +0.000 A 
ATOM     32  C   UNL     1      -4.821  -3.938   6.446  0.00  0.00    +0.005 A 
ENDBRANCH  20  27
ENDBRANCH  17  20
ENDBRANCH   5  16
BRANCH   1  33
ATOM     33  C   UNL     1       0.518  -2.047   1.269  0.00  0.00    +0.342 C 
ATOM     34  O   UNL     1       1.372  -2.800   1.698  0.00  0.00    -0.245 OA
BRANCH  33  35
ATOM     35  O   UNL     1       0.708  -0.713   1.319  0.00  0.00    -0.461 OA
BRANCH  35  37
ATOM     36  C   UNL     1       1.970   1.276   1.858  0.00  0.00    +0.048 C 
ATOM     37  C   UNL     1       1.936  -0.253   1.888  0.00  0.00    +0.229 C 
ENDBRANCH  35  37
ENDBRANCH  33  35
ENDBRANCH   1  33
TORSDOF 7
