REMARK  Name = ZINC64703000
REMARK  8 active torsions:
REMARK  status: ('A' for Active; 'I' for Inactive)
REMARK    1  A    between atoms: C_1  and  C_2
REMARK    2  A    between atoms: C_2  and  C_3
REMARK    3  A    between atoms: C_6  and  C_9
REMARK    4  A    between atoms: C_17  and  S_21
REMARK    5  A    between atoms: S_21  and  C_22
REMARK    6  A    between atoms: C_22  and  C_23
REMARK    7  A    between atoms: N_25  and  C_26
REMARK    8  A    between atoms: C_29  and  C_33
REMARK                            x       y       z     vdW  Elec       q    Type
REMARK                         _______ _______ _______ _____ _____    ______ ____
ROOT
ATOM      1  C   UNL     1      -5.445  -2.009   0.025  0.00  0.00    +0.047 C 
ATOM      2  C   UNL     1      -6.190  -2.290  -1.069  0.00  0.00    +0.027 C 
ATOM      3  C   UNL     1      -7.505  -2.763  -0.511  0.00  0.00    +0.193 C 
ATOM      4  C   UNL     1      -8.143  -3.931  -1.199  0.00  0.00    +0.276 C 
ATOM      5  O   UNL     1      -8.004  -4.128  -2.383  0.00  0.00    -0.270 OA
ATOM      6  N   UNL     1      -8.885  -4.756  -0.418  0.00  0.00    -0.081 NA
ATOM      7  N   UNL     1      -8.961  -4.653   0.808  0.00  0.00    -0.163 NA
ATOM      8  C   UNL     1      -8.220  -3.642   1.585  0.00  0.00    +0.272 C 
ATOM      9  N   UNL     1      -7.051  -3.272   0.823  0.00  0.00    -0.178 NA
ATOM     10  N   UNL     1      -6.196  -2.293   1.191  0.00  0.00    -0.274 N 
ATOM     11  H   UNL     1      -6.116  -1.877   2.063  0.00  0.00    +0.167 HD
ENDROOT
BRANCH   1  15
ATOM     12  C   UNL     1      -1.465  -0.520  -0.030  0.00  0.00    -0.048 A 
ATOM     13  C   UNL     1      -2.095  -0.758   1.178  0.00  0.00    +0.004 A 
ATOM     14  C   UNL     1      -3.387  -1.242   1.203  0.00  0.00    +0.010 A 
ATOM     15  C   UNL     1      -4.058  -1.490   0.006  0.00  0.00    -0.003 A 
ATOM     16  C   UNL     1      -3.418  -1.247  -1.209  0.00  0.00    +0.010 A 
ATOM     17  C   UNL     1      -2.128  -0.759  -1.221  0.00  0.00    +0.004 A 
BRANCH  12  19
ATOM     18  C   UNL     1      -0.082   1.538  -0.046  0.00  0.00    +0.009 C 
ATOM     19  C   UNL     1      -0.054   0.009  -0.050  0.00  0.00    +0.032 C 
ENDBRANCH  12  19
ENDBRANCH   1  15
BRANCH   8  20
ATOM     20  S   UNL     1      -7.727  -4.333   3.188  0.00  0.00    -0.107 S 
BRANCH  20  21
ATOM     21  C   UNL     1      -6.683  -5.751   2.752  0.00  0.00    +0.168 C 
BRANCH  21  22
ATOM     22  C   UNL     1      -6.199  -6.425   4.010  0.00  0.00    +0.227 C 
ATOM     23  O   UNL     1      -6.526  -5.991   5.094  0.00  0.00    -0.275 OA
ATOM     24  N   UNL     1      -5.402  -7.509   3.930  0.00  0.00    -0.284 N 
ATOM     25  H   UNL     1      -5.194  -7.895   3.065  0.00  0.00    +0.155 HD
BRANCH  24  26
ATOM     26  C   UNL     1      -4.877  -8.078   5.096  0.00  0.00    +0.047 A 
ATOM     27  C   UNL     1      -5.623  -8.082   6.266  0.00  0.00    +0.024 A 
ATOM     28  C   UNL     1      -5.102  -8.645   7.415  0.00  0.00    +0.005 A 
ATOM     29  C   UNL     1      -3.837  -9.204   7.400  0.00  0.00    -0.049 A 
ATOM     30  C   UNL     1      -3.090  -9.202   6.237  0.00  0.00    +0.020 A 
ATOM     31  C   UNL     1      -3.609  -8.646   5.082  0.00  0.00    +0.039 A 
ATOM     32 BR   UNL     1      -2.590  -8.651   3.489  0.00  0.00    -0.048 Br
ATOM     33  C   UNL     1      -3.271  -9.817   8.655  0.00  0.00    +0.044 C 
ENDBRANCH  24  26
ENDBRANCH  21  22
ENDBRANCH  20  21
ENDBRANCH   8  20
TORSDOF 6
