REMARK  Name = ZINC12226355
REMARK  9 active torsions:
REMARK  status: ('A' for Active; 'I' for Inactive)
REMARK    1  A    between atoms: C_1  and  C_2
REMARK    2  A    between atoms: C_2  and  O_3
REMARK    3  A    between atoms: O_3  and  C_4
REMARK    4  A    between atoms: C_6  and  N_11
REMARK    5  A    between atoms: C_8  and  C_10
REMARK    6  A    between atoms: N_11  and  C_12
REMARK    7  A    between atoms: C_15  and  N_18
REMARK    8  A    between atoms: N_18  and  S_19
REMARK    9  A    between atoms: S_19  and  C_22
REMARK                            x       y       z     vdW  Elec       q    Type
REMARK                         _______ _______ _______ _____ _____    ______ ____
ROOT
ATOM      1  C   UNL     1       4.853   2.150  -4.114  0.00  0.00    +0.032 A 
ATOM      2  C   UNL     1       5.723   1.122  -3.775  0.00  0.00    +0.025 A 
ATOM      3  C   UNL     1       5.422   0.283  -2.720  0.00  0.00    +0.026 A 
ATOM      4  C   UNL     1       4.250   0.467  -1.999  0.00  0.00    +0.048 A 
ATOM      5  C   UNL     1       3.377   1.491  -2.341  0.00  0.00    +0.026 A 
ATOM      6  C   UNL     1       3.680   2.334  -3.392  0.00  0.00    +0.025 A 
ENDROOT
BRANCH   1   7
ATOM      7  N   UNL     1       5.157   3.001  -5.184  0.00  0.00    -0.299 N 
ATOM      8  H   UNL     1       6.064   3.326  -5.302  0.00  0.00    +0.154 HD
BRANCH   7  11
ATOM      9  C   UNL     1       1.937   3.215  -6.922  0.00  0.00    +0.220 A 
ATOM     10  C   UNL     1       2.900   2.798  -6.011  0.00  0.00    +0.111 A 
ATOM     11  C   UNL     1       4.164   3.379  -6.074  0.00  0.00    +0.130 A 
ATOM     12  N   UNL     1       4.405   4.300  -7.005  0.00  0.00    -0.217 NA
ATOM     13  C   UNL     1       3.466   4.664  -7.854  0.00  0.00    +0.132 A 
ATOM     14  N   UNL     1       2.257   4.140  -7.822  0.00  0.00    -0.198 NA
ATOM     15  C   UNL     1       3.783   5.710  -8.892  0.00  0.00    +0.088 C 
BRANCH   9  16
ATOM     16  O   UNL     1       0.691   2.682  -6.897  0.00  0.00    -0.477 OA
BRANCH  16  18
ATOM     17  C   UNL     1      -1.580   2.448  -7.689  0.00  0.00    +0.048 C 
ATOM     18  C   UNL     1      -0.238   3.160  -7.872  0.00  0.00    +0.227 C 
ENDBRANCH  16  18
ENDBRANCH   9  16
ENDBRANCH   7  11
ENDBRANCH   1   7
BRANCH   4  19
ATOM     19  N   UNL     1       3.945  -0.384  -0.930  0.00  0.00    -0.216 N 
ATOM     20  H   UNL     1       3.252  -1.056  -1.028  0.00  0.00    +0.174 HD
BRANCH  19  21
ATOM     21  S   UNL     1       4.767  -0.243   0.500  0.00  0.00    +0.072 S 
ATOM     22  O   UNL     1       6.151  -0.264   0.178  0.00  0.00    -0.150 OA
ATOM     23  O   UNL     1       4.181  -1.175   1.399  0.00  0.00    -0.150 OA
BRANCH  21  24
ATOM     24  C   UNL     1       4.423   1.361   1.143  0.00  0.00    +0.112 A 
ATOM     25  C   UNL     1       3.349   1.548   1.993  0.00  0.00    +0.032 A 
ATOM     26  C   UNL     1       3.076   2.805   2.499  0.00  0.00    +0.051 A 
ATOM     27  C   UNL     1       3.878   3.882   2.154  0.00  0.00    +0.162 A 
ATOM     28  C   UNL     1       4.959   3.693   1.301  0.00  0.00    +0.164 A 
ATOM     29  C   UNL     1       5.228   2.429   0.797  0.00  0.00    +0.078 A 
ATOM     30  O   UNL     1       5.765   4.735   0.956  0.00  0.00    -0.485 OA
ATOM     31  C   UNL     1       5.246   6.051   1.181  0.00  0.00    +0.270 C 
ATOM     32  C   UNL     1       4.636   6.094   2.588  0.00  0.00    +0.270 C 
ATOM     33  O   UNL     1       3.591   5.116   2.652  0.00  0.00    -0.485 OA
ENDBRANCH  21  24
ENDBRANCH  19  21
ENDBRANCH   4  19
TORSDOF 7
