REMARK  Name = ZINC39772616
REMARK  11 active torsions:
REMARK  status: ('A' for Active; 'I' for Inactive)
REMARK    1  A    between atoms: C_1  and  C_2
REMARK    2  A    between atoms: C_2  and  C_3
REMARK    3  A    between atoms: C_3  and  C_5
REMARK    4  A    between atoms: C_3  and  S_14
REMARK    5  A    between atoms: C_11  and  C_13
REMARK    6  A    between atoms: S_14  and  C_15
REMARK    7  A    between atoms: C_18  and  C_21
REMARK    8  A    between atoms: N_19  and  C_20
REMARK    9  A    between atoms: C_21  and  C_23
REMARK   10  A    between atoms: C_21  and  N_24
REMARK   11  A    between atoms: C_25  and  C_27
REMARK                            x       y       z     vdW  Elec       q    Type
REMARK                         _______ _______ _______ _____ _____    ______ ____
ROOT
ATOM      1  C   UNL     1       2.708   1.594   1.397  0.00  0.00    +0.192 A 
ATOM      2  N   UNL     1       1.694   2.403   1.600  0.00  0.00    -0.122 NA
ATOM      3  N   UNL     1       2.122   3.601   1.784  0.00  0.00    -0.132 NA
ATOM      4  C   UNL     1       3.423   3.628   1.710  0.00  0.00    +0.154 A 
ATOM      5  N   UNL     1       3.843   2.350   1.467  0.00  0.00    -0.308 N 
ATOM      6  C   UNL     1       5.225   1.888   1.310  0.00  0.00    +0.152 C 
ENDROOT
BRANCH   4   7
ATOM      7  C   UNL     1       4.301   4.842   1.869  0.00  0.00    +0.138 C 
ATOM      8  C   UNL     1       4.213   5.705   0.609  0.00  0.00    +0.036 C 
BRANCH   7   9
ATOM      9  N   UNL     1       3.853   5.621   3.026  0.00  0.00    -0.302 N 
ATOM     10  C   UNL     1       4.719   6.427   3.673  0.00  0.00    +0.245 C 
ATOM     11  O   UNL     1       5.872   6.507   3.296  0.00  0.00    -0.270 OA
ATOM     12  H   UNL     1       2.933   5.557   3.327  0.00  0.00    +0.150 HD
BRANCH  10  13
ATOM     13  C   UNL     1       4.266   7.212   4.840  0.00  0.00    +0.038 A 
ATOM     14  C   UNL     1       2.944   7.118   5.279  0.00  0.00    +0.014 A 
ATOM     15  C   UNL     1       2.527   7.853   6.368  0.00  0.00    +0.022 A 
ATOM     16  C   UNL     1       3.417   8.685   7.027  0.00  0.00    +0.059 A 
ATOM     17  C   UNL     1       4.731   8.783   6.597  0.00  0.00    +0.060 A 
ATOM     18  C   UNL     1       5.161   8.047   5.511  0.00  0.00    +0.034 A 
ATOM     19 CL   UNL     1       5.839   9.829   7.429  0.00  0.00    -0.082 Cl
ATOM     20 CL   UNL     1       2.884   9.608   8.398  0.00  0.00    -0.082 Cl
ENDBRANCH  10  13
ENDBRANCH   7   9
ENDBRANCH   4   7
BRANCH   1  21
ATOM     21  S   UNL     1       2.621  -0.141   1.099  0.00  0.00    -0.073 S 
BRANCH  21  22
ATOM     22  C   UNL     1       0.860  -0.530   1.288  0.00  0.00    +0.140 C 
BRANCH  22  23
ATOM     23  C   UNL     1       0.454  -0.338   2.727  0.00  0.00    +0.232 C 
ATOM     24  O   UNL     1       1.297  -0.334   3.599  0.00  0.00    -0.274 OA
ATOM     25  N   UNL     1      -0.845  -0.171   3.044  0.00  0.00    -0.262 N 
ATOM     26  C   UNL     1      -1.220   0.006   4.372  0.00  0.00    +0.188 A 
ATOM     27  N   UNL     1      -0.463   0.046   5.451  0.00  0.00    -0.126 NA
ATOM     28  N   UNL     1      -0.952   0.216   6.603  0.00  0.00    -0.145 NA
ATOM     29  C   UNL     1      -2.256   0.357   6.732  0.00  0.00    +0.101 A 
ATOM     30  S   UNL     1      -2.759   0.233   5.021  0.00  0.00    -0.036 S 
ATOM     31  C   UNL     1      -3.088   0.569   7.971  0.00  0.00    +0.075 C 
ATOM     32  H   UNL     1      -1.519  -0.174   2.346  0.00  0.00    +0.157 HD
ENDBRANCH  22  23
BRANCH  22  34
ATOM     33  C   UNL     1       0.892  -2.146  -0.618  0.00  0.00    +0.005 C 
ATOM     34  C   UNL     1       0.612  -1.983   0.878  0.00  0.00    +0.020 C 
ENDBRANCH  22  34
ENDBRANCH  21  22
ENDBRANCH   1  21
TORSDOF 7
