REMARK  Name = ZINC09805683
REMARK  8 active torsions:
REMARK  status: ('A' for Active; 'I' for Inactive)
REMARK    1  A    between atoms: C_1  and  C_2
REMARK    2  A    between atoms: C_5  and  C_29
REMARK    3  A    between atoms: C_6  and  N_8
REMARK    4  A    between atoms: C_9  and  C_11
REMARK    5  A    between atoms: C_11  and  C_12
REMARK    6  A    between atoms: C_12  and  C_13
REMARK    7  A    between atoms: N_15  and  N_16
REMARK    8  A    between atoms: C_20  and  C_28
REMARK                            x       y       z     vdW  Elec       q    Type
REMARK                         _______ _______ _______ _____ _____    ______ ____
ROOT
ATOM      1  C   UNL     1       0.498  -2.684   7.314  0.00  0.00    +0.233 C 
ATOM      2  O   UNL     1       0.520  -3.896   7.301  0.00  0.00    -0.274 OA
ATOM      3  N   UNL     1       0.595  -2.020   8.483  0.00  0.00    -0.206 N 
ATOM      4  H   UNL     1       0.577  -1.051   8.494  0.00  0.00    +0.177 HD
ENDROOT
BRANCH   3   5
ATOM      5  N   UNL     1       0.723  -2.732   9.684  0.00  0.00    -0.175 NA
ATOM      6  C   UNL     1       0.720  -2.092  10.828  0.00  0.00    +0.153 C 
ATOM      7  C   UNL     1       0.695  -0.626  11.042  0.00  0.00    +0.028 A 
ATOM      8  C   UNL     1       0.670   0.462  10.177  0.00  0.00    +0.016 A 
ATOM      9  C   UNL     1       0.651   1.744  10.689  0.00  0.00    -0.036 A 
ATOM     10  C   UNL     1       0.657   1.944  12.060  0.00  0.00    +0.023 A 
ATOM     11  C   UNL     1       0.682   0.869  12.927  0.00  0.00    +0.039 A 
ATOM     12  C   UNL     1       0.701  -0.429  12.429  0.00  0.00    +0.044 A 
ATOM     13  N   UNL     1       0.727  -1.664  13.069  0.00  0.00    -0.280 N 
ATOM     14  C   UNL     1       0.733  -2.676  12.185  0.00  0.00    +0.269 C 
ATOM     15  O   UNL     1       0.750  -3.862  12.454  0.00  0.00    -0.268 OA
ATOM     16 BR   UNL     1       0.631   3.704  12.751  0.00  0.00    -0.050 Br
ATOM     17  C   UNL     1       0.625   2.927   9.756  0.00  0.00    +0.045 C 
ATOM     18  H   UNL     1       0.735  -1.780  14.032  0.00  0.00    +0.155 HD
ENDBRANCH   3   5
BRANCH   1  19
ATOM     19  C   UNL     1       0.360  -1.919   6.023  0.00  0.00    +0.107 C 
BRANCH  19  20
ATOM     20  C   UNL     1       0.269  -2.902   4.855  0.00  0.00    +0.105 C 
BRANCH  20  22
ATOM     21  N   UNL     1       0.034  -2.801   2.394  0.00  0.00    -0.285 N 
ATOM     22  C   UNL     1       0.132  -2.137   3.563  0.00  0.00    +0.218 C 
ATOM     23  O   UNL     1       0.109  -0.925   3.576  0.00  0.00    -0.275 OA
ATOM     24  H   UNL     1      -0.030  -3.769   2.390  0.00  0.00    +0.155 HD
BRANCH  21  30
ATOM     25  C   UNL     1       1.225   1.229  -0.158  0.00  0.00    +0.044 C 
ATOM     26  C   UNL     1       0.595  -0.138  -0.078  0.00  0.00    -0.049 A 
ATOM     27  C   UNL     1       0.007  -0.694  -1.200  0.00  0.00    +0.004 A 
ATOM     28  C   UNL     1      -0.572  -1.947  -1.131  0.00  0.00    +0.005 A 
ATOM     29  C   UNL     1      -0.565  -2.649   0.060  0.00  0.00    -0.029 A 
ATOM     30  C   UNL     1       0.025  -2.093   1.187  0.00  0.00    +0.037 A 
ATOM     31  C   UNL     1       0.611  -0.836   1.113  0.00  0.00    +0.027 A 
ATOM     32  C   UNL     1      -1.196  -4.015   0.134  0.00  0.00    +0.045 C 
ENDBRANCH  21  30
ENDBRANCH  20  22
ENDBRANCH  19  20
ENDBRANCH   1  19
TORSDOF 5
