REMARK  Name = ZINC38604446
REMARK  8 active torsions:
REMARK  status: ('A' for Active; 'I' for Inactive)
REMARK    1  A    between atoms: C_1  and  C_2
REMARK    2  A    between atoms: C_3  and  C_28
REMARK    3  A    between atoms: N_6  and  C_25
REMARK    4  A    between atoms: C_10  and  C_11
REMARK    5  A    between atoms: C_14  and  C_16
REMARK    6  A    between atoms: C_21  and  N_22
REMARK    7  A    between atoms: C_25  and  C_26
REMARK    8  A    between atoms: C_25  and  C_27
REMARK                            x       y       z     vdW  Elec       q    Type
REMARK                         _______ _______ _______ _____ _____    ______ ____
ROOT
ATOM      1  C   UNL     1      -0.203   1.402  -0.041  0.00  0.00    +0.046 C 
ATOM      2  C   UNL     1       0.247  -0.035   0.012  0.00  0.00    -0.016 C 
ATOM      3  C   UNL     1       0.579  -0.716  -1.153  0.00  0.00    +0.117 C 
ATOM      4  C   UNL     1       1.014  -2.111  -1.075  0.00  0.00    +0.264 C 
ATOM      5  O   UNL     1       1.305  -2.709  -2.095  0.00  0.00    -0.269 OA
ATOM      6  N   UNL     1       1.097  -2.740   0.111  0.00  0.00    -0.231 N 
ATOM      7  C   UNL     1       0.784  -2.113   1.259  0.00  0.00    +0.254 C 
ATOM      8  O   UNL     1       0.869  -2.709   2.317  0.00  0.00    -0.270 OA
ATOM      9  C   UNL     1       0.346  -0.712   1.244  0.00  0.00    +0.045 C 
ATOM     10  C   UNL     1       0.025  -0.056   2.440  0.00  0.00    +0.059 C 
ENDROOT
BRANCH  10  11
ATOM     11  C   UNL     1      -0.059  -0.780   3.631  0.00  0.00    +0.129 A 
ATOM     12  C   UNL     1       0.405  -0.361   4.877  0.00  0.00    +0.050 A 
ATOM     13  C   UNL     1       0.118  -1.383   5.776  0.00  0.00    +0.050 A 
ATOM     14  C   UNL     1      -0.507  -2.388   5.062  0.00  0.00    +0.138 A 
ATOM     15  O   UNL     1      -0.609  -2.005   3.778  0.00  0.00    -0.455 OA
BRANCH  14  16
ATOM     16  C   UNL     1      -0.988  -3.667   5.618  0.00  0.00    +0.047 A 
ATOM     17  C   UNL     1      -0.146  -4.447   6.416  0.00  0.00    +0.014 A 
ATOM     18  C   UNL     1      -0.603  -5.640   6.933  0.00  0.00    +0.001 A 
ATOM     19  C   UNL     1      -1.892  -6.067   6.664  0.00  0.00    +0.002 A 
ATOM     20  C   UNL     1      -2.731  -5.300   5.875  0.00  0.00    +0.033 A 
ATOM     21  C   UNL     1      -2.290  -4.101   5.356  0.00  0.00    +0.137 A 
BRANCH  21  22
ATOM     22  N   UNL     1      -3.192  -3.279   4.518  0.00  0.00    +0.057 N 
ATOM     23  O   UNL     1      -4.318  -3.657   4.291  0.00  0.00    -0.126 OA
ATOM     24  O   UNL     1      -2.802  -2.231   4.059  0.00  0.00    -0.126 OA
ENDBRANCH  21  22
ENDBRANCH  14  16
ENDBRANCH  10  11
BRANCH   6  25
ATOM     25  C   UNL     1       1.538  -4.137   0.153  0.00  0.00    +0.079 C 
ATOM     26  C   UNL     1       0.576  -4.999  -0.667  0.00  0.00    +0.028 C 
ATOM     27  C   UNL     1       2.947  -4.245  -0.433  0.00  0.00    +0.028 C 
ENDBRANCH   6  25
BRANCH   3  28
ATOM     28  C   UNL     1       0.495  -0.057  -2.422  0.00  0.00    +0.105 C 
ATOM     29  N   UNL     1       0.428   0.465  -3.429  0.00  0.00    -0.191 NA
ENDBRANCH   3  28
TORSDOF 5
