REMARK  Name = ZINC13165487
REMARK  9 active torsions:
REMARK  status: ('A' for Active; 'I' for Inactive)
REMARK    1  A    between atoms: C_1  and  C_2
REMARK    2  A    between atoms: N_8  and  C_24
REMARK    3  A    between atoms: N_10  and  C_11
REMARK    4  A    between atoms: C_11  and  C_13
REMARK    5  A    between atoms: C_17  and  S_19
REMARK    6  A    between atoms: S_19  and  C_22
REMARK    7  A    between atoms: C_24  and  C_25
REMARK    8  A    between atoms: C_25  and  O_27
REMARK    9  A    between atoms: O_27  and  C_28
REMARK                            x       y       z     vdW  Elec       q    Type
REMARK                         _______ _______ _______ _____ _____    ______ ____
ROOT
ATOM      1  C   UNL     1      -0.852   1.687   0.672  0.00  0.00    +0.046 C 
ATOM      2  C   UNL     1      -0.512   0.247   0.388  0.00  0.00    -0.026 A 
ATOM      3  C   UNL     1      -0.610  -0.236  -0.896  0.00  0.00    +0.007 A 
ATOM      4  C   UNL     1      -0.305  -1.553  -1.192  0.00  0.00    +0.021 A 
ATOM      5  C   UNL     1       0.105  -2.400  -0.176  0.00  0.00    +0.057 A 
ATOM      6  C   UNL     1       0.203  -1.918   1.109  0.00  0.00    +0.057 A 
ATOM      7  C   UNL     1      -0.094  -0.587   1.435  0.00  0.00    +0.062 A 
ATOM      8  N   UNL     1       0.069  -0.291   2.775  0.00  0.00    -0.310 N 
ATOM      9  C   UNL     1       0.488  -1.256   3.633  0.00  0.00    +0.167 A 
ATOM     10  N   UNL     1       0.696  -1.149   4.941  0.00  0.00    -0.152 NA
ATOM     11  S   UNL     1       0.671  -2.620   2.669  0.00  0.00    -0.051 S 
ATOM     12 CL   UNL     1       0.493  -4.057  -0.520  0.00  0.00    -0.082 Cl
ENDROOT
BRANCH  10  13
ATOM     13  C   UNL     1       0.630   0.048   5.533  0.00  0.00    +0.269 C 
ATOM     14  O   UNL     1      -0.427   0.440   5.997  0.00  0.00    -0.268 OA
BRANCH  13  15
ATOM     15  C   UNL     1       1.840   0.897   5.624  0.00  0.00    +0.041 A 
ATOM     16  C   UNL     1       3.049   0.454   5.088  0.00  0.00    +0.013 A 
ATOM     17  C   UNL     1       4.172   1.250   5.175  0.00  0.00    +0.003 A 
ATOM     18  C   UNL     1       4.101   2.486   5.793  0.00  0.00    +0.027 A 
ATOM     19  C   UNL     1       2.905   2.931   6.327  0.00  0.00    +0.089 A 
ATOM     20  C   UNL     1       1.773   2.147   6.240  0.00  0.00    +0.040 A 
BRANCH  19  21
ATOM     21  S   UNL     1       2.826   4.506   7.112  0.00  0.00    -0.006 S 
ATOM     22  O   UNL     1       1.749   4.398   8.034  0.00  0.00    -0.170 OA
ATOM     23  O   UNL     1       4.149   4.751   7.569  0.00  0.00    -0.170 OA
ATOM     24  C   UNL     1       2.398   5.668   5.786  0.00  0.00    +0.200 C 
ENDBRANCH  19  21
ENDBRANCH  13  15
ENDBRANCH  10  13
BRANCH   8  25
ATOM     25  C   UNL     1      -0.209   1.061   3.268  0.00  0.00    +0.244 C 
BRANCH  25  26
ATOM     26  C   UNL     1      -1.660   1.163   3.662  0.00  0.00    +0.327 C 
ATOM     27  O   UNL     1      -2.387   0.206   3.543  0.00  0.00    -0.249 OA
BRANCH  26  28
ATOM     28  O   UNL     1      -2.144   2.319   4.144  0.00  0.00    -0.467 OA
ATOM     29  C   UNL     1      -3.528   2.344   4.498  0.00  0.00    +0.280 C 
ENDBRANCH  26  28
ENDBRANCH  25  26
ENDBRANCH   8  25
TORSDOF 6
