REMARK  Name = ZINC08435409
REMARK  3 active torsions:
REMARK  status: ('A' for Active; 'I' for Inactive)
REMARK    1  A    between atoms: C_4  and  C_7
REMARK    2  A    between atoms: C_7  and  C_8
REMARK    3  A    between atoms: C_7  and  N_65
REMARK                            x       y       z     vdW  Elec       q    Type
REMARK                         _______ _______ _______ _____ _____    ______ ____
ROOT
ATOM      1  C   UNL     1      -4.997  -2.266   0.057  0.00  0.00    -0.058 C 
ATOM      2  C   UNL     1      -3.628  -1.586  -0.018  0.00  0.00    +0.088 C 
ATOM      3  N   UNL     1      -2.572  -2.600   0.116  0.00  0.00    -0.317 N 
ATOM      4  C   UNL     1      -2.674  -3.607  -0.948  0.00  0.00    +0.088 C 
ATOM      5  C   UNL     1      -4.043  -4.288  -0.873  0.00  0.00    -0.058 C 
ATOM      6  C   UNL     1      -1.316  -2.011   0.124  0.00  0.00    +0.150 A 
ATOM      7  C   UNL     1      -0.971  -1.034   1.165  0.00  0.00    +0.027 A 
ATOM      8  C   UNL     1      -1.878  -0.672   2.161  0.00  0.00    +0.012 A 
ATOM      9  C   UNL     1      -1.507   0.250   3.116  0.00  0.00    +0.001 A 
ATOM     10  C   UNL     1      -0.242   0.822   3.097  0.00  0.00    +0.001 A 
ATOM     11  C   UNL     1       0.669   0.479   2.122  0.00  0.00    +0.012 A 
ATOM     12  C   UNL     1       0.314  -0.452   1.147  0.00  0.00    +0.030 A 
ATOM     13  C   UNL     1       1.252  -0.851   0.084  0.00  0.00    +0.166 A 
ATOM     14  N   UNL     1       2.454  -0.311   0.061  0.00  0.00    -0.227 NA
ATOM     15  C   UNL     1       3.360  -0.627  -0.877  0.00  0.00    +0.079 A 
ATOM     16  C   UNL     1       4.635  -0.048  -0.895  0.00  0.00    +0.028 A 
ATOM     17  C   UNL     1       5.523  -0.400  -1.871  0.00  0.00    +0.002 A 
ATOM     18  C   UNL     1       5.181  -1.327  -2.849  0.00  0.00    +0.001 A 
ATOM     19  C   UNL     1       3.946  -1.911  -2.859  0.00  0.00    +0.015 A 
ATOM     20  C   UNL     1       3.017  -1.571  -1.875  0.00  0.00    +0.067 A 
ATOM     21  C   UNL     1       1.676  -2.161  -1.835  0.00  0.00    +0.282 A 
ATOM     22  O   UNL     1       1.327  -2.981  -2.664  0.00  0.00    -0.265 OA
ATOM     23  N   UNL     1       0.839  -1.770  -0.842  0.00  0.00    -0.176 N 
ATOM     24  N   UNL     1      -0.444  -2.326  -0.792  0.00  0.00    -0.146 NA
ATOM     25  N   UNL     1      -5.095  -3.261  -1.032  0.00  0.00    +0.389 N 
ATOM     26  H   UNL     1      -4.963  -2.784  -1.932  0.00  0.00    -0.080 HD
ENDROOT
BRANCH  25  27
ATOM     27  C   UNL     1      -6.429  -3.897  -1.017  0.00  0.00    -0.007 C 
BRANCH  27  31
ATOM     28  C   UNL     1      -9.402  -0.900  -1.669  0.00  0.00    +0.000 A 
ATOM     29  C   UNL     1      -9.592  -1.861  -0.694  0.00  0.00    +0.000 A 
ATOM     30  C   UNL     1      -8.630  -2.831  -0.483  0.00  0.00    +0.002 A 
ATOM     31  C   UNL     1      -7.478  -2.840  -1.247  0.00  0.00    -0.057 A 
ATOM     32  C   UNL     1      -7.286  -1.876  -2.219  0.00  0.00    +0.002 A 
ATOM     33  C   UNL     1      -8.250  -0.909  -2.433  0.00  0.00    +0.000 A 
ENDBRANCH  27  31
BRANCH  27  34
ATOM     34  C   UNL     1      -6.497  -4.921  -2.120  0.00  0.00    -0.057 A 
ATOM     35  C   UNL     1      -6.044  -4.603  -3.387  0.00  0.00    +0.002 A 
ATOM     36  C   UNL     1      -6.102  -5.544  -4.398  0.00  0.00    +0.000 A 
ATOM     37  C   UNL     1      -6.622  -6.799  -4.146  0.00  0.00    +0.000 A 
ATOM     38  C   UNL     1      -7.080  -7.115  -2.881  0.00  0.00    +0.000 A 
ATOM     39  C   UNL     1      -7.018  -6.176  -1.868  0.00  0.00    +0.002 A 
ENDBRANCH  27  34
ENDBRANCH  25  27
TORSDOF 3
