REMARK  Name = ZINC52094900
REMARK  3 active torsions:
REMARK  status: ('A' for Active; 'I' for Inactive)
REMARK    1  A    between atoms: C_5  and  C_6
REMARK    2  A    between atoms: C_6  and  C_8
REMARK    3  A    between atoms: C_6  and  O_21
REMARK                            x       y       z     vdW  Elec       q    Type
REMARK                         _______ _______ _______ _____ _____    ______ ____
ROOT
ATOM      1  C   UNL     1      -1.448  -1.393   1.425  0.00  0.00    +0.002 A 
ATOM      2  C   UNL     1      -0.895  -2.557   1.922  0.00  0.00    +0.035 A 
ATOM      3  C   UNL     1      -1.164  -2.947   3.225  0.00  0.00    +0.067 A 
ATOM      4  C   UNL     1      -1.993  -2.162   4.029  0.00  0.00    +0.068 A 
ATOM      5  C   UNL     1      -2.543  -0.996   3.522  0.00  0.00    +0.043 A 
ATOM      6  C   UNL     1      -2.265  -0.612   2.224  0.00  0.00    +0.026 A 
ATOM      7 BR   UNL     1      -3.010   0.984   1.534  0.00  0.00    -0.050 Br
ATOM      8  N   UNL     1      -2.075  -2.800   5.265  0.00  0.00    -0.306 N 
ATOM      9  H   UNL     1      -2.582  -2.489   6.031  0.00  0.00    +0.170 HD
ATOM     10  C   UNL     1      -1.331  -3.921   5.215  0.00  0.00    +0.325 A 
ATOM     11  O   UNL     1      -1.189  -4.709   6.131  0.00  0.00    -0.247 OA
ATOM     12  N   UNL     1      -0.768  -4.037   3.997  0.00  0.00    -0.306 N 
ATOM     13  H   UNL     1      -0.187  -4.758   3.707  0.00  0.00    +0.170 HD
ENDROOT
BRANCH   1  14
ATOM     14  C   UNL     1      -1.156  -0.969   0.009  0.00  0.00    +0.182 C 
BRANCH  14  19
ATOM     15  C   UNL     1      -0.016   1.351   0.009  0.00  0.00    +0.015 A 
ATOM     16  C   UNL     1       1.183   2.038   0.002  0.00  0.00    +0.023 A 
ATOM     17  C   UNL     1       2.343   1.335  -0.013  0.00  0.00    +0.055 A 
ATOM     18  S   UNL     1       1.753  -0.350  -0.017  0.00  0.00    -0.083 S 
ATOM     19  C   UNL     1       0.002  -0.004   0.002  0.00  0.00    +0.024 A 
ATOM     20 BR   UNL     1       4.123   1.974  -0.027  0.00  0.00    -0.043 Br
ENDBRANCH  14  19
BRANCH  14  21
ATOM     21  O   UNL     1      -0.823  -2.117  -0.774  0.00  0.00    -0.382 OA
ATOM     22  H   UNL     1      -0.048  -2.600  -0.455  0.00  0.00    +0.211 HD
ENDBRANCH  14  21
ENDBRANCH   1  14
TORSDOF 3
