REMARK  Name = ZINC67413542
REMARK  11 active torsions:
REMARK  status: ('A' for Active; 'I' for Inactive)
REMARK    1  A    between atoms: C_1  and  C_2
REMARK    2  A    between atoms: N_4  and  C_5
REMARK    3  A    between atoms: C_5  and  C_6
REMARK    4  A    between atoms: N_11  and  C_13
REMARK    5  A    between atoms: C_13  and  C_14
REMARK    6  A    between atoms: N_19  and  C_22
REMARK    7  A    between atoms: C_22  and  C_23
REMARK    8  A    between atoms: N_25  and  C_26
REMARK    9  A    between atoms: C_26  and  C_27
REMARK   10  A    between atoms: C_26  and  C_28
REMARK   11  A    between atoms: C_26  and  C_29
REMARK                            x       y       z     vdW  Elec       q    Type
REMARK                         _______ _______ _______ _____ _____    ______ ____
ROOT
ATOM      1  C   UNL     1      -0.406  -6.592  -5.445  0.00  0.00    +0.199 C 
ATOM      2  O   UNL     1      -0.361  -5.799  -6.362  0.00  0.00    -0.278 OA
ATOM      3  N   UNL     1      -0.578  -7.904  -5.697  0.00  0.00    -0.301 N 
ATOM      4  C   UNL     1      -0.641  -8.882  -4.599  0.00  0.00    +0.123 C 
ATOM      5  C   UNL     1      -1.897  -9.741  -4.784  0.00  0.00    +0.104 C 
ATOM      6  N   UNL     1      -1.895 -10.321  -6.133  0.00  0.00    -0.291 NA
ATOM      7  C   UNL     1      -1.960  -9.276  -7.163  0.00  0.00    +0.104 C 
ATOM      8  C   UNL     1      -0.714  -8.397  -7.076  0.00  0.00    +0.123 C 
ENDROOT
BRANCH   1   9
ATOM      9  C   UNL     1      -0.269  -6.109  -4.024  0.00  0.00    +0.019 C 
BRANCH   9  14
ATOM     10  C   UNL     1       0.013  -2.639  -2.622  0.00  0.00    -0.011 C 
ATOM     11  C   UNL     1       1.310  -2.214  -3.317  0.00  0.00    +0.001 C 
ATOM     12  C   UNL     1       1.328  -2.788  -4.737  0.00  0.00    -0.018 C 
ATOM     13  C   UNL     1       1.178  -4.309  -4.668  0.00  0.00    -0.078 C 
ATOM     14  N   UNL     1      -0.093  -4.650  -4.018  0.00  0.00    +0.386 N 
ATOM     15  C   UNL     1      -0.090  -4.165  -2.632  0.00  0.00    -0.073 C 
ATOM     16  H   UNL     1      -0.854  -4.219  -4.521  0.00  0.00    -0.081 HD
BRANCH  10  17
ATOM     17  C   UNL     1       0.020  -2.136  -1.177  0.00  0.00    +0.105 C 
BRANCH  17  21
ATOM     18  C   UNL     1      -0.018   1.503   0.010  0.00  0.00    +0.109 C 
ATOM     19  C   UNL     1       0.002  -0.004   0.002  0.00  0.00    +0.210 C 
ATOM     20  O   UNL     1       0.020  -0.616   1.049  0.00  0.00    -0.276 OA
ATOM     21  N   UNL     1       0.000  -0.672  -1.169  0.00  0.00    -0.315 N 
ATOM     22  H   UNL     1      -0.015  -0.182  -2.006  0.00  0.00    +0.149 HD
ENDBRANCH  17  21
ENDBRANCH  10  17
ENDBRANCH   9  14
ENDBRANCH   1   9
BRANCH   6  23
ATOM     23  C   UNL     1      -2.990 -11.287  -6.292  0.00  0.00    +0.180 C 
BRANCH  23  24
ATOM     24  C   UNL     1      -2.814 -12.038  -7.587  0.00  0.00    +0.227 C 
ATOM     25  O   UNL     1      -1.869 -11.792  -8.306  0.00  0.00    -0.274 OA
ATOM     26  N   UNL     1      -3.706 -12.982  -7.946  0.00  0.00    -0.310 N 
ATOM     27  H   UNL     1      -4.462 -13.178  -7.370  0.00  0.00    +0.149 HD
BRANCH  26  28
ATOM     28  C   UNL     1      -3.535 -13.711  -9.204  0.00  0.00    +0.026 C 
ATOM     29  C   UNL     1      -2.198 -14.455  -9.185  0.00  0.00    +0.031 C 
ATOM     30  C   UNL     1      -4.676 -14.717  -9.370  0.00  0.00    +0.031 C 
ATOM     31  C   UNL     1      -3.552 -12.724 -10.373  0.00  0.00    +0.031 C 
ENDBRANCH  26  28
ENDBRANCH  23  24
ENDBRANCH   6  23
TORSDOF 7
