REMARK  Name = ZINC35636906
REMARK  9 active torsions:
REMARK  status: ('A' for Active; 'I' for Inactive)
REMARK    1  A    between atoms: C_1  and  C_2
REMARK    2  A    between atoms: C_5  and  C_9
REMARK    3  A    between atoms: C_6  and  C_8
REMARK    4  A    between atoms: N_14  and  C_17
REMARK    5  A    between atoms: C_17  and  C_19
REMARK    6  A    between atoms: C_17  and  C_25
REMARK    7  A    between atoms: N_27  and  C_28
REMARK    8  A    between atoms: N_29  and  C_33
REMARK    9  A    between atoms: C_33  and  C_34
REMARK                            x       y       z     vdW  Elec       q    Type
REMARK                         _______ _______ _______ _____ _____    ______ ____
ROOT
ATOM      1  C   UNL     1      -0.076  -4.308   0.143  0.00  0.00    +0.142 C 
ATOM      2  C   UNL     1       1.385  -4.689   0.269  0.00  0.00    +0.058 C 
ATOM      3  C   UNL     1       1.944  -5.377  -0.747  0.00  0.00    +0.043 C 
ATOM      4  C   UNL     1       3.385  -5.617  -0.357  0.00  0.00    +0.160 C 
ATOM      5  N   UNL     1       3.529  -4.989   0.965  0.00  0.00    -0.277 N 
ATOM      6  C   UNL     1       2.334  -4.461   1.287  0.00  0.00    +0.247 C 
ATOM      7  O   UNL     1       2.102  -3.863   2.322  0.00  0.00    -0.270 OA
ATOM      8  N   UNL     1       1.220  -5.719  -1.853  0.00  0.00    -0.253 N 
ATOM      9  C   UNL     1      -0.073  -5.409  -2.017  0.00  0.00    +0.307 C 
ATOM     10  O   UNL     1      -0.637  -5.756  -3.037  0.00  0.00    -0.252 OA
ATOM     11  N   UNL     1      -0.768  -4.723  -1.089  0.00  0.00    -0.288 N 
ATOM     12  H   UNL     1      -1.704  -4.508  -1.229  0.00  0.00    +0.151 HD
ENDROOT
BRANCH   1  17
ATOM     13  C   UNL     1      -0.459   1.444   0.548  0.00  0.00    +0.044 C 
ATOM     14  C   UNL     1      -0.359  -0.056   0.443  0.00  0.00    -0.050 A 
ATOM     15  C   UNL     1       0.819  -0.642   0.018  0.00  0.00    +0.004 A 
ATOM     16  C   UNL     1       0.911  -2.018  -0.079  0.00  0.00    +0.006 A 
ATOM     17  C   UNL     1      -0.176  -2.808   0.249  0.00  0.00    -0.020 A 
ATOM     18  C   UNL     1      -1.353  -2.222   0.674  0.00  0.00    -0.045 A 
ATOM     19  C   UNL     1      -1.444  -0.846   0.775  0.00  0.00    +0.007 A 
ATOM     20  C   UNL     1      -2.537  -3.083   1.031  0.00  0.00    +0.044 C 
ENDBRANCH   1  17
BRANCH   5  21
ATOM     21  C   UNL     1       4.746  -4.946   1.779  0.00  0.00    +0.193 C 
BRANCH  21  22
ATOM     22  C   UNL     1       5.215  -3.519   1.906  0.00  0.00    -0.018 A 
ATOM     23  C   UNL     1       5.253  -2.702   0.791  0.00  0.00    +0.006 A 
ATOM     24  C   UNL     1       5.683  -1.394   0.907  0.00  0.00    +0.000 A 
ATOM     25  C   UNL     1       6.075  -0.902   2.138  0.00  0.00    +0.000 A 
ATOM     26  C   UNL     1       6.036  -1.718   3.253  0.00  0.00    +0.000 A 
ATOM     27  C   UNL     1       5.602  -3.026   3.138  0.00  0.00    +0.006 A 
ENDBRANCH  21  22
BRANCH  21  28
ATOM     28  C   UNL     1       5.820  -5.771   1.120  0.00  0.00    +0.238 C 
ATOM     29  O   UNL     1       5.592  -6.340   0.074  0.00  0.00    -0.273 OA
ATOM     30  N   UNL     1       7.035  -5.878   1.694  0.00  0.00    -0.317 N 
ATOM     31  C   UNL     1       8.080  -6.681   1.054  0.00  0.00    +0.128 C 
ATOM     32  H   UNL     1       7.218  -5.423   2.531  0.00  0.00    +0.148 HD
ENDBRANCH  21  28
ENDBRANCH   5  21
BRANCH   8  33
ATOM     33  C   UNL     1       1.893  -6.466  -2.918  0.00  0.00    +0.141 C 
BRANCH  33  34
ATOM     34  C   UNL     1       1.751  -7.944  -2.662  0.00  0.00    -0.015 C 
ATOM     35  C   UNL     1       1.240  -8.723  -3.583  0.00  0.00    +0.005 C 
ENDBRANCH  33  34
ENDBRANCH   8  33
TORSDOF 6
