REMARK  Name = ZINC44821528
REMARK  11 active torsions:
REMARK  status: ('A' for Active; 'I' for Inactive)
REMARK    1  A    between atoms: C_1  and  C_2
REMARK    2  A    between atoms: C_5  and  C_9
REMARK    3  A    between atoms: C_6  and  C_8
REMARK    4  A    between atoms: C_9  and  C_11
REMARK    5  A    between atoms: C_9  and  N_14
REMARK    6  A    between atoms: C_11  and  C_12
REMARK    7  A    between atoms: C_11  and  C_13
REMARK    8  A    between atoms: C_15  and  C_17
REMARK    9  A    between atoms: N_22  and  C_24
REMARK   10  A    between atoms: C_24  and  C_25
REMARK   11  A    between atoms: C_27  and  C_30
REMARK                            x       y       z     vdW  Elec       q    Type
REMARK                         _______ _______ _______ _____ _____    ______ ____
ROOT
ATOM      1  C   UNL     1       1.238  -7.454  -2.317  0.00  0.00    +0.058 C 
ATOM      2  C   UNL     1       0.007  -7.652  -3.206  0.00  0.00    +0.009 C 
ATOM      3  C   UNL     1       0.386  -8.536  -4.398  0.00  0.00    -0.018 C 
ATOM      4  C   UNL     1       0.949  -9.862  -3.883  0.00  0.00    -0.078 C 
ATOM      5  N   UNL     1       2.139  -9.608  -3.062  0.00  0.00    +0.386 N 
ATOM      6  C   UNL     1       1.770  -8.821  -1.879  0.00  0.00    -0.065 C 
ATOM      7  H   UNL     1       2.818  -9.097  -3.606  0.00  0.00    -0.081 HD
ENDROOT
BRANCH   1   9
ATOM      8  N   UNL     1       0.358  -5.406  -1.245  0.00  0.00    -0.308 N 
ATOM      9  C   UNL     1       0.857  -6.650  -1.101  0.00  0.00    +0.215 C 
ATOM     10  O   UNL     1       0.998  -7.122   0.007  0.00  0.00    -0.276 OA
ATOM     11  H   UNL     1       0.245  -5.028  -2.131  0.00  0.00    +0.149 HD
BRANCH   8  12
ATOM     12  C   UNL     1      -0.012  -4.624  -0.063  0.00  0.00    +0.106 C 
BRANCH  12  17
ATOM     13  C   UNL     1       0.242   1.010  -1.321  0.00  0.00    +0.044 C 
ATOM     14  C   UNL     1       0.176  -0.459  -0.993  0.00  0.00    -0.050 A 
ATOM     15  C   UNL     1      -0.272  -1.359  -1.942  0.00  0.00    +0.004 A 
ATOM     16  C   UNL     1      -0.333  -2.707  -1.641  0.00  0.00    +0.006 A 
ATOM     17  C   UNL     1       0.055  -3.155  -0.391  0.00  0.00    -0.024 A 
ATOM     18  C   UNL     1       0.504  -2.255   0.557  0.00  0.00    -0.045 A 
ATOM     19  C   UNL     1       0.569  -0.907   0.254  0.00  0.00    +0.007 A 
ATOM     20  C   UNL     1       0.926  -2.742   1.919  0.00  0.00    +0.044 C 
ENDBRANCH  12  17
BRANCH  12  21
ATOM     21  C   UNL     1      -1.436  -4.987   0.363  0.00  0.00    +0.008 C 
ATOM     22  C   UNL     1      -1.820  -4.178   1.603  0.00  0.00    +0.009 C 
ATOM     23  C   UNL     1      -2.406  -4.665  -0.776  0.00  0.00    +0.009 C 
ENDBRANCH  12  21
ENDBRANCH   8  12
ENDBRANCH   1   9
BRANCH   5  24
ATOM     24  C   UNL     1       2.720 -10.887  -2.635  0.00  0.00    +0.022 C 
BRANCH  24  25
ATOM     25  C   UNL     1       3.221 -11.639  -3.841  0.00  0.00    +0.211 A 
ATOM     26  N   UNL     1       4.420 -11.559  -4.345  0.00  0.00    -0.193 NA
ATOM     27  C   UNL     1       4.523 -12.365  -5.417  0.00  0.00    +0.202 A 
ATOM     28  N   UNL     1       3.374 -12.967  -5.601  0.00  0.00    -0.056 NA
ATOM     29  O   UNL     1       2.510 -12.507  -4.574  0.00  0.00    -0.340 OA
BRANCH  27  30
ATOM     30  C   UNL     1       5.737 -12.541  -6.253  0.00  0.00    +0.023 A 
ATOM     31  C   UNL     1       6.904 -11.843  -5.948  0.00  0.00    +0.012 A 
ATOM     32  C   UNL     1       8.030 -12.010  -6.728  0.00  0.00    +0.002 A 
ATOM     33  C   UNL     1       8.002 -12.869  -7.812  0.00  0.00    +0.015 A 
ATOM     34  C   UNL     1       6.846 -13.565  -8.120  0.00  0.00    +0.019 A 
ATOM     35  C   UNL     1       5.715 -13.409  -7.342  0.00  0.00    +0.027 A 
ATOM     36 BR   UNL     1       6.817 -14.736  -9.605  0.00  0.00    -0.050 Br
ENDBRANCH  27  30
ENDBRANCH  24  25
ENDBRANCH   5  24
TORSDOF 7
