REMARK  Name = ZINC43210292
REMARK  3 active torsions:
REMARK  status: ('A' for Active; 'I' for Inactive)
REMARK    1  A    between atoms: C_3  and  C_9
REMARK    2  A    between atoms: C_6  and  C_7
REMARK    3  A    between atoms: C_9  and  C_11
REMARK                            x       y       z     vdW  Elec       q    Type
REMARK                         _______ _______ _______ _____ _____    ______ ____
ROOT
ATOM      1  C   UNL     1      -0.023   1.766   0.609  0.00  0.00    +0.019 A 
ATOM      2  C   UNL     1       1.206   2.348   0.391  0.00  0.00    +0.013 A 
ATOM      3  C   UNL     1       2.336   1.547   0.213  0.00  0.00    +0.022 A 
ATOM      4  C   UNL     1       2.220   0.156   0.256  0.00  0.00    +0.013 A 
ATOM      5  C   UNL     1       0.991  -0.426   0.473  0.00  0.00    +0.019 A 
ATOM      6  C   UNL     1      -0.139   0.375   0.652  0.00  0.00    +0.052 A 
ENDROOT
BRANCH   6   7
ATOM      7  C   UNL     1      -1.417  -0.230   0.879  0.00  0.00    +0.099 C 
ATOM      8  N   UNL     1      -2.431  -0.710   1.059  0.00  0.00    -0.191 NA
ENDBRANCH   6   7
BRANCH   3   9
ATOM      9  C   UNL     1       3.656   2.172  -0.021  0.00  0.00    +0.194 C 
ATOM     10  O   UNL     1       4.666   1.631   0.386  0.00  0.00    -0.287 OA
BRANCH   9  11
ATOM     11  C   UNL     1       3.747   3.449  -0.746  0.00  0.00    +0.029 A 
ATOM     12  C   UNL     1       4.996   4.160  -0.871  0.00  0.00    +0.019 A 
ATOM     13  C   UNL     1       4.945   5.317  -1.559  0.00  0.00    +0.046 A 
ATOM     14  S   UNL     1       3.232   5.436  -2.026  0.00  0.00    -0.104 S 
ATOM     15  C   UNL     1       2.643   4.021  -1.343  0.00  0.00    +0.057 A 
ENDBRANCH   9  11
ENDBRANCH   3   9
TORSDOF 3
