REMARK  Name = ZINC44714635
REMARK  9 active torsions:
REMARK  status: ('A' for Active; 'I' for Inactive)
REMARK    1  A    between atoms: C_1  and  C_2
REMARK    2  A    between atoms: C_5  and  C_9
REMARK    3  A    between atoms: C_6  and  C_8
REMARK    4  A    between atoms: C_13  and  C_22
REMARK    5  A    between atoms: N_24  and  C_25
REMARK    6  A    between atoms: C_25  and  C_26
REMARK    7  A    between atoms: C_26  and  C_27
REMARK    8  A    between atoms: C_28  and  C_39
REMARK    9  A    between atoms: C_34  and  C_37
REMARK                            x       y       z     vdW  Elec       q    Type
REMARK                         _______ _______ _______ _____ _____    ______ ____
ROOT
ATOM      1  C   UNL     1       0.150  -4.150  -0.010  0.00  0.00    +0.247 C 
ATOM      2  O   UNL     1       0.263  -4.736   1.049  0.00  0.00    -0.270 OA
ATOM      3  N   UNL     1       0.096  -4.846  -1.163  0.00  0.00    -0.296 N 
ATOM      4  C   UNL     1       0.068  -4.313  -2.546  0.00  0.00    +0.121 C 
ATOM      5  C   UNL     1       0.964  -5.278  -3.354  0.00  0.00    +0.100 C 
ATOM      6  C   UNL     1       0.946  -6.592  -2.556  0.00  0.00    -0.004 C 
ATOM      7  C   UNL     1       0.056  -6.318  -1.335  0.00  0.00    +0.115 C 
ATOM      8  C   UNL     1       2.357  -6.953  -2.101  0.00  0.00    -0.010 C 
ATOM      9  C   UNL     1       2.321  -8.292  -1.359  0.00  0.00    -0.082 C 
ATOM     10  N   UNL     1       1.790  -9.333  -2.248  0.00  0.00    +0.379 N 
ATOM     11  C   UNL     1       0.401  -9.024  -2.606  0.00  0.00    -0.082 C 
ATOM     12  C   UNL     1       0.355  -7.716  -3.401  0.00  0.00    -0.010 C 
ATOM     13  H   UNL     1       2.351  -9.375  -3.086  0.00  0.00    -0.086 HD
ATOM     14  H   UNL     1       1.825 -10.225  -1.777  0.00  0.00    -0.086 HD
ENDROOT
BRANCH   1  19
ATOM     15  C   UNL     1      -0.148   1.596  -0.100  0.00  0.00    +0.044 C 
ATOM     16  C   UNL     1      -0.070   0.091  -0.076  0.00  0.00    -0.050 A 
ATOM     17  C   UNL     1      -0.973  -0.657  -0.811  0.00  0.00    +0.004 A 
ATOM     18  C   UNL     1      -0.907  -2.035  -0.794  0.00  0.00    +0.013 A 
ATOM     19  C   UNL     1       0.074  -2.674  -0.034  0.00  0.00    +0.040 A 
ATOM     20  C   UNL     1       0.982  -1.913   0.705  0.00  0.00    -0.038 A 
ATOM     21  C   UNL     1       0.908  -0.536   0.675  0.00  0.00    +0.007 A 
ATOM     22  C   UNL     1       2.044  -2.595   1.528  0.00  0.00    +0.044 C 
ENDBRANCH   1  19
BRANCH   5  23
ATOM     23  C   UNL     1       2.368  -4.737  -3.447  0.00  0.00    +0.218 C 
ATOM     24  O   UNL     1       2.787  -3.988  -2.590  0.00  0.00    -0.275 OA
ATOM     25  N   UNL     1       3.157  -5.085  -4.482  0.00  0.00    -0.315 N 
ATOM     26  H   UNL     1       2.822  -5.684  -5.168  0.00  0.00    +0.149 HD
BRANCH  25  27
ATOM     27  C   UNL     1       4.522  -4.559  -4.573  0.00  0.00    +0.109 C 
BRANCH  27  28
ATOM     28  C   UNL     1       5.196  -5.106  -5.832  0.00  0.00    +0.056 C 
BRANCH  28  29
ATOM     29  C   UNL     1       6.600  -4.565  -5.925  0.00  0.00    -0.018 A 
ATOM     30  C   UNL     1       6.980  -3.429  -6.531  0.00  0.00    +0.017 A 
ATOM     31  N   UNL     1       8.333  -3.265  -6.410  0.00  0.00    -0.358 N 
ATOM     32  H   UNL     1       8.837  -2.518  -6.767  0.00  0.00    +0.166 HD
ATOM     33  C   UNL     1       8.872  -4.316  -5.706  0.00  0.00    +0.047 A 
ATOM     34  C   UNL     1       7.809  -5.175  -5.366  0.00  0.00    +0.004 A 
ATOM     35  C   UNL     1       8.058  -6.336  -4.637  0.00  0.00    +0.029 A 
ATOM     36  C   UNL     1       9.361  -6.633  -4.249  0.00  0.00    +0.052 A 
ATOM     37  C   UNL     1      10.410  -5.768  -4.592  0.00  0.00    +0.021 A 
ATOM     38  C   UNL     1      10.169  -4.634  -5.310  0.00  0.00    +0.027 A 
ATOM     39  C   UNL     1       6.053  -2.476  -7.241  0.00  0.00    +0.063 C 
BRANCH  36  40
ATOM     40  C   UNL     1       9.631  -7.823  -3.500  0.00  0.00    +0.099 C 
ATOM     41  N   UNL     1       9.845  -8.767  -2.905  0.00  0.00    -0.191 NA
ENDBRANCH  36  40
ENDBRANCH  28  29
ENDBRANCH  27  28
ENDBRANCH  25  27
ENDBRANCH   5  23
TORSDOF 6
