REMARK  Name = ZINC21219774
REMARK  13 active torsions:
REMARK  status: ('A' for Active; 'I' for Inactive)
REMARK    1  A    between atoms: C_1  and  C_2
REMARK    2  A    between atoms: C_2  and  O_3
REMARK    3  A    between atoms: O_3  and  C_4
REMARK    4  A    between atoms: C_5  and  C_12
REMARK    5  A    between atoms: C_9  and  O_10
REMARK    6  A    between atoms: O_10  and  C_11
REMARK    7  A    between atoms: C_17  and  C_22
REMARK    8  A    between atoms: C_24  and  O_32
REMARK    9  A    between atoms: C_25  and  O_30
REMARK   10  A    between atoms: C_26  and  O_28
REMARK   11  A    between atoms: O_28  and  C_29
REMARK   12  A    between atoms: O_30  and  C_31
REMARK   13  A    between atoms: O_32  and  C_33
REMARK                            x       y       z     vdW  Elec       q    Type
REMARK                         _______ _______ _______ _____ _____    ______ ____
ROOT
ATOM      1  C   UNL     1       1.636   9.294  -2.909  0.00  0.00    +0.140 C 
ATOM      2  C   UNL     1       1.057   8.392  -1.845  0.00  0.00    +0.037 C 
ATOM      3  C   UNL     1      -0.175   7.857  -1.851  0.00  0.00    +0.017 C 
ATOM      4  C   UNL     1      -0.634   6.963  -0.710  0.00  0.00    +0.059 C 
ATOM      5  C   UNL     1       0.556   6.198  -0.134  0.00  0.00    +0.032 C 
ATOM      6  C   UNL     1       1.577   7.227   0.366  0.00  0.00    +0.088 C 
ATOM      7  C   UNL     1       1.947   8.122  -0.778  0.00  0.00    +0.163 C 
ATOM      8  O   UNL     1       3.049   8.634  -0.791  0.00  0.00    -0.292 OA
ATOM      9  N   UNL     1      -1.107   8.059  -2.817  0.00  0.00    -0.316 N 
ATOM     10  C   UNL     1      -0.867   7.981  -4.186  0.00  0.00    +0.052 A 
ATOM     11  C   UNL     1      -1.489   7.047  -4.995  0.00  0.00    +0.025 A 
ATOM     12  C   UNL     1      -1.267   7.080  -6.362  0.00  0.00    +0.002 A 
ATOM     13  C   UNL     1      -0.430   8.036  -6.909  0.00  0.00    +0.002 A 
ATOM     14  C   UNL     1       0.211   8.954  -6.096  0.00  0.00    +0.025 A 
ATOM     15  C   UNL     1       0.006   8.913  -4.725  0.00  0.00    +0.049 A 
ATOM     16  N   UNL     1       0.669   9.786  -3.867  0.00  0.00    -0.331 N 
ATOM     17  H   UNL     1      -2.143   8.307  -2.540  0.00  0.00    +0.152 HD
ATOM     18  H   UNL     1       0.451  10.863  -3.925  0.00  0.00    +0.147 HD
ENDROOT
BRANCH   1  20
ATOM     19  C   UNL     1       3.622   9.212  -4.435  0.00  0.00    +0.167 A 
ATOM     20  C   UNL     1       2.700   8.532  -3.655  0.00  0.00    +0.023 A 
ATOM     21  C   UNL     1       2.753   7.153  -3.567  0.00  0.00    +0.009 A 
ATOM     22  C   UNL     1       3.728   6.451  -4.250  0.00  0.00    +0.004 A 
ATOM     23  C   UNL     1       4.653   7.123  -5.026  0.00  0.00    +0.049 A 
ATOM     24  C   UNL     1       4.606   8.505  -5.119  0.00  0.00    +0.162 A 
BRANCH  24  25
ATOM     25  O   UNL     1       5.516   9.169  -5.881  0.00  0.00    -0.491 OA
ATOM     26  C   UNL     1       6.494   8.378  -6.560  0.00  0.00    +0.277 C 
ENDBRANCH  24  25
BRANCH  19  27
ATOM     27  O   UNL     1       3.568  10.568  -4.527  0.00  0.00    -0.488 OA
BRANCH  27  29
ATOM     28  C   UNL     1       4.120  12.806  -3.803  0.00  0.00    +0.048 C 
ATOM     29  C   UNL     1       4.407  11.312  -3.642  0.00  0.00    +0.226 C 
ENDBRANCH  27  29
ENDBRANCH  19  27
ENDBRANCH   1  20
BRANCH   5  30
ATOM     30  C   UNL     1       0.100   5.333   1.013  0.00  0.00    -0.036 A 
ATOM     31  C   UNL     1      -0.504   5.910   2.115  0.00  0.00    +0.053 A 
ATOM     32  C   UNL     1      -0.924   5.118   3.172  0.00  0.00    +0.165 A 
ATOM     33  C   UNL     1      -0.744   3.741   3.121  0.00  0.00    +0.204 A 
ATOM     34  C   UNL     1      -0.132   3.165   2.014  0.00  0.00    +0.165 A 
ATOM     35  C   UNL     1       0.286   3.964   0.961  0.00  0.00    +0.053 A 
BRANCH  34  36
ATOM     36  O   UNL     1       0.052   1.818   1.961  0.00  0.00    -0.491 OA
ATOM     37  C   UNL     1       0.682   1.295   0.790  0.00  0.00    +0.277 C 
ENDBRANCH  34  36
BRANCH  33  38
ATOM     38  O   UNL     1      -1.160   2.959   4.154  0.00  0.00    -0.488 OA
ATOM     39  C   UNL     1      -0.222   2.720   5.206  0.00  0.00    +0.277 C 
ENDBRANCH  33  38
BRANCH  32  40
ATOM     40  O   UNL     1      -1.517   5.687   4.255  0.00  0.00    -0.491 OA
ATOM     41  C   UNL     1      -1.675   7.107   4.237  0.00  0.00    +0.277 C 
ENDBRANCH  32  40
ENDBRANCH   5  30
TORSDOF 8
