REMARK  Name = ZINC08843206
REMARK  7 active torsions:
REMARK  status: ('A' for Active; 'I' for Inactive)
REMARK    1  A    between atoms: C_1  and  C_2
REMARK    2  A    between atoms: C_6  and  N_8
REMARK    3  A    between atoms: C_12  and  C_13
REMARK    4  A    between atoms: C_16  and  O_20
REMARK    5  A    between atoms: O_20  and  C_21
REMARK    6  A    between atoms: C_21  and  C_22
REMARK    7  A    between atoms: C_27  and  C_28
REMARK                            x       y       z     vdW  Elec       q    Type
REMARK                         _______ _______ _______ _____ _____    ______ ____
ROOT
ATOM      1  N   UNL     1       3.538   7.424  -0.308  0.00  0.00    -0.190 N 
ATOM      2  C   UNL     1       3.618   6.162   0.162  0.00  0.00    +0.263 C 
ATOM      3  O   UNL     1       4.687   5.682   0.486  0.00  0.00    -0.269 OA
ATOM      4  C   UNL     1       2.372   5.378   0.268  0.00  0.00    +0.100 C 
ATOM      5  C   UNL     1       2.375   4.078   0.735  0.00  0.00    +0.026 C 
ATOM      6  C   UNL     1       1.121   6.048  -0.142  0.00  0.00    +0.257 C 
ATOM      7  O   UNL     1       0.053   5.469  -0.078  0.00  0.00    -0.270 OA
ATOM      8  N   UNL     1       1.195   7.319  -0.588  0.00  0.00    -0.235 N 
ATOM      9  C   UNL     1       2.365   7.968  -0.662  0.00  0.00    +0.320 C 
ATOM     10  O   UNL     1       2.363   9.112  -1.073  0.00  0.00    -0.251 OA
ATOM     11  H   UNL     1       0.383   7.773  -0.861  0.00  0.00    +0.159 HD
ENDROOT
BRANCH   1  17
ATOM     12  C   UNL     1       7.535   8.682  -2.883  0.00  0.00    +0.044 C 
ATOM     13  C   UNL     1       6.664   8.815  -1.661  0.00  0.00    -0.049 A 
ATOM     14  C   UNL     1       7.019   9.691  -0.651  0.00  0.00    +0.003 A 
ATOM     15  C   UNL     1       6.222   9.817   0.471  0.00  0.00    +0.002 A 
ATOM     16  C   UNL     1       5.067   9.067   0.588  0.00  0.00    +0.024 A 
ATOM     17  C   UNL     1       4.708   8.187  -0.424  0.00  0.00    +0.046 A 
ATOM     18  C   UNL     1       5.514   8.059  -1.548  0.00  0.00    +0.027 A 
ENDBRANCH   1  17
BRANCH   5  19
ATOM     19  C   UNL     1       1.179   3.247   0.594  0.00  0.00    -0.023 A 
ATOM     20  C   UNL     1       0.454   3.255  -0.608  0.00  0.00    +0.011 A 
ATOM     21  C   UNL     1      -0.661   2.478  -0.736  0.00  0.00    +0.047 A 
ATOM     22  C   UNL     1      -1.087   1.681   0.322  0.00  0.00    +0.135 A 
ATOM     23  C   UNL     1      -0.373   1.661   1.517  0.00  0.00    +0.060 A 
ATOM     24  C   UNL     1       0.752   2.439   1.659  0.00  0.00    +0.027 A 
ATOM     25 BR   UNL     1      -0.955   0.569   2.947  0.00  0.00    -0.046 Br
BRANCH  22  26
ATOM     26  O   UNL     1      -2.200   0.917   0.186  0.00  0.00    -0.486 OA
BRANCH  26  27
ATOM     27  C   UNL     1      -2.882   0.980  -1.068  0.00  0.00    +0.265 C 
BRANCH  27  28
ATOM     28  C   UNL     1      -4.084   0.072  -1.032  0.00  0.00    +0.007 A 
ATOM     29  C   UNL     1      -4.365  -0.660   0.103  0.00  0.00    +0.008 A 
ATOM     30  C   UNL     1      -5.470  -1.491   0.139  0.00  0.00    +0.000 A 
ATOM     31  C   UNL     1      -6.296  -1.601  -0.966  0.00  0.00    +0.001 A 
ATOM     32  C   UNL     1      -6.025  -0.879  -2.109  0.00  0.00    +0.019 A 
ATOM     33  C   UNL     1      -4.913  -0.035  -2.150  0.00  0.00    +0.058 A 
BRANCH  33  34
ATOM     34  C   UNL     1      -4.625   0.717  -3.334  0.00  0.00    +0.100 C 
ATOM     35  N   UNL     1      -4.396   1.314  -4.274  0.00  0.00    -0.191 NA
ENDBRANCH  33  34
ENDBRANCH  27  28
ENDBRANCH  26  27
ENDBRANCH  22  26
ENDBRANCH   5  19
TORSDOF 6
