REMARK  Name = ZINC35456790
REMARK  11 active torsions:
REMARK  status: ('A' for Active; 'I' for Inactive)
REMARK    1  A    between atoms: C_1  and  C_2
REMARK    2  A    between atoms: C_2  and  C_3
REMARK    3  A    between atoms: C_7  and  C_36
REMARK    4  A    between atoms: C_8  and  N_9
REMARK    5  A    between atoms: C_10  and  C_12
REMARK    6  A    between atoms: C_12  and  N_13
REMARK    7  A    between atoms: C_19  and  C_20
REMARK    8  A    between atoms: C_23  and  C_26
REMARK    9  A    between atoms: C_31  and  O_33
REMARK   10  A    between atoms: O_33  and  C_34
REMARK   11  A    between atoms: C_34  and  C_35
REMARK                            x       y       z     vdW  Elec       q    Type
REMARK                         _______ _______ _______ _____ _____    ______ ____
ROOT
ATOM      1  N   UNL     1       5.954  -0.756   1.328  0.00  0.00    -0.284 N 
ATOM      2  C   UNL     1       6.408  -1.971   1.694  0.00  0.00    +0.258 A 
ATOM      3  O   UNL     1       5.707  -2.721   2.353  0.00  0.00    -0.267 OA
ATOM      4  C   UNL     1       7.709  -2.366   1.303  0.00  0.00    +0.041 A 
ATOM      5  C   UNL     1       8.454  -1.511   0.558  0.00  0.00    +0.069 A 
ATOM      6  N   UNL     1       7.958  -0.313   0.227  0.00  0.00    -0.232 NA
ATOM      7  C   UNL     1       6.752   0.064   0.588  0.00  0.00    +0.144 A 
ATOM      8  C   UNL     1       9.835  -1.861   0.063  0.00  0.00    +0.167 C 
ATOM      9  N   UNL     1      10.310  -3.073   0.740  0.00  0.00    -0.261 N 
ATOM     10  C   UNL     1       9.360  -4.190   0.873  0.00  0.00    +0.116 C 
ATOM     11  C   UNL     1       8.200  -3.716   1.748  0.00  0.00    +0.061 C 
ATOM     12  C   UNL     1      11.566  -3.159   1.222  0.00  0.00    +0.403 C 
ATOM     13  O   UNL     1      11.934  -4.174   1.779  0.00  0.00    -0.226 OA
ENDROOT
BRANCH   7  14
ATOM     14  C   UNL     1       6.257   1.398   0.191  0.00  0.00    +0.018 A 
ATOM     15  C   UNL     1       5.754   2.275   1.155  0.00  0.00    +0.012 A 
ATOM     16  C   UNL     1       5.293   3.519   0.777  0.00  0.00    +0.004 A 
ATOM     17  C   UNL     1       5.327   3.899  -0.553  0.00  0.00    -0.050 A 
ATOM     18  C   UNL     1       5.824   3.034  -1.513  0.00  0.00    +0.004 A 
ATOM     19  C   UNL     1       6.294   1.790  -1.149  0.00  0.00    +0.012 A 
ATOM     20  C   UNL     1       4.822   5.259  -0.958  0.00  0.00    +0.044 C 
ENDBRANCH   7  14
BRANCH   1  21
ATOM     21  C   UNL     1       4.610  -0.323   1.718  0.00  0.00    +0.222 C 
BRANCH  21  23
ATOM     22  N   UNL     1       2.341  -0.294   0.733  0.00  0.00    -0.284 N 
ATOM     23  C   UNL     1       3.644  -0.611   0.597  0.00  0.00    +0.237 C 
ATOM     24  O   UNL     1       4.040  -1.127  -0.426  0.00  0.00    -0.274 OA
ATOM     25  H   UNL     1       2.033   0.160   1.532  0.00  0.00    +0.155 HD
BRANCH  22  31
ATOM     26  C   UNL     1       0.508   0.318  -0.717  0.00  0.00    -0.026 A 
ATOM     27  C   UNL     1      -0.383  -0.007  -1.720  0.00  0.00    +0.005 A 
ATOM     28  C   UNL     1      -0.359  -1.268  -2.287  0.00  0.00    +0.001 A 
ATOM     29  C   UNL     1       0.557  -2.208  -1.851  0.00  0.00    +0.005 A 
ATOM     30  C   UNL     1       1.451  -1.889  -0.848  0.00  0.00    -0.029 A 
ATOM     31  C   UNL     1       1.433  -0.622  -0.280  0.00  0.00    +0.040 A 
ATOM     32  C   UNL     1       2.449  -2.914  -0.373  0.00  0.00    +0.045 C 
BRANCH  26  34
ATOM     33  C   UNL     1       1.504   2.587  -0.804  0.00  0.00    +0.009 C 
ATOM     34  C   UNL     1       0.482   1.692  -0.100  0.00  0.00    +0.033 C 
ENDBRANCH  26  34
ENDBRANCH  22  31
ENDBRANCH  21  23
ENDBRANCH   1  21
BRANCH  12  35
ATOM     35  O   UNL     1      12.412  -2.121   1.086  0.00  0.00    -0.451 OA
BRANCH  35  36
ATOM     36  C   UNL     1      13.728  -2.282   1.620  0.00  0.00    +0.230 C 
ATOM     37  C   UNL     1      14.538  -1.008   1.372  0.00  0.00    +0.048 C 
ENDBRANCH  35  36
ENDBRANCH  12  35
TORSDOF 7
