REMARK  Name = ZINC44022035
REMARK  4 active torsions:
REMARK  status: ('A' for Active; 'I' for Inactive)
REMARK    1  A    between atoms: C_3  and  C_10
REMARK    2  A    between atoms: C_11  and  C_12
REMARK    3  A    between atoms: C_11  and  C_14
REMARK    4  A    between atoms: N_16  and  C_17
REMARK                            x       y       z     vdW  Elec       q    Type
REMARK                         _______ _______ _______ _____ _____    ______ ____
ROOT
ATOM      1  C   UNL     1       3.645   2.170  -0.021  0.00  0.00    +0.035 C 
ATOM      2  C   UNL     1       3.624   3.544  -0.118  0.00  0.00    +0.114 C 
ENDROOT
BRANCH   1   5
ATOM      3  C   UNL     1       0.241   1.317   1.288  0.00  0.00    +0.004 A 
ATOM      4  C   UNL     1       1.403   2.011   1.040  0.00  0.00    +0.012 A 
ATOM      5  C   UNL     1       2.406   1.436   0.247  0.00  0.00    +0.022 A 
ATOM      6  C   UNL     1       2.216   0.151  -0.289  0.00  0.00    +0.173 A 
ATOM      7  C   UNL     1       1.034  -0.535  -0.027  0.00  0.00    +0.167 A 
ATOM      8  C   UNL     1       0.054   0.050   0.758  0.00  0.00    +0.049 A 
ATOM      9  O   UNL     1       1.088  -1.748  -0.652  0.00  0.00    -0.453 OA
ATOM     10  C   UNL     1       2.137  -1.629  -1.631  0.00  0.00    +0.466 C 
ATOM     11  O   UNL     1       3.009  -0.627  -1.075  0.00  0.00    -0.452 OA
ENDBRANCH   1   5
BRANCH   2  12
ATOM     12  C   UNL     1       4.885   4.292  -0.238  0.00  0.00    +0.255 C 
ATOM     13  O   UNL     1       5.946   3.697  -0.251  0.00  0.00    -0.269 OA
ATOM     14  N   UNL     1       4.865   5.636  -0.333  0.00  0.00    -0.308 N 
ATOM     15  H   UNL     1       4.019   6.111  -0.322  0.00  0.00    +0.149 HD
BRANCH  14  16
ATOM     16  C   UNL     1       6.121   6.381  -0.452  0.00  0.00    +0.073 C 
ATOM     17  C   UNL     1       6.548   6.431  -1.920  0.00  0.00    +0.022 C 
ATOM     18  C   UNL     1       7.859   7.208  -2.044  0.00  0.00    +0.002 C 
ATOM     19  C   UNL     1       7.658   8.633  -1.523  0.00  0.00    +0.000 C 
ATOM     20  C   UNL     1       7.232   8.584  -0.055  0.00  0.00    +0.002 C 
ATOM     21  C   UNL     1       5.920   7.806   0.069  0.00  0.00    +0.022 C 
ENDBRANCH  14  16
ENDBRANCH   2  12
BRANCH   2  22
ATOM     22  C   UNL     1       2.375   4.244  -0.103  0.00  0.00    +0.104 C 
ATOM     23  N   UNL     1       1.384   4.800  -0.091  0.00  0.00    -0.191 NA
ENDBRANCH   2  22
TORSDOF 4
