REMARK  Name = ZINC38660914
REMARK  12 active torsions:
REMARK  status: ('A' for Active; 'I' for Inactive)
REMARK    1  A    between atoms: C_1  and  C_2
REMARK    2  A    between atoms: C_2  and  C_3
REMARK    3  A    between atoms: C_3  and  O_4
REMARK    4  A    between atoms: O_4  and  C_5
REMARK    5  A    between atoms: C_9  and  C_11
REMARK    6  A    between atoms: C_11  and  O_13
REMARK    7  A    between atoms: O_13  and  C_14
REMARK    8  A    between atoms: C_21  and  N_40
REMARK    9  A    between atoms: C_22  and  C_38
REMARK   10  A    between atoms: C_23  and  C_25
REMARK   11  A    between atoms: C_29  and  O_31
REMARK   12  A    between atoms: O_31  and  C_32
REMARK                            x       y       z     vdW  Elec       q    Type
REMARK                         _______ _______ _______ _____ _____    ______ ____
ROOT
ATOM      1  C   UNL     1       3.120  -8.132  -4.836  0.00  0.00    +0.135 A 
ATOM      2  C   UNL     1       2.514  -8.919  -3.867  0.00  0.00    +0.047 A 
ATOM      3  C   UNL     1       2.553 -10.295  -3.972  0.00  0.00    +0.012 A 
ATOM      4  C   UNL     1       3.194 -10.895  -5.042  0.00  0.00    +0.008 A 
ATOM      5  C   UNL     1       3.801 -10.114  -6.013  0.00  0.00    +0.138 A 
ATOM      6  C   UNL     1       3.758  -8.729  -5.911  0.00  0.00    +0.093 A 
ATOM      7  O   UNL     1       4.433 -10.683  -7.068  0.00  0.00    -0.441 OA
ATOM      8  C   UNL     1       4.819 -11.968  -7.005  0.00  0.00    +0.199 C 
ATOM      9  C   UNL     1       4.284 -12.833  -6.111  0.00  0.00    +0.098 C 
ATOM     10  C   UNL     1       3.225 -12.397  -5.139  0.00  0.00    +0.098 C 
ENDROOT
BRANCH  10  11
ATOM     11  C   UNL     1       1.881 -12.895  -5.607  0.00  0.00    -0.031 A 
ATOM     12  C   UNL     1       1.386 -12.493  -6.834  0.00  0.00    +0.005 A 
ATOM     13  C   UNL     1       0.154 -12.948  -7.267  0.00  0.00    +0.004 A 
ATOM     14  C   UNL     1      -0.585 -13.805  -6.475  0.00  0.00    +0.046 A 
ATOM     15  C   UNL     1      -0.090 -14.209  -5.243  0.00  0.00    +0.129 A 
ATOM     16  C   UNL     1       1.149 -13.756  -4.813  0.00  0.00    +0.050 A 
BRANCH  15  17
ATOM     17  O   UNL     1      -0.815 -15.052  -4.462  0.00  0.00    -0.456 OA
BRANCH  17  18
ATOM     18  C   UNL     1      -0.351 -15.321  -3.213  0.00  0.00    +0.128 A 
ATOM     19  C   UNL     1      -0.331 -14.322  -2.249  0.00  0.00    +0.046 A 
ATOM     20  C   UNL     1       0.141 -14.598  -0.981  0.00  0.00    +0.004 A 
ATOM     21  C   UNL     1       0.592 -15.868  -0.670  0.00  0.00    +0.000 A 
ATOM     22  C   UNL     1       0.573 -16.865  -1.629  0.00  0.00    +0.004 A 
ATOM     23  C   UNL     1       0.096 -16.596  -2.897  0.00  0.00    +0.046 A 
ENDBRANCH  17  18
ENDBRANCH  15  17
ENDBRANCH  10  11
BRANCH   8  24
ATOM     24  N   UNL     1       5.782 -12.418  -7.873  0.00  0.00    -0.328 N 
ATOM     25  H   UNL     1       6.175 -11.810  -8.519  0.00  0.00    +0.145 HD
ATOM     26  H   UNL     1       6.071 -13.343  -7.840  0.00  0.00    +0.145 HD
ENDBRANCH   8  24
BRANCH   9  27
ATOM     27  C   UNL     1       4.737 -14.192  -6.093  0.00  0.00    +0.101 C 
ATOM     28  N   UNL     1       5.096 -15.269  -6.078  0.00  0.00    -0.191 NA
ENDBRANCH   9  27
BRANCH   1  29
ATOM     29  O   UNL     1       3.083  -6.777  -4.734  0.00  0.00    -0.422 OA
BRANCH  29  30
ATOM     30  C   UNL     1       3.897  -6.188  -3.836  0.00  0.00    +0.345 C 
ATOM     31  O   UNL     1       4.567  -6.869  -3.085  0.00  0.00    -0.245 OA
BRANCH  30  36
ATOM     32  C   UNL     1       4.882  -2.720  -2.772  0.00  0.00    +0.121 A 
ATOM     33  C   UNL     1       4.114  -1.948  -3.633  0.00  0.00    +0.046 A 
ATOM     34  C   UNL     1       3.279  -2.554  -4.554  0.00  0.00    +0.004 A 
ATOM     35  C   UNL     1       3.205  -3.930  -4.625  0.00  0.00    +0.015 A 
ATOM     36  C   UNL     1       3.974  -4.715  -3.763  0.00  0.00    +0.063 A 
ATOM     37  C   UNL     1       4.820  -4.102  -2.837  0.00  0.00    +0.060 A 
BRANCH  32  38
ATOM     38  O   UNL     1       5.701  -2.120  -1.868  0.00  0.00    -0.492 OA
BRANCH  38  39
ATOM     39  C   UNL     1       5.715  -0.691  -1.856  0.00  0.00    +0.229 C 
BRANCH  39  41
ATOM     40  C   UNL     1       6.704   1.330  -0.768  0.00  0.00    +0.007 C 
ATOM     41  C   UNL     1       6.688  -0.200  -0.781  0.00  0.00    +0.038 C 
ENDBRANCH  39  41
ENDBRANCH  38  39
ENDBRANCH  32  38
ENDBRANCH  30  36
ENDBRANCH  29  30
ENDBRANCH   1  29
TORSDOF 11
