REMARK  Name = ZINC17186415
REMARK  10 active torsions:
REMARK  status: ('A' for Active; 'I' for Inactive)
REMARK    1  A    between atoms: C_1  and  C_2
REMARK    2  A    between atoms: C_3  and  C_34
REMARK    3  A    between atoms: N_4  and  C_28
REMARK    4  A    between atoms: C_5  and  N_9
REMARK    5  A    between atoms: C_6  and  C_7
REMARK    6  A    between atoms: C_10  and  C_12
REMARK    7  A    between atoms: C_12  and  S_13
REMARK    8  A    between atoms: S_13  and  C_14
REMARK    9  A    between atoms: C_19  and  C_22
REMARK   10  A    between atoms: C_28  and  C_29
REMARK                            x       y       z     vdW  Elec       q    Type
REMARK                         _______ _______ _______ _____ _____    ______ ____
ROOT
ATOM      1  N   UNL     1       3.780   1.170   1.759  0.00  0.00    -0.270 N 
ATOM      2  C   UNL     1       4.315   2.332   1.335  0.00  0.00    +0.229 C 
ATOM      3  O   UNL     1       3.611   3.311   1.202  0.00  0.00    -0.275 OA
ATOM      4  H   UNL     1       4.354   0.412   1.948  0.00  0.00    +0.156 HD
ENDROOT
BRANCH   1   9
ATOM      5  C   UNL     1      -1.218   1.754   1.294  0.00  0.00    +0.047 C 
ATOM      6  C   UNL     1       0.147   1.299   1.742  0.00  0.00    -0.011 A 
ATOM      7  C   UNL     1       0.417   0.403   2.706  0.00  0.00    +0.022 A 
ATOM      8  N   UNL     1       1.773   0.256   2.819  0.00  0.00    -0.324 N 
ATOM      9  C   UNL     1       2.407   1.058   1.926  0.00  0.00    +0.124 A 
ATOM     10  C   UNL     1       1.439   1.748   1.210  0.00  0.00    +0.095 A 
ATOM     11  C   UNL     1      -0.611  -0.321   3.536  0.00  0.00    +0.064 C 
BRANCH  10  12
ATOM     12  C   UNL     1       1.656   2.704   0.166  0.00  0.00    +0.103 C 
ATOM     13  N   UNL     1       1.828   3.462  -0.662  0.00  0.00    -0.191 NA
ENDBRANCH  10  12
BRANCH   8  14
ATOM     14  C   UNL     1       2.443  -0.638   3.767  0.00  0.00    +0.197 C 
BRANCH  14  15
ATOM     15  C   UNL     1       2.519  -2.025   3.182  0.00  0.00    +0.124 A 
ATOM     16  C   UNL     1       3.519  -2.504   2.420  0.00  0.00    +0.046 A 
ATOM     17  C   UNL     1       3.183  -3.838   2.095  0.00  0.00    +0.041 A 
ATOM     18  C   UNL     1       1.994  -4.092   2.671  0.00  0.00    +0.195 A 
ATOM     19  O   UNL     1       1.597  -2.990   3.327  0.00  0.00    -0.466 OA
ENDBRANCH  14  15
ENDBRANCH   8  14
ENDBRANCH   1   9
BRANCH   2  20
ATOM     20  C   UNL     1       5.787   2.414   1.025  0.00  0.00    +0.173 C 
BRANCH  20  21
ATOM     21  S   UNL     1       6.198   4.096   0.481  0.00  0.00    -0.076 S 
BRANCH  21  22
ATOM     22  C   UNL     1       7.929   4.030   0.162  0.00  0.00    +0.197 A 
ATOM     23  N   UNL     1       8.700   2.983   0.306  0.00  0.00    -0.121 NA
ATOM     24  N   UNL     1       9.911   3.278  -0.018  0.00  0.00    -0.121 NA
ATOM     25  C   UNL     1       9.975   4.523  -0.373  0.00  0.00    +0.201 A 
ATOM     26  N   UNL     1       8.718   5.079  -0.281  0.00  0.00    -0.264 N 
ATOM     27  C   UNL     1       8.597   6.413  -0.625  0.00  0.00    +0.065 A 
ATOM     28  C   UNL     1       9.677   7.110  -1.028  0.00  0.00    +0.075 A 
ATOM     29  S   UNL     1      10.969   5.880  -0.941  0.00  0.00    -0.055 S 
BRANCH  27  30
ATOM     30  C   UNL     1       7.277   7.077  -0.550  0.00  0.00    -0.001 A 
ATOM     31  C   UNL     1       6.127   6.396  -0.952  0.00  0.00    +0.010 A 
ATOM     32  C   UNL     1       4.898   7.018  -0.873  0.00  0.00    +0.001 A 
ATOM     33  C   UNL     1       4.806   8.319  -0.410  0.00  0.00    +0.000 A 
ATOM     34  C   UNL     1       5.944   9.001  -0.016  0.00  0.00    +0.001 A 
ATOM     35  C   UNL     1       7.178   8.388  -0.083  0.00  0.00    +0.010 A 
ENDBRANCH  27  30
ENDBRANCH  21  22
ENDBRANCH  20  21
ENDBRANCH   2  20
TORSDOF 8
