REMARK  Name = ZINC04396398
REMARK  11 active torsions:
REMARK  status: ('A' for Active; 'I' for Inactive)
REMARK    1  A    between atoms: C_1  and  C_2
REMARK    2  A    between atoms: C_2  and  C_3
REMARK    3  A    between atoms: C_2  and  C_4
REMARK    4  A    between atoms: C_2  and  N_5
REMARK    5  A    between atoms: C_6  and  C_10
REMARK    6  A    between atoms: C_10  and  C_12
REMARK    7  A    between atoms: C_10  and  N_61
REMARK    8  A    between atoms: C_15  and  C_18
REMARK    9  A    between atoms: N_22  and  C_25
REMARK   10  A    between atoms: C_30  and  O_31
REMARK   11  A    between atoms: O_31  and  C_32
REMARK                            x       y       z     vdW  Elec       q    Type
REMARK                         _______ _______ _______ _____ _____    ______ ____
ROOT
ATOM      1  C   UNL     1       3.735   0.655  -0.125  0.00  0.00    +0.033 C 
ENDROOT
BRANCH   1   7
ATOM      2  C   UNL     1       5.481  -0.407  -1.424  0.00  0.00    -0.058 C 
ATOM      3  C   UNL     1       5.745  -1.387  -2.570  0.00  0.00    +0.086 C 
ATOM      4  N   UNL     1       5.144  -0.865  -3.806  0.00  0.00    -0.331 N 
ATOM      5  C   UNL     1       3.695  -0.680  -3.647  0.00  0.00    +0.086 C 
ATOM      6  C   UNL     1       3.432   0.300  -2.501  0.00  0.00    -0.058 C 
ATOM      7  N   UNL     1       4.021  -0.247  -1.261  0.00  0.00    +0.391 N 
ATOM      8  H   UNL     1       3.603  -1.166  -1.070  0.00  0.00    -0.080 HD
BRANCH   4   9
ATOM      9  C   UNL     1       5.427  -1.700  -4.893  0.00  0.00    +0.072 A 
ATOM     10  C   UNL     1       6.024  -2.935  -4.684  0.00  0.00    +0.027 A 
ATOM     11  C   UNL     1       6.298  -3.760  -5.758  0.00  0.00    +0.002 A 
ATOM     12  C   UNL     1       5.987  -3.354  -7.043  0.00  0.00    +0.004 A 
ATOM     13  C   UNL     1       5.396  -2.123  -7.259  0.00  0.00    +0.047 A 
ATOM     14  C   UNL     1       5.114  -1.292  -6.187  0.00  0.00    +0.141 A 
BRANCH  14  15
ATOM     15  O   UNL     1       4.534  -0.080  -6.398  0.00  0.00    -0.493 OA
ATOM     16  C   UNL     1       4.241   0.272  -7.752  0.00  0.00    +0.277 C 
ENDBRANCH  14  15
ENDBRANCH   4   9
ENDBRANCH   1   7
BRANCH   1  17
ATOM     17  C   UNL     1       4.287   0.042   1.137  0.00  0.00    -0.054 A 
ATOM     18  C   UNL     1       3.994  -1.274   1.448  0.00  0.00    +0.004 A 
ATOM     19  C   UNL     1       4.500  -1.843   2.598  0.00  0.00    +0.019 A 
ATOM     20  C   UNL     1       5.298  -1.084   3.456  0.00  0.00    +0.052 A 
ATOM     21  C   UNL     1       5.585   0.245   3.139  0.00  0.00    +0.019 A 
ATOM     22  C   UNL     1       5.078   0.799   1.982  0.00  0.00    +0.004 A 
BRANCH  20  23
ATOM     23  C   UNL     1       5.821  -1.667   4.655  0.00  0.00    +0.099 C 
ATOM     24  N   UNL     1       6.236  -2.128   5.607  0.00  0.00    -0.191 NA
ENDBRANCH  20  23
ENDBRANCH   1  17
BRANCH   1  26
ATOM     25  N   UNL     1       1.562   1.980   0.028  0.00  0.00    -0.225 N 
ATOM     26  C   UNL     1       2.243   0.820   0.008  0.00  0.00    +0.143 A 
ATOM     27  N   UNL     1       1.357  -0.139   0.124  0.00  0.00    -0.115 NA
ATOM     28  N   UNL     1       0.192   0.404   0.212  0.00  0.00    -0.023 NA
ATOM     29  N   UNL     1       0.312   1.685   0.154  0.00  0.00    -0.043 NA
BRANCH  25  31
ATOM     30  C   UNL     1       1.010   4.363   0.018  0.00  0.00    +0.036 C 
ATOM     31  C   UNL     1       2.132   3.326  -0.074  0.00  0.00    +0.059 C 
ATOM     32  C   UNL     1       3.125   3.547   1.069  0.00  0.00    +0.036 C 
ATOM     33  C   UNL     1       2.854   3.473  -1.414  0.00  0.00    +0.036 C 
ENDBRANCH  25  31
ENDBRANCH   1  26
TORSDOF 7
