REMARK  Name = ZINC39480219
REMARK  4 active torsions:
REMARK  status: ('A' for Active; 'I' for Inactive)
REMARK    1  A    between atoms: C_1  and  N_2
REMARK    2  A    between atoms: C_8  and  C_9
REMARK    3  A    between atoms: C_14  and  O_15
REMARK    4  A    between atoms: C_18  and  O_27
REMARK                            x       y       z     vdW  Elec       q    Type
REMARK                         _______ _______ _______ _____ _____    ______ ____
ROOT
ATOM      1  C   UNL     1      -0.249   1.582  -0.362  0.00  0.00    +0.137 C 
ATOM      2  N   UNL     1      -0.135   0.123  -0.296  0.00  0.00    -0.286 N 
ATOM      3  C   UNL     1      -1.335  -0.531  -0.165  0.00  0.00    +0.046 A 
ATOM      4  C   UNL     1      -2.341   0.148   0.493  0.00  0.00    -0.016 A 
ATOM      5  C   UNL     1      -3.660  -0.041   0.306  0.00  0.00    +0.021 A 
ATOM      6  C   UNL     1      -4.022  -1.216  -0.367  0.00  0.00    +0.019 A 
ATOM      7  C   UNL     1      -3.038  -2.087  -0.798  0.00  0.00    +0.025 A 
ATOM      8  C   UNL     1      -1.681  -1.767  -0.713  0.00  0.00    +0.008 A 
ATOM      9 BR   UNL     1      -5.845  -1.608  -0.684  0.00  0.00    -0.050 Br
ATOM     10  C   UNL     1      -1.780   0.719   1.836  0.00  0.00    +0.132 C 
ATOM     11  C   UNL     1      -0.357   0.182   1.719  0.00  0.00    +0.192 C 
ATOM     12  N   UNL     1       0.722   0.863   1.510  0.00  0.00    -0.211 NA
ATOM     13  C   UNL     1       1.717   0.170   0.889  0.00  0.00    +0.144 A 
ATOM     14  C   UNL     1       1.148  -0.345  -0.381  0.00  0.00    +0.156 A 
ATOM     15  N   UNL     1       1.891  -1.028  -1.165  0.00  0.00    -0.218 NA
ATOM     16  C   UNL     1       3.158  -1.279  -0.850  0.00  0.00    +0.225 A 
ATOM     17  N   UNL     1       3.707  -0.845   0.268  0.00  0.00    -0.222 NA
ATOM     18  C   UNL     1       3.010  -0.119   1.164  0.00  0.00    +0.160 A 
ATOM     19 CL   UNL     1       3.749   0.440   2.631  0.00  0.00    -0.060 Cl
ENDROOT
BRANCH   8  20
ATOM     20  C   UNL     1      -0.641  -2.710  -1.190  0.00  0.00    +0.025 A 
ATOM     21  C   UNL     1       0.104  -3.451  -0.276  0.00  0.00    +0.012 A 
ATOM     22  C   UNL     1       1.071  -4.327  -0.725  0.00  0.00    +0.001 A 
ATOM     23  C   UNL     1       1.304  -4.473  -2.081  0.00  0.00    +0.004 A 
ATOM     24  C   UNL     1       0.570  -3.743  -2.997  0.00  0.00    +0.046 A 
ATOM     25  C   UNL     1      -0.407  -2.863  -2.560  0.00  0.00    +0.125 A 
BRANCH  25  26
ATOM     26  O   UNL     1      -1.133  -2.149  -3.460  0.00  0.00    -0.506 OA
ATOM     27  H   UNL     1      -0.743  -1.295  -3.691  0.00  0.00    +0.292 HD
ENDBRANCH  25  26
ENDBRANCH   8  20
BRANCH  11  28
ATOM     28  O   UNL     1      -0.208  -1.153   1.850  0.00  0.00    -0.495 OA
ATOM     29  H   UNL     1       0.713  -1.447   1.851  0.00  0.00    +0.293 HD
ENDBRANCH  11  28
TORSDOF 3
