REMARK  Name = ZINC39938804
REMARK  9 active torsions:
REMARK  status: ('A' for Active; 'I' for Inactive)
REMARK    1  A    between atoms: C_1  and  C_2
REMARK    2  A    between atoms: C_4  and  C_39
REMARK    3  A    between atoms: C_5  and  C_37
REMARK    4  A    between atoms: C_6  and  N_16
REMARK    5  A    between atoms: N_8  and  C_9
REMARK    6  A    between atoms: C_9  and  C_10
REMARK    7  A    between atoms: C_17  and  C_19
REMARK    8  A    between atoms: C_19  and  N_20
REMARK    9  A    between atoms: C_23  and  N_26
REMARK                            x       y       z     vdW  Elec       q    Type
REMARK                         _______ _______ _______ _____ _____    ______ ____
ROOT
ATOM      1  N   UNL     1      -0.605   0.494   2.991  0.00  0.00    -0.297 N 
ATOM      2  C   UNL     1      -0.236   0.488   4.287  0.00  0.00    +0.198 C 
ATOM      3  O   UNL     1       0.245  -0.513   4.775  0.00  0.00    -0.278 OA
ATOM      4  H   UNL     1      -0.990   1.294   2.600  0.00  0.00    +0.150 HD
ENDROOT
BRANCH   1   9
ATOM      5  C   UNL     1      -0.019   1.526   0.010  0.00  0.00    +0.029 C 
ATOM      6  C   UNL     1       0.002  -0.004   0.002  0.00  0.00    +0.083 C 
ATOM      7  C   UNL     1      -1.407  -0.547   0.078  0.00  0.00    -0.039 C 
ATOM      8  C   UNL     1      -1.652  -0.950   1.322  0.00  0.00    +0.065 C 
ATOM      9  C   UNL     1      -0.425  -0.707   2.172  0.00  0.00    +0.186 C 
ATOM     10  N   UNL     1       0.690  -0.514   1.211  0.00  0.00    -0.271 NA
ATOM     11  C   UNL     1      -2.378  -0.619  -1.072  0.00  0.00    +0.042 C 
BRANCH   8  12
ATOM     12  C   UNL     1      -2.881  -1.523   1.783  0.00  0.00    +0.098 C 
ATOM     13  N   UNL     1      -3.856  -1.978   2.148  0.00  0.00    -0.191 NA
ENDBRANCH   8  12
BRANCH  10  14
ATOM     14  C   UNL     1       1.371  -1.785   0.933  0.00  0.00    +0.118 C 
BRANCH  14  15
ATOM     15  C   UNL     1       2.268  -2.153   2.116  0.00  0.00    +0.132 C 
ATOM     16  C   UNL     1       3.080  -3.424   1.784  0.00  0.00    +0.035 C 
ATOM     17  C   UNL     1       3.062  -4.190   3.134  0.00  0.00    +0.031 C 
ATOM     18  C   UNL     1       1.660  -3.807   3.671  0.00  0.00    +0.160 C 
ATOM     19  O   UNL     1       1.462  -2.441   3.265  0.00  0.00    -0.375 OA
ENDBRANCH  14  15
ENDBRANCH  10  14
ENDBRANCH   1   9
BRANCH   2  20
ATOM     20  C   UNL     1      -0.421   1.723   5.129  0.00  0.00    +0.019 C 
BRANCH  20  21
ATOM     21  N   UNL     1       0.055   1.462   6.494  0.00  0.00    +0.386 N 
ATOM     22  C   UNL     1      -0.784   0.429   7.114  0.00  0.00    -0.076 C 
ATOM     23  C   UNL     1      -0.243   0.095   8.506  0.00  0.00    +0.006 C 
ATOM     24  C   UNL     1      -0.262   1.358   9.372  0.00  0.00    +0.089 C 
ATOM     25  C   UNL     1       0.556   2.452   8.679  0.00  0.00    +0.006 C 
ATOM     26  C   UNL     1      -0.014   2.699   7.280  0.00  0.00    -0.076 C 
ATOM     27  H   UNL     1       1.011   1.139   6.460  0.00  0.00    -0.081 HD
BRANCH  24  28
ATOM     28  N   UNL     1       0.326   1.062  10.681  0.00  0.00    -0.289 N 
ATOM     29  C   UNL     1      -0.320   1.181  11.909  0.00  0.00    +0.070 A 
ATOM     30  C   UNL     1      -1.597   1.575  12.279  0.00  0.00    +0.028 A 
ATOM     31  C   UNL     1      -1.953   1.590  13.613  0.00  0.00    +0.002 A 
ATOM     32  C   UNL     1      -1.040   1.214  14.583  0.00  0.00    +0.002 A 
ATOM     33  C   UNL     1       0.234   0.820  14.225  0.00  0.00    +0.028 A 
ATOM     34  C   UNL     1       0.601   0.801  12.888  0.00  0.00    +0.067 A 
ATOM     35  N   UNL     1       1.777   0.463  12.223  0.00  0.00    -0.306 N 
ATOM     36  H   UNL     1       2.598   0.159  12.642  0.00  0.00    +0.170 HD
ATOM     37  C   UNL     1       1.579   0.624  10.902  0.00  0.00    +0.328 A 
ATOM     38  O   UNL     1       2.409   0.410  10.037  0.00  0.00    -0.247 OA
ENDBRANCH  24  28
ENDBRANCH  20  21
ENDBRANCH   2  20
TORSDOF 7
