REMARK  Name = ZINC02459081
REMARK  6 active torsions:
REMARK  status: ('A' for Active; 'I' for Inactive)
REMARK    1  A    between atoms: C_4  and  C_7
REMARK    2  A    between atoms: C_7  and  C_9
REMARK    3  A    between atoms: C_11  and  C_23
REMARK    4  A    between atoms: C_17  and  C_18
REMARK    5  A    between atoms: C_17  and  O_22
REMARK    6  A    between atoms: C_26  and  C_28
REMARK                            x       y       z     vdW  Elec       q    Type
REMARK                         _______ _______ _______ _____ _____    ______ ____
ROOT
ATOM      1  C   UNL     1       3.925   1.596  -0.407  0.00  0.00    +0.147 C 
ATOM      2  C   UNL     1       3.716   2.790   0.532  0.00  0.00    +0.156 C 
ATOM      3  N   UNL     1       3.518   2.298   1.896  0.00  0.00    -0.289 N 
ATOM      4  C   UNL     1       4.069   1.148   2.311  0.00  0.00    +0.302 C 
ATOM      5  O   UNL     1       3.882   0.790   3.457  0.00  0.00    -0.253 OA
ATOM      6  N   UNL     1       4.819   0.376   1.510  0.00  0.00    -0.264 N 
ATOM      7  C   UNL     1       5.092   0.757   0.123  0.00  0.00    +0.243 C 
ATOM      8  H   UNL     1       2.976   2.815   2.513  0.00  0.00    +0.151 HD
ATOM      9  H   UNL     1       5.188  -0.451   1.857  0.00  0.00    +0.153 HD
ENDROOT
BRANCH   2  10
ATOM     10  C   UNL     1       4.930   3.682   0.489  0.00  0.00    +0.127 A 
ATOM     11  C   UNL     1       5.487   4.198  -0.624  0.00  0.00    +0.047 A 
ATOM     12  C   UNL     1       6.594   4.968  -0.214  0.00  0.00    +0.050 A 
ATOM     13  C   UNL     1       6.652   4.878   1.142  0.00  0.00    +0.137 A 
ATOM     14  O   UNL     1       5.633   4.099   1.554  0.00  0.00    -0.458 OA
BRANCH  13  15
ATOM     15  C   UNL     1       7.655   5.527   2.011  0.00  0.00    +0.036 A 
ATOM     16  C   UNL     1       9.016   5.397   1.730  0.00  0.00    +0.013 A 
ATOM     17  C   UNL     1       9.947   6.009   2.544  0.00  0.00    +0.001 A 
ATOM     18  C   UNL     1       9.535   6.743   3.642  0.00  0.00    +0.001 A 
ATOM     19  C   UNL     1       8.188   6.873   3.930  0.00  0.00    +0.021 A 
ATOM     20  C   UNL     1       7.245   6.269   3.122  0.00  0.00    +0.052 A 
ATOM     21 CL   UNL     1       5.555   6.432   3.485  0.00  0.00    -0.083 Cl
ENDBRANCH  13  15
ENDBRANCH   2  10
BRANCH   7  22
ATOM     22  C   UNL     1       6.382   1.578   0.061  0.00  0.00    +0.436 C 
ATOM     23  F   UNL     1       6.471   2.393   1.194  0.00  0.00    -0.166 F 
ATOM     24  F   UNL     1       7.482   0.715   0.019  0.00  0.00    -0.166 F 
ATOM     25  F   UNL     1       6.371   2.376  -1.088  0.00  0.00    -0.166 F 
ENDBRANCH   7  22
BRANCH   1  26
ATOM     26  C   UNL     1       2.673   0.757  -0.444  0.00  0.00    +0.173 C 
ATOM     27  O   UNL     1       2.522  -0.140   0.358  0.00  0.00    -0.292 OA
BRANCH  26  31
ATOM     28  C   UNL     1      -0.318   1.535  -3.349  0.00  0.00    +0.000 A 
ATOM     29  C   UNL     1      -0.492   0.506  -2.439  0.00  0.00    +0.001 A 
ATOM     30  C   UNL     1       0.473   0.250  -1.489  0.00  0.00    +0.011 A 
ATOM     31  C   UNL     1       1.636   1.027  -1.452  0.00  0.00    +0.018 A 
ATOM     32  C   UNL     1       1.807   2.061  -2.377  0.00  0.00    +0.011 A 
ATOM     33  C   UNL     1       0.830   2.308  -3.318  0.00  0.00    +0.001 A 
ENDBRANCH  26  31
ENDBRANCH   1  26
BRANCH   7  34
ATOM     34  O   UNL     1       5.235  -0.419  -0.676  0.00  0.00    -0.364 OA
ATOM     35  H   UNL     1       5.957  -0.999  -0.397  0.00  0.00    +0.212 HD
ENDBRANCH   7  34
TORSDOF 6
