REMARK  Name = ZINC06161914
REMARK  5 active torsions:
REMARK  status: ('A' for Active; 'I' for Inactive)
REMARK    1  A    between atoms: C_5  and  C_7
REMARK    2  A    between atoms: C_7  and  N_8
REMARK    3  A    between atoms: C_13  and  C_15
REMARK    4  A    between atoms: N_20  and  S_22
REMARK    5  A    between atoms: S_22  and  C_25
REMARK                            x       y       z     vdW  Elec       q    Type
REMARK                         _______ _______ _______ _____ _____    ______ ____
ROOT
ATOM      1  N   UNL     1       5.139  10.462  -4.074  0.00  0.00    -0.224 N 
ATOM      2  C   UNL     1       4.130   9.542  -4.126  0.00  0.00    +0.164 A 
ATOM      3  C   UNL     1       4.400   8.730  -5.242  0.00  0.00    +0.195 A 
ATOM      4  C   UNL     1       3.506   7.682  -5.528  0.00  0.00    +0.303 A 
ATOM      5  N   UNL     1       2.454   7.513  -4.738  0.00  0.00    -0.194 NA
ATOM      6  C   UNL     1       2.240   8.305  -3.703  0.00  0.00    +0.117 A 
ATOM      7  N   UNL     1       3.049   9.295  -3.392  0.00  0.00    -0.326 N 
ATOM      8  O   UNL     1       3.712   6.866  -6.589  0.00  0.00    -0.263 OA
ATOM      9  N   UNL     1       5.533   9.177  -5.811  0.00  0.00    -0.122 NA
ATOM     10  N   UNL     1       5.990  10.186  -5.155  0.00  0.00    -0.063 NA
ATOM     11  H   UNL     1       2.849   9.867  -2.596  0.00  0.00    +0.169 HD
ENDROOT
BRANCH   6  12
ATOM     12  C   UNL     1       1.023   8.066  -2.846  0.00  0.00    +0.071 C 
ATOM     13  C   UNL     1      -0.239   8.205  -3.701  0.00  0.00    +0.014 C 
ATOM     14  C   UNL     1      -1.476   7.995  -2.825  0.00  0.00    +0.018 C 
ATOM     15  C   UNL     1      -1.445   6.582  -2.235  0.00  0.00    +0.109 C 
ATOM     16  N   UNL     1      -0.169   6.390  -1.533  0.00  0.00    -0.176 NA
ATOM     17  C   UNL     1       1.083   6.659  -2.255  0.00  0.00    +0.120 C 
BRANCH  16  18
ATOM     18  S   UNL     1      -0.141   5.888   0.045  0.00  0.00    +0.061 S 
ATOM     19  O   UNL     1      -1.392   6.254   0.610  0.00  0.00    -0.153 OA
ATOM     20  O   UNL     1       1.098   6.324   0.589  0.00  0.00    -0.153 OA
BRANCH  18  21
ATOM     21  C   UNL     1      -0.091   4.126   0.030  0.00  0.00    +0.109 A 
ATOM     22  C   UNL     1      -1.269   3.403   0.035  0.00  0.00    +0.032 A 
ATOM     23  C   UNL     1      -1.234   2.021   0.030  0.00  0.00    +0.051 A 
ATOM     24  C   UNL     1      -0.017   1.357   0.009  0.00  0.00    +0.162 A 
ATOM     25  C   UNL     1       1.167   2.084   0.002  0.00  0.00    +0.164 A 
ATOM     26  C   UNL     1       1.125   3.471   0.014  0.00  0.00    +0.078 A 
ATOM     27  O   UNL     1       2.373   1.453  -0.018  0.00  0.00    -0.485 OA
ATOM     28  C   UNL     1       2.380   0.069   0.348  0.00  0.00    +0.270 C 
ATOM     29  C   UNL     1       1.229  -0.629  -0.390  0.00  0.00    +0.270 C 
ATOM     30  O   UNL     1       0.002  -0.004   0.002  0.00  0.00    -0.485 OA
ENDBRANCH  18  21
ENDBRANCH  16  18
ENDBRANCH   6  12
BRANCH   1  31
ATOM     31  C   UNL     1       5.301  11.530  -3.084  0.00  0.00    +0.184 C 
BRANCH  31  36
ATOM     32  C   UNL     1       8.207  10.851  -0.771  0.00  0.00    +0.000 A 
ATOM     33  C   UNL     1       7.607  10.081   0.209  0.00  0.00    +0.001 A 
ATOM     34  C   UNL     1       6.261   9.779   0.123  0.00  0.00    +0.020 A 
ATOM     35  C   UNL     1       5.512  10.253  -0.940  0.00  0.00    +0.046 A 
ATOM     36  C   UNL     1       6.114  11.018  -1.923  0.00  0.00    -0.008 A 
ATOM     37  C   UNL     1       7.461  11.319  -1.836  0.00  0.00    +0.007 A 
ATOM     38 CL   UNL     1       3.820   9.881  -1.044  0.00  0.00    -0.083 Cl
ENDBRANCH  31  36
ENDBRANCH   1  31
TORSDOF 5
