REMARK  Name = ZINC36024680
REMARK  4 active torsions:
REMARK  status: ('A' for Active; 'I' for Inactive)
REMARK    1  A    between atoms: C_9  and  S_11
REMARK    2  A    between atoms: S_11  and  N_14
REMARK    3  A    between atoms: N_24  and  C_25
REMARK    4  A    between atoms: C_25  and  C_26
REMARK                            x       y       z     vdW  Elec       q    Type
REMARK                         _______ _______ _______ _____ _____    ______ ____
ROOT
ATOM      1  N   UNL     1       1.149  -2.300  -1.666  0.00  0.00    -0.177 NA
ATOM      2  C   UNL     1       0.387  -2.395  -2.919  0.00  0.00    +0.109 C 
ATOM      3  C   UNL     1       0.286  -3.869  -3.324  0.00  0.00    +0.023 C 
ATOM      4  C   UNL     1       1.687  -4.476  -3.382  0.00  0.00    +0.006 C 
ATOM      5  C   UNL     1       2.361  -4.388  -2.014  0.00  0.00    +0.023 C 
ATOM      6  C   UNL     1       2.482  -2.913  -1.601  0.00  0.00    +0.109 C 
ATOM      7  N   UNL     1       1.601  -5.889  -3.807  0.00  0.00    +0.399 N 
ATOM      8  C   UNL     1       2.840  -6.077  -4.600  0.00  0.00    +0.018 C 
ATOM      9  C   UNL     1       3.183  -4.696  -5.115  0.00  0.00    +0.198 C 
ATOM     10  O   UNL     1       3.946  -4.448  -6.024  0.00  0.00    -0.278 OA
ATOM     11  N   UNL     1       2.496  -3.787  -4.391  0.00  0.00    -0.310 N 
ATOM     12  H   UNL     1       1.594  -6.502  -3.006  0.00  0.00    -0.082 HD
ATOM     13  H   UNL     1       0.785  -6.040  -4.380  0.00  0.00    -0.082 HD
ENDROOT
BRANCH   1  14
ATOM     14  S   UNL     1       0.518  -1.510  -0.353  0.00  0.00    +0.063 S 
ATOM     15  O   UNL     1       1.291  -1.909   0.770  0.00  0.00    -0.153 OA
ATOM     16  O   UNL     1      -0.890  -1.687  -0.411  0.00  0.00    -0.153 OA
BRANCH  14  25
ATOM     17  C   UNL     1      -0.007   2.434  -0.935  0.00  0.00    +0.003 A 
ATOM     18  C   UNL     1       1.255   2.945  -0.960  0.00  0.00    +0.010 A 
ATOM     19  C   UNL     1       2.354   2.087  -0.796  0.00  0.00    +0.002 A 
ATOM     20  C   UNL     1       3.675   2.575  -0.815  0.00  0.00    +0.011 A 
ATOM     21  C   UNL     1       4.694   1.681  -0.648  0.00  0.00    +0.020 A 
ATOM     22  C   UNL     1       4.411   0.329  -0.466  0.00  0.00    +0.111 A 
ATOM     23  N   UNL     1       3.181  -0.122  -0.449  0.00  0.00    -0.253 NA
ATOM     24  C   UNL     1       2.137   0.699  -0.606  0.00  0.00    +0.097 A 
ATOM     25  C   UNL     1       0.820   0.210  -0.587  0.00  0.00    +0.131 A 
ATOM     26  C   UNL     1      -0.222   1.071  -0.748  0.00  0.00    +0.031 A 
ENDBRANCH  14  25
ENDBRANCH   1  14
BRANCH  11  27
ATOM     27  C   UNL     1       2.550  -2.336  -4.586  0.00  0.00    +0.141 C 
BRANCH  27  28
ATOM     28  C   UNL     1       1.700  -1.956  -5.771  0.00  0.00    -0.026 A 
ATOM     29  C   UNL     1       2.299  -1.509  -6.934  0.00  0.00    +0.009 A 
ATOM     30  C   UNL     1       1.524  -1.160  -8.024  0.00  0.00    +0.050 A 
ATOM     31  C   UNL     1       0.144  -1.256  -7.953  0.00  0.00    +0.166 A 
ATOM     32  C   UNL     1      -0.459  -1.706  -6.781  0.00  0.00    +0.167 A 
ATOM     33  C   UNL     1       0.324  -2.060  -5.695  0.00  0.00    +0.054 A 
ATOM     34  O   UNL     1      -1.812  -1.711  -6.961  0.00  0.00    -0.453 OA
ATOM     35  C   UNL     1      -2.051  -0.875  -8.109  0.00  0.00    +0.466 C 
ATOM     36  O   UNL     1      -0.831  -0.980  -8.867  0.00  0.00    -0.453 OA
ENDBRANCH  27  28
ENDBRANCH  11  27
TORSDOF 4
