REMARK  Name = ZINC14009903
REMARK  11 active torsions:
REMARK  status: ('A' for Active; 'I' for Inactive)
REMARK    1  A    between atoms: C_1  and  C_2
REMARK    2  A    between atoms: C_2  and  N_59
REMARK    3  A    between atoms: C_3  and  C_4
REMARK    4  A    between atoms: C_3  and  N_59
REMARK    5  A    between atoms: C_5  and  C_6
REMARK    6  A    between atoms: C_5  and  N_59
REMARK    7  A    between atoms: C_6  and  N_7
REMARK    8  A    between atoms: C_8  and  C_10
REMARK    9  A    between atoms: C_10  and  C_11
REMARK   10  A    between atoms: N_22  and  C_25
REMARK   11  A    between atoms: C_29  and  C_31
REMARK                            x       y       z     vdW  Elec       q    Type
REMARK                         _______ _______ _______ _____ _____    ______ ____
ROOT
ATOM      1  C   UNL     1       2.933   9.173   2.238  0.00  0.00    +0.112 C 
ATOM      2  C   UNL     1       4.033   8.466   3.042  0.00  0.00    +0.103 C 
ATOM      3  S   UNL     1       3.633   6.710   2.719  0.00  0.00    -0.085 S 
ATOM      4  C   UNL     1       2.212   6.925   1.668  0.00  0.00    +0.174 A 
ATOM      5  N   UNL     1       2.015   8.271   1.544  0.00  0.00    -0.283 N 
ATOM      6  C   UNL     1       0.960   8.684   0.769  0.00  0.00    +0.266 A 
ATOM      7  O   UNL     1       0.739   9.874   0.623  0.00  0.00    -0.267 OA
ATOM      8  C   UNL     1       0.133   7.729   0.141  0.00  0.00    +0.103 A 
ATOM      9  C   UNL     1      -1.000   7.808  -0.697  0.00  0.00    +0.150 A 
ATOM     10  N   UNL     1      -1.379   6.596  -0.996  0.00  0.00    -0.172 NA
ATOM     11  N   UNL     1      -0.526   5.673  -0.379  0.00  0.00    -0.214 N 
ATOM     12  C   UNL     1       0.408   6.364   0.331  0.00  0.00    +0.171 A 
ATOM     13  N   UNL     1       1.452   6.022   1.091  0.00  0.00    -0.203 NA
ENDROOT
BRANCH  11  14
ATOM     14  C   UNL     1      -0.621   4.279  -0.471  0.00  0.00    +0.068 A 
ATOM     15  C   UNL     1       0.531   3.502  -0.487  0.00  0.00    +0.028 A 
ATOM     16  C   UNL     1       0.434   2.128  -0.579  0.00  0.00    +0.002 A 
ATOM     17  C   UNL     1      -0.808   1.524  -0.653  0.00  0.00    +0.003 A 
ATOM     18  C   UNL     1      -1.956   2.294  -0.642  0.00  0.00    -0.048 A 
ATOM     19  C   UNL     1      -1.866   3.669  -0.546  0.00  0.00    +0.031 A 
ATOM     20  C   UNL     1      -3.307   1.633  -0.729  0.00  0.00    +0.044 C 
ENDBRANCH  11  14
BRANCH   1  21
ATOM     21  C   UNL     1       2.121  10.050   3.193  0.00  0.00    +0.121 C 
BRANCH  21  23
ATOM     22  N   UNL     1       2.550  11.903   4.775  0.00  0.00    -0.317 N 
ATOM     23  C   UNL     1       3.021  11.090   3.809  0.00  0.00    +0.215 C 
ATOM     24  O   UNL     1       4.170  11.196   3.434  0.00  0.00    -0.276 OA
ATOM     25  H   UNL     1       1.631  11.819   5.074  0.00  0.00    +0.149 HD
BRANCH  22  26
ATOM     26  C   UNL     1       3.425  12.914   5.373  0.00  0.00    +0.085 C 
BRANCH  26  27
ATOM     27  C   UNL     1       2.650  13.696   6.436  0.00  0.00    -0.060 C 
BRANCH  27  28
ATOM     28  N   UNL     1       3.552  14.697   7.044  0.00  0.00    +0.380 N 
ATOM     29  H   UNL     1       4.412  14.227   7.351  0.00  0.00    -0.082 HD
BRANCH  28  31
ATOM     30  C   UNL     1       2.649  16.498   5.613  0.00  0.00    -0.017 C 
ATOM     31  C   UNL     1       3.900  15.734   6.050  0.00  0.00    -0.082 C 
ENDBRANCH  28  31
BRANCH  28  32
ATOM     32  C   UNL     1       2.900  15.318   8.215  0.00  0.00    -0.082 C 
ATOM     33  C   UNL     1       3.957  16.074   9.023  0.00  0.00    -0.017 C 
ENDBRANCH  28  32
ENDBRANCH  27  28
ENDBRANCH  26  27
ENDBRANCH  22  26
ENDBRANCH  21  23
ENDBRANCH   1  21
TORSDOF 8
