REMARK  Name = ZINC65217016
REMARK  5 active torsions:
REMARK  status: ('A' for Active; 'I' for Inactive)
REMARK    1  A    between atoms: C_1  and  C_2
REMARK    2  A    between atoms: C_4  and  C_14
REMARK    3  A    between atoms: C_11  and  C_13
REMARK    4  A    between atoms: C_14  and  N_15
REMARK    5  A    between atoms: C_16  and  C_18
REMARK                            x       y       z     vdW  Elec       q    Type
REMARK                         _______ _______ _______ _____ _____    ______ ____
ROOT
ATOM      1  N   UNL     1       2.142   0.128  -3.150  0.00  0.00    -0.311 N 
ATOM      2  C   UNL     1       2.760   0.982  -3.990  0.00  0.00    +0.239 C 
ATOM      3  O   UNL     1       2.652   2.179  -3.827  0.00  0.00    -0.273 OA
ATOM      4  H   UNL     1       2.229  -0.829  -3.280  0.00  0.00    +0.149 HD
ENDROOT
BRANCH   2   5
ATOM      5  C   UNL     1       3.587   0.449  -5.132  0.00  0.00    +0.190 C 
ATOM      6  C   UNL     1       4.750  -0.359  -4.601  0.00  0.00    +0.016 C 
ATOM      7  C   UNL     1       5.869   0.265  -5.035  0.00  0.00    -0.004 A 
ATOM      8  C   UNL     1       7.298  -0.021  -4.860  0.00  0.00    +0.010 A 
ATOM      9  C   UNL     1       8.206   0.805  -5.428  0.00  0.00    +0.001 A 
ATOM     10  C   UNL     1       7.818   1.923  -6.178  0.00  0.00    +0.002 A 
ATOM     11  C   UNL     1       6.524   2.250  -6.383  0.00  0.00    +0.026 A 
ATOM     12  C   UNL     1       5.485   1.452  -5.832  0.00  0.00    +0.043 A 
ATOM     13  N   UNL     1       4.178   1.558  -5.889  0.00  0.00    -0.370 N 
ATOM     14  H   UNL     1       3.685   2.253  -6.353  0.00  0.00    +0.161 HD
ENDBRANCH   2   5
BRANCH   1  15
ATOM     15  C   UNL     1       1.338   0.646  -2.040  0.00  0.00    +0.130 C 
BRANCH  15  18
ATOM     16  C   UNL     1      -0.019   1.526   0.010  0.00  0.00    +0.026 C 
ATOM     17  C   UNL     1       0.002  -0.004   0.002  0.00  0.00    +0.077 C 
ATOM     18  C   UNL     1       0.751  -0.523  -1.247  0.00  0.00    +0.129 C 
ATOM     19  N   UNL     1       1.833  -1.379  -0.707  0.00  0.00    -0.222 N 
ATOM     20  C   UNL     1       2.127  -0.713   0.602  0.00  0.00    +0.225 C 
ATOM     21  N   UNL     1       0.775  -0.516   1.168  0.00  0.00    -0.284 NA
ATOM     22  S   UNL     1       3.013  -2.078   1.442  0.00  0.00    -0.069 S 
ATOM     23  C   UNL     1       3.222  -3.134   0.015  0.00  0.00    +0.092 C 
ATOM     24  N   UNL     1       2.557  -2.534  -0.916  0.00  0.00    -0.180 NA
ATOM     25  C   UNL     1       3.996  -4.423  -0.081  0.00  0.00    +0.075 C 
ATOM     26  H   UNL     1       0.790   0.160   1.917  0.00  0.00    +0.125 HD
ENDBRANCH  15  18
ENDBRANCH   1  15
TORSDOF 3
