REMARK  Name = ZINC21141855
REMARK  10 active torsions:
REMARK  status: ('A' for Active; 'I' for Inactive)
REMARK    1  A    between atoms: C_1  and  C_2
REMARK    2  A    between atoms: C_2  and  C_4
REMARK    3  A    between atoms: C_2  and  S_15
REMARK    4  A    between atoms: S_15  and  C_16
REMARK    5  A    between atoms: N_29  and  C_30
REMARK    6  A    between atoms: C_30  and  C_31
REMARK    7  A    between atoms: C_31  and  C_32
REMARK    8  A    between atoms: C_32  and  N_33
REMARK    9  A    between atoms: N_33  and  C_34
REMARK   10  A    between atoms: N_33  and  C_35
REMARK                            x       y       z     vdW  Elec       q    Type
REMARK                         _______ _______ _______ _____ _____    ______ ____
ROOT
ATOM      1  C   UNL     1       1.128   3.283   0.010  0.00  0.00    +0.173 A 
ATOM      2  N   UNL     1      -0.001   3.963   0.003  0.00  0.00    -0.216 NA
ATOM      3  C   UNL     1      -1.172   3.337  -0.000  0.00  0.00    +0.117 A 
ATOM      4  C   UNL     1      -1.270   1.936  -0.001  0.00  0.00    +0.076 A 
ATOM      5  C   UNL     1      -2.629   1.390   0.001  0.00  0.00    -0.023 A 
ATOM      6  C   UNL     1      -3.645   2.277  -0.008  0.00  0.00    -0.004 A 
ATOM      7  S   UNL     1      -2.865   3.869  -0.010  0.00  0.00    -0.073 S 
ATOM      8  C   UNL     1      -5.112   1.976  -0.014  0.00  0.00    +0.043 C 
ATOM      9  C   UNL     1      -5.303   0.498  -0.381  0.00  0.00    +0.005 C 
ATOM     10  C   UNL     1      -4.345  -0.346   0.464  0.00  0.00    +0.005 C 
ATOM     11  C   UNL     1      -2.905  -0.111   0.007  0.00  0.00    +0.037 C 
ATOM     12  C   UNL     1      -0.029   1.224   0.012  0.00  0.00    +0.263 A 
ATOM     13  O   UNL     1      -0.017   0.004   0.016  0.00  0.00    -0.267 OA
ATOM     14  N   UNL     1       1.123   1.918   0.015  0.00  0.00    -0.287 N 
ENDROOT
BRANCH   1  15
ATOM     15  S   UNL     1       2.663   4.147   0.014  0.00  0.00    -0.075 S 
BRANCH  15  17
ATOM     16  C   UNL     1       1.324   6.129  -1.306  0.00  0.00    +0.029 C 
ATOM     17  C   UNL     1       2.063   5.855   0.006  0.00  0.00    +0.137 C 
BRANCH  17  18
ATOM     18  C   UNL     1       3.231   6.798   0.131  0.00  0.00    +0.233 C 
ATOM     19  O   UNL     1       4.348   6.422  -0.154  0.00  0.00    -0.274 OA
ATOM     20  N   UNL     1       3.034   8.061   0.561  0.00  0.00    -0.270 N 
ATOM     21  C   UNL     1       1.756   8.598   1.034  0.00  0.00    +0.118 C 
ATOM     22  C   UNL     1       2.046  10.060   1.409  0.00  0.00    +0.056 C 
ATOM     23  C   UNL     1       3.515  10.247   1.101  0.00  0.00    -0.024 A 
ATOM     24  C   UNL     1       4.020   9.051   0.615  0.00  0.00    +0.040 A 
ATOM     25  C   UNL     1       5.367   8.980   0.258  0.00  0.00    +0.024 A 
ATOM     26  C   UNL     1       6.181  10.085   0.391  0.00  0.00    +0.002 A 
ATOM     27  C   UNL     1       5.668  11.273   0.877  0.00  0.00    +0.000 A 
ATOM     28  C   UNL     1       4.334  11.352   1.231  0.00  0.00    +0.005 A 
ENDBRANCH  17  18
ENDBRANCH  15  17
ENDBRANCH   1  15
BRANCH  14  29
ATOM     29  C   UNL     1       2.398   1.195   0.023  0.00  0.00    +0.125 C 
BRANCH  29  30
ATOM     30  C   UNL     1       2.847   0.939  -1.417  0.00  0.00    +0.003 C 
BRANCH  30  31
ATOM     31  C   UNL     1       4.178   0.184  -1.409  0.00  0.00    -0.078 C 
BRANCH  31  32
ATOM     32  N   UNL     1       4.610  -0.063  -2.791  0.00  0.00    +0.376 N 
ATOM     33  C   UNL     1       4.927   1.197  -3.476  0.00  0.00    -0.097 C 
ATOM     34  C   UNL     1       5.753  -0.985  -2.829  0.00  0.00    -0.097 C 
ATOM     35  H   UNL     1       3.775  -0.538  -3.326  0.00  0.00    -0.083 HD
ENDBRANCH  31  32
ENDBRANCH  30  31
ENDBRANCH  29  30
ENDBRANCH  14  29
TORSDOF 7
