REMARK  Name = ZINC29530012
REMARK  8 active torsions:
REMARK  status: ('A' for Active; 'I' for Inactive)
REMARK    1  A    between atoms: C_1  and  C_2
REMARK    2  A    between atoms: C_9  and  C_11
REMARK    3  A    between atoms: C_11  and  N_12
REMARK    4  A    between atoms: N_15  and  C_18
REMARK    5  A    between atoms: C_21  and  N_28
REMARK    6  A    between atoms: C_23  and  C_24
REMARK    7  A    between atoms: C_24  and  O_26
REMARK    8  A    between atoms: O_26  and  C_27
REMARK                            x       y       z     vdW  Elec       q    Type
REMARK                         _______ _______ _______ _____ _____    ______ ____
ROOT
ATOM      1  N   UNL     1       5.269  -1.523  -1.605  0.00  0.00    +0.387 N 
ATOM      2  C   UNL     1       5.198  -2.426  -0.447  0.00  0.00    -0.059 C 
ATOM      3  C   UNL     1       6.109  -3.632  -0.688  0.00  0.00    +0.086 C 
ATOM      4  N   UNL     1       7.486  -3.167  -0.905  0.00  0.00    -0.333 N 
ATOM      5  C   UNL     1       7.557  -2.264  -2.063  0.00  0.00    +0.086 C 
ATOM      6  C   UNL     1       6.646  -1.058  -1.822  0.00  0.00    -0.059 C 
ATOM      7  H   UNL     1       4.956  -2.088  -2.495  0.00  0.00    -0.081 HD
ENDROOT
BRANCH   4   8
ATOM      8  C   UNL     1       8.356  -4.238  -1.056  0.00  0.00    +0.044 A 
ATOM      9  C   UNL     1       8.217  -5.104  -2.134  0.00  0.00    +0.026 A 
ATOM     10  C   UNL     1       9.082  -6.169  -2.282  0.00  0.00    +0.034 A 
ATOM     11  C   UNL     1      10.094  -6.384  -1.360  0.00  0.00    +0.127 A 
ATOM     12  C   UNL     1      10.249  -5.536  -0.285  0.00  0.00    +0.049 A 
ATOM     13  C   UNL     1       9.384  -4.450  -0.124  0.00  0.00    +0.082 A 
BRANCH  11  14
ATOM     14  N   UNL     1      11.014  -7.530  -1.532  0.00  0.00    +0.056 N 
ATOM     15  O   UNL     1      10.881  -8.282  -2.481  0.00  0.00    -0.126 OA
ATOM     16  O   UNL     1      11.905  -7.722  -0.723  0.00  0.00    -0.126 OA
ENDBRANCH  11  14
BRANCH  13  17
ATOM     17  C   UNL     1       9.546  -3.537   1.020  0.00  0.00    +0.341 C 
ATOM     18  O   UNL     1       8.790  -2.596   1.159  0.00  0.00    -0.245 OA
BRANCH  17  19
ATOM     19  O   UNL     1      10.535  -3.744   1.913  0.00  0.00    -0.464 OA
ATOM     20  C   UNL     1      10.636  -2.804   3.015  0.00  0.00    +0.280 C 
ENDBRANCH  17  19
ENDBRANCH  13  17
ENDBRANCH   4   8
BRANCH   1  21
ATOM     21  C   UNL     1       4.349  -0.389  -1.445  0.00  0.00    +0.019 C 
BRANCH  21  29
ATOM     22  C   UNL     1       0.512  -2.028  -1.139  0.00  0.00    +0.028 C 
ATOM     23  C   UNL     1       0.521  -0.501  -1.237  0.00  0.00    +0.073 C 
ATOM     24  C   UNL     1      -0.118   0.098   0.020  0.00  0.00    +0.022 C 
ATOM     25  C   UNL     1       0.016   1.622  -0.022  0.00  0.00    +0.003 C 
ATOM     26  C   UNL     1       1.498   2.006  -0.040  0.00  0.00    +0.019 C 
ATOM     27  C   UNL     1       2.155   1.428  -1.298  0.00  0.00    +0.108 C 
ATOM     28  N   UNL     1       1.905  -0.019  -1.340  0.00  0.00    -0.300 N 
ATOM     29  C   UNL     1       2.927  -0.888  -1.470  0.00  0.00    +0.199 C 
ATOM     30  O   UNL     1       2.703  -2.072  -1.608  0.00  0.00    -0.278 OA
ENDBRANCH  21  29
ENDBRANCH   1  21
TORSDOF 6
