REMARK  Name = ZINC02796105
REMARK  13 active torsions:
REMARK  status: ('A' for Active; 'I' for Inactive)
REMARK    1  A    between atoms: C_1  and  C_2
REMARK    2  A    between atoms: C_2  and  C_3
REMARK    3  A    between atoms: C_3  and  C_4
REMARK    4  A    between atoms: C_4  and  O_5
REMARK    5  A    between atoms: O_5  and  C_6
REMARK    6  A    between atoms: C_6  and  C_8
REMARK    7  A    between atoms: C_9  and  C_32
REMARK    8  A    between atoms: C_13  and  C_15
REMARK    9  A    between atoms: C_17  and  O_23
REMARK   10  A    between atoms: C_18  and  O_22
REMARK   11  A    between atoms: O_23  and  C_24
REMARK   12  A    between atoms: C_28  and  C_30
REMARK   13  A    between atoms: C_28  and  C_31
REMARK                            x       y       z     vdW  Elec       q    Type
REMARK                         _______ _______ _______ _____ _____    ______ ____
ROOT
ATOM      1  C   UNL     1      -2.452   0.007  -0.247  0.00  0.00    +0.065 C 
ATOM      2  C   UNL     1      -2.431   1.351  -0.259  0.00  0.00    +0.016 C 
ATOM      3  N   UNL     1      -1.269   2.027  -0.016  0.00  0.00    -0.321 N 
ATOM      4  C   UNL     1      -0.057   1.403  -0.145  0.00  0.00    +0.016 C 
ATOM      5  C   UNL     1       0.024   0.056  -0.128  0.00  0.00    +0.024 C 
ATOM      6  C   UNL     1      -1.214  -0.789   0.041  0.00  0.00    +0.092 C 
ATOM      7  C   UNL     1       1.262  -0.598  -0.264  0.00  0.00    +0.162 C 
ATOM      8  O   UNL     1       1.298  -1.812  -0.264  0.00  0.00    -0.292 OA
ATOM      9  C   UNL     1       2.542   0.180  -0.408  0.00  0.00    +0.086 C 
ATOM     10  C   UNL     1       2.384   1.533   0.294  0.00  0.00    -0.023 C 
ATOM     11  C   UNL     1       1.177   2.255  -0.310  0.00  0.00    +0.058 C 
ATOM     12  C   UNL     1       2.155   1.313   1.790  0.00  0.00    +0.011 C 
ATOM     13  C   UNL     1       3.647   2.371   0.084  0.00  0.00    +0.011 C 
ATOM     14  C   UNL     1      -3.697   2.117  -0.544  0.00  0.00    +0.061 C 
ATOM     15  H   UNL     1      -1.301   3.085   0.285  0.00  0.00    +0.152 HD
ENDROOT
BRANCH   6  16
ATOM     16  C   UNL     1      -1.274  -1.300   1.458  0.00  0.00    -0.030 A 
ATOM     17  C   UNL     1      -1.277  -2.662   1.700  0.00  0.00    +0.054 A 
ATOM     18  C   UNL     1      -1.332  -3.134   3.002  0.00  0.00    +0.163 A 
ATOM     19  C   UNL     1      -1.384  -2.235   4.063  0.00  0.00    +0.173 A 
ATOM     20  C   UNL     1      -1.379  -0.872   3.813  0.00  0.00    +0.063 A 
ATOM     21  C   UNL     1      -1.319  -0.407   2.511  0.00  0.00    +0.023 A 
ATOM     22 BR   UNL     1      -1.449   0.353   5.252  0.00  0.00    -0.046 Br
BRANCH  19  23
ATOM     23  O   UNL     1      -1.438  -2.694   5.342  0.00  0.00    -0.503 OA
ATOM     24  H   UNL     1      -1.479  -1.982   6.180  0.00  0.00    +0.292 HD
ENDBRANCH  19  23
BRANCH  18  25
ATOM     25  O   UNL     1      -1.336  -4.472   3.241  0.00  0.00    -0.491 OA
ATOM     26  C   UNL     1      -1.282  -5.335   2.103  0.00  0.00    +0.277 C 
ENDBRANCH  18  25
ENDBRANCH   6  16
BRANCH   1  27
ATOM     27  C   UNL     1      -3.666  -0.670  -0.511  0.00  0.00    +0.338 C 
ATOM     28  O   UNL     1      -3.834  -1.224  -1.581  0.00  0.00    -0.245 OA
BRANCH  27  29
ATOM     29  O   UNL     1      -4.638  -0.702   0.425  0.00  0.00    -0.461 OA
BRANCH  29  30
ATOM     30  C   UNL     1      -5.837  -1.404   0.091  0.00  0.00    +0.232 C 
BRANCH  30  31
ATOM     31  C   UNL     1      -6.814  -1.332   1.266  0.00  0.00    +0.041 C 
BRANCH  31  33
ATOM     32  C   UNL     1      -9.076  -2.011   2.083  0.00  0.00    +0.004 C 
ATOM     33  C   UNL     1      -8.098  -2.083   0.908  0.00  0.00    -0.000 C 
ENDBRANCH  31  33
ENDBRANCH  30  31
ENDBRANCH  29  30
ENDBRANCH  27  29
ENDBRANCH   1  27
TORSDOF 8
