REMARK  Name = ZINC41084995
REMARK  8 active torsions:
REMARK  status: ('A' for Active; 'I' for Inactive)
REMARK    1  A    between atoms: C_1  and  C_2
REMARK    2  A    between atoms: C_5  and  O_9
REMARK    3  A    between atoms: C_6  and  C_8
REMARK    4  A    between atoms: O_9  and  C_10
REMARK    5  A    between atoms: C_10  and  C_11
REMARK    6  A    between atoms: C_11  and  O_12
REMARK    7  A    between atoms: O_12  and  C_13
REMARK    8  A    between atoms: C_16  and  C_19
REMARK                            x       y       z     vdW  Elec       q    Type
REMARK                         _______ _______ _______ _____ _____    ______ ____
ROOT
ATOM      1  C   UNL     1      -2.002  -8.131  -0.694  0.00  0.00    +0.121 A 
ATOM      2  C   UNL     1      -0.803  -8.819  -0.847  0.00  0.00    +0.046 A 
ATOM      3  C   UNL     1      -0.706 -10.123  -0.453  0.00  0.00    +0.011 A 
ATOM      4  C   UNL     1      -1.818 -10.768   0.107  0.00  0.00    -0.024 A 
ATOM      5  C   UNL     1      -3.024 -10.069   0.259  0.00  0.00    +0.011 A 
ATOM      6  C   UNL     1      -3.107  -8.763  -0.134  0.00  0.00    +0.046 A 
ENDROOT
BRANCH   4   7
ATOM      7  C   UNL     1      -1.721 -12.167   0.531  0.00  0.00    +0.024 C 
ATOM      8  C   UNL     1      -2.385 -12.592   1.660  0.00  0.00    +0.081 C 
ATOM      9  C   UNL     1      -2.465 -14.034   2.028  0.00  0.00    +0.153 C 
ATOM     10  N   UNL     1      -1.513 -14.893   1.775  0.00  0.00    -0.283 NA
ATOM     11  N   UNL     1      -3.669 -14.380   2.675  0.00  0.00    -0.150 N 
ATOM     12  C   UNL     1      -4.357 -13.376   3.317  0.00  0.00    +0.182 C 
ATOM     13  N   UNL     1      -4.080 -12.096   3.325  0.00  0.00    -0.152 NA
ATOM     14  C   UNL     1      -3.053 -11.638   2.580  0.00  0.00    +0.273 C 
ATOM     15  O   UNL     1      -2.687 -10.476   2.655  0.00  0.00    -0.268 OA
ATOM     16  S   UNL     1      -5.687 -14.265   4.084  0.00  0.00    -0.018 S 
ATOM     17  C   UNL     1      -5.302 -15.880   3.423  0.00  0.00    +0.182 C 
ATOM     18  N   UNL     1      -4.216 -15.645   2.731  0.00  0.00    -0.149 NA
ATOM     19  N   UNL     1      -5.980 -17.076   3.599  0.00  0.00    -0.308 N 
ATOM     20  C   UNL     1      -5.593 -18.373   3.023  0.00  0.00    +0.107 C 
ATOM     21  C   UNL     1      -6.652 -19.404   3.466  0.00  0.00    +0.020 C 
ATOM     22  C   UNL     1      -7.882 -18.520   3.798  0.00  0.00    +0.020 C 
ATOM     23  C   UNL     1      -7.204 -17.261   4.399  0.00  0.00    +0.107 C 
ATOM     24  H   UNL     1      -1.616 -15.822   2.036  0.00  0.00    +0.188 HD
ENDBRANCH   4   7
BRANCH   1  25
ATOM     25  O   UNL     1      -2.093  -6.835  -1.087  0.00  0.00    -0.489 OA
BRANCH  25  26
ATOM     26  C   UNL     1      -0.921  -6.246  -1.654  0.00  0.00    +0.270 C 
BRANCH  26  27
ATOM     27  C   UNL     1      -1.213  -4.793  -2.034  0.00  0.00    +0.270 C 
BRANCH  27  28
ATOM     28  O   UNL     1      -1.482  -4.037  -0.852  0.00  0.00    -0.488 OA
BRANCH  28  33
ATOM     29  C   UNL     1      -2.649   1.432  -1.526  0.00  0.00    +0.044 C 
ATOM     30  C   UNL     1      -2.336  -0.031  -1.345  0.00  0.00    -0.050 A 
ATOM     31  C   UNL     1      -2.066  -0.820  -2.448  0.00  0.00    +0.007 A 
ATOM     32  C   UNL     1      -1.779  -2.161  -2.286  0.00  0.00    +0.046 A 
ATOM     33  C   UNL     1      -1.763  -2.717  -1.014  0.00  0.00    +0.124 A 
ATOM     34  C   UNL     1      -2.034  -1.923   0.090  0.00  0.00    -0.009 A 
ATOM     35  C   UNL     1      -2.315  -0.581  -0.077  0.00  0.00    +0.010 A 
ATOM     36  C   UNL     1      -2.018  -2.523   1.473  0.00  0.00    +0.047 C 
ENDBRANCH  28  33
ENDBRANCH  27  28
ENDBRANCH  26  27
ENDBRANCH  25  26
ENDBRANCH   1  25
TORSDOF 6
