REMARK  Name = ZINC08680360
REMARK  9 active torsions:
REMARK  status: ('A' for Active; 'I' for Inactive)
REMARK    1  A    between atoms: N_9  and  C_22
REMARK    2  A    between atoms: N_12  and  C_13
REMARK    3  A    between atoms: C_13  and  C_14
REMARK    4  A    between atoms: N_16  and  C_17
REMARK    5  A    between atoms: C_22  and  C_23
REMARK    6  A    between atoms: C_23  and  C_24
REMARK    7  A    between atoms: N_26  and  C_27
REMARK    8  A    between atoms: C_27  and  C_28
REMARK    9  A    between atoms: C_28  and  C_29
REMARK                            x       y       z     vdW  Elec       q    Type
REMARK                         _______ _______ _______ _____ _____    ______ ____
ROOT
ATOM      1  C   UNL     1      -0.017   1.375   0.010  0.00  0.00    +0.001 A 
ATOM      2  C   UNL     1       1.169   2.093   0.002  0.00  0.00    +0.002 A 
ATOM      3  C   UNL     1       2.386   1.442  -0.013  0.00  0.00    +0.027 A 
ATOM      4  C   UNL     1       2.425   0.056  -0.021  0.00  0.00    +0.059 A 
ATOM      5  C   UNL     1       1.223  -0.673  -0.013  0.00  0.00    +0.063 A 
ATOM      6  C   UNL     1       0.002  -0.004   0.002  0.00  0.00    +0.015 A 
ATOM      7  C   UNL     1       1.301  -2.145  -0.021  0.00  0.00    +0.264 A 
ATOM      8  O   UNL     1       0.291  -2.823  -0.016  0.00  0.00    -0.267 OA
ATOM      9  N   UNL     1       2.522  -2.722  -0.036  0.00  0.00    -0.260 N 
ATOM     10  C   UNL     1       3.642  -1.982  -0.043  0.00  0.00    +0.333 A 
ATOM     11  O   UNL     1       4.716  -2.551  -0.056  0.00  0.00    -0.246 OA
ATOM     12  N   UNL     1       3.627  -0.638  -0.036  0.00  0.00    -0.284 N 
ENDROOT
BRANCH  12  13
ATOM     13  C   UNL     1       4.891   0.102  -0.044  0.00  0.00    +0.222 C 
BRANCH  13  14
ATOM     14  C   UNL     1       5.338   0.349   1.374  0.00  0.00    +0.233 C 
ATOM     15  O   UNL     1       4.667  -0.054   2.300  0.00  0.00    -0.274 OA
ATOM     16  N   UNL     1       6.484   1.016   1.613  0.00  0.00    -0.311 N 
ATOM     17  H   UNL     1       7.021   1.339   0.872  0.00  0.00    +0.149 HD
BRANCH  16  18
ATOM     18  C   UNL     1       6.918   1.256   2.992  0.00  0.00    +0.073 C 
ATOM     19  C   UNL     1       6.300   2.566   3.521  0.00  0.00    +0.022 C 
ATOM     20  C   UNL     1       7.417   3.189   4.394  0.00  0.00    +0.002 C 
ATOM     21  C   UNL     1       8.701   2.857   3.594  0.00  0.00    +0.002 C 
ATOM     22  C   UNL     1       8.445   1.441   3.038  0.00  0.00    +0.022 C 
ENDBRANCH  16  18
ENDBRANCH  13  14
ENDBRANCH  12  13
BRANCH   9  23
ATOM     23  C   UNL     1       2.627  -4.183  -0.044  0.00  0.00    +0.139 C 
BRANCH  23  24
ATOM     24  C   UNL     1       2.650  -4.685  -1.489  0.00  0.00    +0.117 C 
BRANCH  24  25
ATOM     25  C   UNL     1       2.757  -6.188  -1.497  0.00  0.00    +0.215 C 
ATOM     26  O   UNL     1       2.811  -6.798  -0.450  0.00  0.00    -0.276 OA
ATOM     27  N   UNL     1       2.794  -6.855  -2.668  0.00  0.00    -0.315 N 
ATOM     28  H   UNL     1       2.752  -6.367  -3.505  0.00  0.00    +0.149 HD
BRANCH  27  29
ATOM     29  C   UNL     1       2.899  -8.316  -2.675  0.00  0.00    +0.109 C 
BRANCH  29  30
ATOM     30  C   UNL     1       2.921  -8.818  -4.121  0.00  0.00    +0.054 C 
BRANCH  30  31
ATOM     31  C   UNL     1       3.029 -10.321  -4.129  0.00  0.00    -0.046 A 
ATOM     32  C   UNL     1       4.273 -10.925  -4.138  0.00  0.00    +0.005 A 
ATOM     33  C   UNL     1       4.372 -12.303  -4.145  0.00  0.00    +0.020 A 
ATOM     34  C   UNL     1       3.227 -13.079  -4.144  0.00  0.00    +0.041 A 
ATOM     35  C   UNL     1       1.982 -12.475  -4.135  0.00  0.00    +0.020 A 
ATOM     36  C   UNL     1       1.884 -11.096  -4.121  0.00  0.00    +0.005 A 
ATOM     37 CL   UNL     1       3.351 -14.811  -4.153  0.00  0.00    -0.084 Cl
ENDBRANCH  30  31
ENDBRANCH  29  30
ENDBRANCH  27  29
ENDBRANCH  24  25
ENDBRANCH  23  24
ENDBRANCH   9  23
TORSDOF 9
