REMARK  Name = ZINC30868416
REMARK  9 active torsions:
REMARK  status: ('A' for Active; 'I' for Inactive)
REMARK    1  A    between atoms: C_1  and  C_2
REMARK    2  A    between atoms: C_2  and  O_3
REMARK    3  A    between atoms: O_3  and  C_4
REMARK    4  A    between atoms: C_4  and  C_6
REMARK    5  A    between atoms: C_9  and  N_13
REMARK    6  A    between atoms: C_10  and  C_12
REMARK    7  A    between atoms: C_14  and  C_16
REMARK    8  A    between atoms: N_19  and  S_28
REMARK    9  A    between atoms: S_28  and  C_31
REMARK                            x       y       z     vdW  Elec       q    Type
REMARK                         _______ _______ _______ _____ _____    ______ ____
ROOT
ATOM      1  N   UNL     1      -1.369  -0.959   0.799  0.00  0.00    -0.282 N 
ATOM      2  C   UNL     1      -2.489  -0.223   0.655  0.00  0.00    +0.260 C 
ATOM      3  O   UNL     1      -2.421   0.988   0.636  0.00  0.00    -0.271 OA
ATOM      4  H   UNL     1      -1.421  -2.056   0.749  0.00  0.00    +0.155 HD
ENDROOT
BRANCH   2   5
ATOM      5  C   UNL     1      -3.826  -0.904   0.519  0.00  0.00    +0.278 C 
ATOM      6  C   UNL     1      -3.863  -1.706  -0.790  0.00  0.00    +0.185 C 
ATOM      7  N   UNL     1      -5.201  -2.312  -0.903  0.00  0.00    -0.200 N 
ATOM      8  C   UNL     1      -6.307  -1.521  -0.553  0.00  0.00    +0.094 A 
ATOM      9  C   UNL     1      -7.587  -1.924  -0.902  0.00  0.00    +0.048 A 
ATOM     10  C   UNL     1      -8.674  -1.143  -0.553  0.00  0.00    +0.043 A 
ATOM     11  C   UNL     1      -8.484   0.037   0.144  0.00  0.00    +0.024 A 
ATOM     12  C   UNL     1      -7.209   0.443   0.492  0.00  0.00    +0.049 A 
ATOM     13  C   UNL     1      -6.114  -0.333   0.145  0.00  0.00    +0.144 A 
ATOM     14  O   UNL     1      -4.864   0.078   0.490  0.00  0.00    -0.476 OA
ATOM     15 CL   UNL     1     -10.278  -1.644  -0.989  0.00  0.00    -0.083 Cl
BRANCH   7  16
ATOM     16  S   UNL     1      -5.394  -3.872  -1.424  0.00  0.00    +0.043 S 
ATOM     17  O   UNL     1      -4.114  -4.468  -1.264  0.00  0.00    -0.155 OA
ATOM     18  O   UNL     1      -6.516  -4.360  -0.701  0.00  0.00    -0.155 OA
ATOM     19  C   UNL     1      -5.801  -3.728  -3.186  0.00  0.00    +0.218 C 
ENDBRANCH   7  16
ENDBRANCH   2   5
BRANCH   1  23
ATOM     20  C   UNL     1       2.292   0.924   1.435  0.00  0.00    +0.059 A 
ATOM     21  C   UNL     1       1.289   1.571   0.708  0.00  0.00    +0.017 A 
ATOM     22  C   UNL     1       0.080   0.946   0.499  0.00  0.00    +0.024 A 
ATOM     23  C   UNL     1      -0.143  -0.329   1.012  0.00  0.00    +0.036 A 
ATOM     24  C   UNL     1       0.853  -0.976   1.736  0.00  0.00    -0.028 A 
ATOM     25  C   UNL     1       2.064  -0.356   1.948  0.00  0.00    +0.020 A 
ATOM     26  C   UNL     1       0.606  -2.355   2.289  0.00  0.00    +0.045 C 
BRANCH  20  27
ATOM     27  C   UNL     1       3.588   1.590   1.661  0.00  0.00    +0.339 C 
ATOM     28  O   UNL     1       4.459   1.027   2.293  0.00  0.00    -0.245 OA
BRANCH  27  29
ATOM     29  O   UNL     1       3.806   2.824   1.165  0.00  0.00    -0.461 OA
BRANCH  29  31
ATOM     30  C   UNL     1       5.166   4.810   0.790  0.00  0.00    +0.048 C 
ATOM     31  C   UNL     1       5.105   3.419   1.426  0.00  0.00    +0.229 C 
ENDBRANCH  29  31
ENDBRANCH  27  29
ENDBRANCH  20  27
ENDBRANCH   1  23
TORSDOF 6
