REMARK  Name = ZINC02860865
REMARK  13 active torsions:
REMARK  status: ('A' for Active; 'I' for Inactive)
REMARK    1  A    between atoms: C_1  and  C_2
REMARK    2  A    between atoms: C_2  and  N_3
REMARK    3  A    between atoms: C_4  and  C_21
REMARK    4  A    between atoms: C_7  and  S_8
REMARK    5  A    between atoms: S_8  and  C_9
REMARK    6  A    between atoms: C_9  and  C_10
REMARK    7  A    between atoms: N_12  and  C_13
REMARK    8  A    between atoms: C_21  and  C_23
REMARK    9  A    between atoms: C_21  and  N_26
REMARK   10  A    between atoms: C_23  and  C_24
REMARK   11  A    between atoms: C_23  and  C_25
REMARK   12  A    between atoms: C_28  and  C_30
REMARK   13  A    between atoms: C_34  and  C_36
REMARK                            x       y       z     vdW  Elec       q    Type
REMARK                         _______ _______ _______ _____ _____    ______ ____
ROOT
ATOM      1  N   UNL     1      -0.070   1.103  -4.070  0.00  0.00    -0.305 N 
ATOM      2  C   UNL     1       0.945   0.394  -4.651  0.00  0.00    +0.155 A 
ATOM      3  N   UNL     1       1.668  -0.106  -3.689  0.00  0.00    -0.132 NA
ATOM      4  N   UNL     1       1.186   0.239  -2.549  0.00  0.00    -0.122 NA
ATOM      5  C   UNL     1       0.115   0.979  -2.723  0.00  0.00    +0.192 A 
ENDROOT
BRANCH   1   7
ATOM      6  C   UNL     1      -0.681   3.283  -4.995  0.00  0.00    +0.027 C 
ATOM      7  C   UNL     1      -1.135   1.843  -4.752  0.00  0.00    +0.122 C 
ENDBRANCH   1   7
BRANCH   5   8
ATOM      8  S   UNL     1      -0.889   1.683  -1.458  0.00  0.00    -0.077 S 
BRANCH   8   9
ATOM      9  C   UNL     1      -0.016   1.080   0.008  0.00  0.00    +0.173 C 
BRANCH   9  10
ATOM     10  C   UNL     1      -0.717   1.573   1.248  0.00  0.00    +0.227 C 
ATOM     11  O   UNL     1      -1.709   2.265   1.150  0.00  0.00    -0.275 OA
ATOM     12  N   UNL     1      -0.242   1.246   2.466  0.00  0.00    -0.285 N 
ATOM     13  H   UNL     1       0.511   0.639   2.546  0.00  0.00    +0.155 HD
BRANCH  12  14
ATOM     14  C   UNL     1      -0.834   1.782   3.615  0.00  0.00    +0.035 A 
ATOM     15  C   UNL     1      -0.052   2.086   4.723  0.00  0.00    +0.025 A 
ATOM     16  C   UNL     1      -0.637   2.621   5.854  0.00  0.00    +0.023 A 
ATOM     17  C   UNL     1      -2.002   2.843   5.889  0.00  0.00    +0.059 A 
ATOM     18  C   UNL     1      -2.785   2.535   4.789  0.00  0.00    +0.061 A 
ATOM     19  C   UNL     1      -2.203   2.006   3.652  0.00  0.00    +0.044 A 
ATOM     20 CL   UNL     1      -4.498   2.815   4.837  0.00  0.00    -0.082 Cl
ATOM     21 CL   UNL     1      -2.736   3.509   7.315  0.00  0.00    -0.082 Cl
ENDBRANCH  12  14
ENDBRANCH   9  10
ENDBRANCH   8   9
ENDBRANCH   5   8
BRANCH   2  22
ATOM     22  C   UNL     1       1.183   0.223  -6.129  0.00  0.00    +0.144 C 
BRANCH  22  23
ATOM     23  N   UNL     1       2.605   0.421  -6.421  0.00  0.00    -0.301 N 
ATOM     24  H   UNL     1       3.268   0.269  -5.729  0.00  0.00    +0.150 HD
ATOM     25  C   UNL     1       2.992   0.816  -7.650  0.00  0.00    +0.245 C 
ATOM     26  O   UNL     1       2.162   1.008  -8.516  0.00  0.00    -0.270 OA
BRANCH  25  27
ATOM     27  C   UNL     1       4.427   1.017  -7.944  0.00  0.00    +0.037 A 
ATOM     28  C   UNL     1       5.384   0.798  -6.951  0.00  0.00    +0.013 A 
ATOM     29  C   UNL     1       6.721   0.987  -7.232  0.00  0.00    +0.001 A 
ATOM     30  C   UNL     1       7.115   1.391  -8.495  0.00  0.00    +0.003 A 
ATOM     31  C   UNL     1       6.172   1.609  -9.484  0.00  0.00    -0.050 A 
ATOM     32  C   UNL     1       4.832   1.420  -9.217  0.00  0.00    +0.016 A 
ATOM     33  C   UNL     1       6.611   2.049 -10.857  0.00  0.00    +0.044 C 
ENDBRANCH  25  27
ENDBRANCH  22  23
BRANCH  22  34
ATOM     34  C   UNL     1       0.768  -1.188  -6.553  0.00  0.00    +0.011 C 
ATOM     35  C   UNL     1      -0.717  -1.395  -6.248  0.00  0.00    +0.009 C 
ATOM     36  C   UNL     1       1.010  -1.361  -8.053  0.00  0.00    +0.009 C 
ENDBRANCH  22  34
ENDBRANCH   2  22
TORSDOF 9
