REMARK  Name = ZINC16284644
REMARK  9 active torsions:
REMARK  status: ('A' for Active; 'I' for Inactive)
REMARK    1  A    between atoms: C_1  and  C_2
REMARK    2  A    between atoms: C_5  and  O_9
REMARK    3  A    between atoms: O_9  and  C_10
REMARK    4  A    between atoms: C_10  and  C_11
REMARK    5  A    between atoms: N_13  and  N_14
REMARK    6  A    between atoms: C_15  and  C_16
REMARK    7  A    between atoms: C_15  and  C_17
REMARK    8  A    between atoms: C_17  and  C_18
REMARK    9  A    between atoms: N_20  and  C_21
REMARK                            x       y       z     vdW  Elec       q    Type
REMARK                         _______ _______ _______ _____ _____    ______ ____
ROOT
ATOM      1  N   UNL     1       4.177   6.935  -0.618  0.00  0.00    -0.189 NA
ATOM      2  C   UNL     1       3.707   6.194   0.315  0.00  0.00    +0.043 C 
ATOM      3  C   UNL     1       4.566   5.842   1.502  0.00  0.00    +0.063 C 
ENDROOT
BRANCH   1   6
ATOM      4  C   UNL     1       5.985   8.196  -1.516  0.00  0.00    +0.270 C 
ATOM      5  O   UNL     1       5.294   8.480  -2.472  0.00  0.00    -0.270 OA
ATOM      6  N   UNL     1       5.490   7.417  -0.535  0.00  0.00    -0.204 N 
ATOM      7  H   UNL     1       6.043   7.190   0.230  0.00  0.00    +0.177 HD
BRANCH   4   8
ATOM      8  C   UNL     1       7.397   8.715  -1.427  0.00  0.00    +0.326 C 
BRANCH   8   9
ATOM      9  O   UNL     1       7.686   9.511  -2.579  0.00  0.00    -0.482 OA
BRANCH   9  14
ATOM     10  C   UNL     1      12.834  11.776  -2.895  0.00  0.00    +0.044 C 
ATOM     11  C   UNL     1      11.456  11.171  -2.810  0.00  0.00    -0.049 A 
ATOM     12  C   UNL     1      11.111  10.390  -1.722  0.00  0.00    +0.007 A 
ATOM     13  C   UNL     1       9.849   9.834  -1.642  0.00  0.00    +0.047 A 
ATOM     14  C   UNL     1       8.928  10.058  -2.655  0.00  0.00    +0.135 A 
ATOM     15  C   UNL     1       9.278  10.837  -3.748  0.00  0.00    +0.060 A 
ATOM     16  C   UNL     1      10.540  11.396  -3.821  0.00  0.00    +0.022 A 
ATOM     17 BR   UNL     1       8.028  11.140  -5.134  0.00  0.00    -0.047 Br
ENDBRANCH   9  14
ENDBRANCH   8   9
ENDBRANCH   4   8
ENDBRANCH   1   6
BRANCH   2  18
ATOM     18  C   UNL     1       2.295   5.676   0.226  0.00  0.00    +0.148 C 
BRANCH  18  19
ATOM     19  C   UNL     1       2.318   4.174   0.104  0.00  0.00    +0.223 C 
ATOM     20  O   UNL     1       3.377   3.583   0.091  0.00  0.00    -0.275 OA
ATOM     21  N   UNL     1       1.162   3.487   0.010  0.00  0.00    -0.284 N 
ATOM     22  H   UNL     1       0.319   3.963  -0.045  0.00  0.00    +0.155 HD
BRANCH  21  23
ATOM     23  C   UNL     1       1.179   2.088  -0.009  0.00  0.00    +0.053 A 
ATOM     24  C   UNL     1       2.222   1.413  -0.628  0.00  0.00    +0.044 A 
ATOM     25  C   UNL     1       2.236   0.031  -0.644  0.00  0.00    +0.043 A 
ATOM     26  C   UNL     1       1.210  -0.680  -0.045  0.00  0.00    +0.021 A 
ATOM     27  C   UNL     1       0.170  -0.011   0.572  0.00  0.00    +0.023 A 
ATOM     28  C   UNL     1       0.151   1.371   0.592  0.00  0.00    +0.062 A 
ATOM     29 CL   UNL     1      -1.160   2.211   1.361  0.00  0.00    -0.082 Cl
ATOM     30 CL   UNL     1       3.540  -0.815  -1.417  0.00  0.00    -0.083 Cl
ENDBRANCH  21  23
ENDBRANCH  18  19
ENDBRANCH   2  18
TORSDOF 7
