REMARK  Name = ZINC33693011
REMARK  11 active torsions:
REMARK  status: ('A' for Active; 'I' for Inactive)
REMARK    1  A    between atoms: C_1  and  C_2
REMARK    2  A    between atoms: C_2  and  C_3
REMARK    3  A    between atoms: C_7  and  N_9
REMARK    4  A    between atoms: N_12  and  C_13
REMARK    5  A    between atoms: N_12  and  C_20
REMARK    6  A    between atoms: C_13  and  C_14
REMARK    7  A    between atoms: C_20  and  C_21
REMARK    8  A    between atoms: N_23  and  C_24
REMARK    9  A    between atoms: N_23  and  C_34
REMARK   10  A    between atoms: C_24  and  C_25
REMARK   11  A    between atoms: C_34  and  C_35
REMARK                            x       y       z     vdW  Elec       q    Type
REMARK                         _______ _______ _______ _____ _____    ______ ____
ROOT
ATOM      1  C   UNL     1       3.447   4.812  -0.058  0.00  0.00    +0.205 C 
ENDROOT
BRANCH   1   5
ATOM      2  N   UNL     1       3.677   2.227   2.547  0.00  0.00    -0.269 N 
ATOM      3  C   UNL     1       4.007   3.229   1.708  0.00  0.00    +0.307 C 
ATOM      4  O   UNL     1       5.133   3.687   1.722  0.00  0.00    -0.252 OA
ATOM      5  N   UNL     1       3.088   3.723   0.854  0.00  0.00    -0.274 N 
ATOM      6  H   UNL     1       2.637   1.872   2.597  0.00  0.00    +0.156 HD
BRANCH   2  11
ATOM      7  C   UNL     1       6.927   0.946   3.693  0.00  0.00    -0.046 A 
ATOM      8  C   UNL     1       6.594   0.475   4.951  0.00  0.00    +0.004 A 
ATOM      9  C   UNL     1       5.295   0.585   5.411  0.00  0.00    +0.002 A 
ATOM     10  C   UNL     1       4.326   1.165   4.617  0.00  0.00    +0.023 A 
ATOM     11  C   UNL     1       4.657   1.639   3.354  0.00  0.00    +0.035 A 
ATOM     12  C   UNL     1       5.961   1.523   2.892  0.00  0.00    +0.027 A 
BRANCH   7  14
ATOM     13  C   UNL     1       8.514  -0.507   2.461  0.00  0.00    +0.009 C 
ATOM     14  C   UNL     1       8.344   0.825   3.195  0.00  0.00    +0.032 C 
ENDBRANCH   7  14
ENDBRANCH   2  11
BRANCH   5  15
ATOM     15  C   UNL     1       1.732   3.171   0.838  0.00  0.00    +0.141 C 
BRANCH  15  16
ATOM     16  C   UNL     1       1.663   2.014  -0.161  0.00  0.00    +0.136 C 
ATOM     17  C   UNL     1       0.213   1.498  -0.287  0.00  0.00    +0.035 C 
ATOM     18  C   UNL     1       0.371  -0.031  -0.442  0.00  0.00    +0.031 C 
ATOM     19  C   UNL     1       1.899  -0.258  -0.390  0.00  0.00    +0.160 C 
ATOM     20  O   UNL     1       2.417   0.883   0.328  0.00  0.00    -0.375 OA
ENDBRANCH  15  16
ENDBRANCH   5  15
ENDBRANCH   1   5
BRANCH   1  21
ATOM     21  C   UNL     1       3.172   6.136   0.608  0.00  0.00    +0.234 C 
ATOM     22  O   UNL     1       2.721   6.167   1.733  0.00  0.00    -0.274 OA
ATOM     23  N   UNL     1       3.428   7.286  -0.047  0.00  0.00    -0.289 N 
BRANCH  23  24
ATOM     24  C   UNL     1       3.160   8.572   0.600  0.00  0.00    +0.143 C 
BRANCH  24  25
ATOM     25  C   UNL     1       4.387   9.022   1.350  0.00  0.00    -0.026 A 
ATOM     26  C   UNL     1       4.558   8.660   2.674  0.00  0.00    +0.009 A 
ATOM     27  C   UNL     1       5.684   9.066   3.365  0.00  0.00    +0.050 A 
ATOM     28  C   UNL     1       6.640   9.846   2.736  0.00  0.00    +0.166 A 
ATOM     29  C   UNL     1       6.466  10.215   1.404  0.00  0.00    +0.167 A 
ATOM     30  C   UNL     1       5.337   9.800   0.716  0.00  0.00    +0.054 A 
ATOM     31  O   UNL     1       7.533  10.974   1.019  0.00  0.00    -0.453 OA
ATOM     32  C   UNL     1       8.556  10.725   2.001  0.00  0.00    +0.466 C 
ATOM     33  O   UNL     1       7.816  10.374   3.184  0.00  0.00    -0.453 OA
ENDBRANCH  24  25
ENDBRANCH  23  24
BRANCH  23  34
ATOM     34  C   UNL     1       3.973   7.248  -1.407  0.00  0.00    +0.182 C 
BRANCH  34  35
ATOM     35  C   UNL     1       2.841   7.228  -2.401  0.00  0.00    +0.122 A 
ATOM     36  C   UNL     1       2.255   8.307  -2.949  0.00  0.00    +0.046 A 
ATOM     37  C   UNL     1       1.249   7.830  -3.820  0.00  0.00    +0.041 A 
ATOM     38  C   UNL     1       1.281   6.487  -3.752  0.00  0.00    +0.195 A 
ATOM     39  O   UNL     1       2.251   6.127  -2.896  0.00  0.00    -0.466 OA
ENDBRANCH  34  35
ENDBRANCH  23  34
ENDBRANCH   1  21
TORSDOF 10
