REMARK  Name = ZINC63627427
REMARK  4 active torsions:
REMARK  status: ('A' for Active; 'I' for Inactive)
REMARK    1  A    between atoms: C_4  and  S_7
REMARK    2  A    between atoms: S_7  and  N_10
REMARK    3  A    between atoms: N_10  and  C_11
REMARK    4  A    between atoms: C_14  and  C_17
REMARK                            x       y       z     vdW  Elec       q    Type
REMARK                         _______ _______ _______ _____ _____    ______ ____
ROOT
ATOM      1  C   UNL     1       3.438  -1.982   2.291  0.00  0.00    +0.048 A 
ATOM      2  C   UNL     1       2.064  -1.996   2.088  0.00  0.00    +0.025 A 
ATOM      3  C   UNL     1       1.270  -2.865   2.810  0.00  0.00    +0.008 A 
ATOM      4  C   UNL     1       1.841  -3.721   3.734  0.00  0.00    -0.021 A 
ATOM      5  C   UNL     1       3.209  -3.709   3.939  0.00  0.00    +0.008 A 
ATOM      6  C   UNL     1       4.010  -2.846   3.217  0.00  0.00    +0.025 A 
ENDROOT
BRANCH   4   7
ATOM      7  C   UNL     1       0.971  -4.667   4.520  0.00  0.00    +0.133 C 
ATOM      8  C   UNL     1       1.073  -6.064   3.950  0.00  0.00    +0.012 C 
ATOM      9  C   UNL     1       1.563  -6.840   4.944  0.00  0.00    -0.001 A 
ATOM     10  C   UNL     1       1.886  -8.270   5.021  0.00  0.00    +0.048 A 
ATOM     11  C   UNL     1       2.374  -8.771   6.180  0.00  0.00    +0.124 A 
ATOM     12  C   UNL     1       2.578  -7.958   7.307  0.00  0.00    +0.040 A 
ATOM     13  C   UNL     1       2.304  -6.637   7.311  0.00  0.00    +0.029 A 
ATOM     14  C   UNL     1       1.788  -6.005   6.146  0.00  0.00    +0.043 A 
ATOM     15  N   UNL     1       1.448  -4.761   5.905  0.00  0.00    -0.374 N 
ATOM     16  F   UNL     1       2.671 -10.087   6.255  0.00  0.00    -0.205 F 
ATOM     17  H   UNL     1       1.504  -4.026   6.535  0.00  0.00    +0.161 HD
ENDBRANCH   4   7
BRANCH   1  18
ATOM     18  N   UNL     1       4.245  -1.104   1.563  0.00  0.00    -0.216 N 
ATOM     19  H   UNL     1       4.609  -0.313   1.990  0.00  0.00    +0.174 HD
BRANCH  18  20
ATOM     20  S   UNL     1       4.578  -1.414  -0.029  0.00  0.00    +0.072 S 
ATOM     21  O   UNL     1       5.474  -0.400  -0.462  0.00  0.00    -0.150 OA
ATOM     22  O   UNL     1       3.330  -1.651  -0.667  0.00  0.00    -0.150 OA
BRANCH  20  26
ATOM     23  C   UNL     1       6.871  -5.314  -0.184  0.00  0.00    +0.000 A 
ATOM     24  C   UNL     1       5.501  -5.310  -0.370  0.00  0.00    +0.002 A 
ATOM     25  C   UNL     1       4.801  -4.119  -0.322  0.00  0.00    +0.029 A 
ATOM     26  C   UNL     1       5.470  -2.933  -0.088  0.00  0.00    +0.108 A 
ATOM     27  C   UNL     1       6.840  -2.937   0.098  0.00  0.00    +0.029 A 
ATOM     28  C   UNL     1       7.540  -4.128   0.049  0.00  0.00    +0.002 A 
ENDBRANCH  20  26
ENDBRANCH  18  20
ENDBRANCH   1  18
TORSDOF 4
