REMARK  Name = ZINC28156329
REMARK  8 active torsions:
REMARK  status: ('A' for Active; 'I' for Inactive)
REMARK    1  A    between atoms: C_1  and  C_2
REMARK    2  A    between atoms: C_5  and  C_8
REMARK    3  A    between atoms: C_11  and  C_14
REMARK    4  A    between atoms: C_23  and  C_26
REMARK    5  A    between atoms: C_26  and  C_27
REMARK    6  A    between atoms: N_29  and  C_30
REMARK    7  A    between atoms: C_33  and  C_36
REMARK    8  A    between atoms: C_36  and  C_38
REMARK                            x       y       z     vdW  Elec       q    Type
REMARK                         _______ _______ _______ _____ _____    ______ ____
ROOT
ATOM      1  C   UNL     1       2.716   0.805  -0.978  0.00  0.00    +0.069 C 
ATOM      2  N   UNL     1       2.848  -0.469  -0.838  0.00  0.00    -0.182 NA
ATOM      3  N   UNL     1       4.168  -0.891  -0.692  0.00  0.00    -0.195 N 
ATOM      4  C   UNL     1       5.052   0.284  -0.742  0.00  0.00    +0.142 C 
ATOM      5  C   UNL     1       4.077   1.461  -0.944  0.00  0.00    +0.087 C 
ATOM      6  C   UNL     1       4.574  -2.184  -0.529  0.00  0.00    +0.170 C 
ATOM      7  N   UNL     1       5.811  -2.643  -0.386  0.00  0.00    -0.157 NA
ATOM      8  C   UNL     1       6.116  -3.903  -0.235  0.00  0.00    +0.252 C 
ATOM      9  O   UNL     1       7.263  -4.283  -0.107  0.00  0.00    -0.272 OA
ATOM     10  C   UNL     1       4.934  -4.864  -0.231  0.00  0.00    +0.150 C 
ATOM     11  S   UNL     1       3.564  -3.658  -0.452  0.00  0.00    -0.078 S 
ENDROOT
BRANCH   1  16
ATOM     12  C   UNL     1      -2.283   3.568  -1.651  0.00  0.00    +0.044 C 
ATOM     13  C   UNL     1      -0.974   2.844  -1.474  0.00  0.00    -0.050 A 
ATOM     14  C   UNL     1      -0.961   1.467  -1.339  0.00  0.00    +0.004 A 
ATOM     15  C   UNL     1       0.234   0.799  -1.171  0.00  0.00    +0.010 A 
ATOM     16  C   UNL     1       1.434   1.514  -1.150  0.00  0.00    -0.002 A 
ATOM     17  C   UNL     1       1.414   2.903  -1.293  0.00  0.00    +0.010 A 
ATOM     18  C   UNL     1       0.211   3.559  -1.454  0.00  0.00    +0.004 A 
ENDBRANCH   1  16
BRANCH   4  19
ATOM     19  C   UNL     1       5.810   0.432   0.552  0.00  0.00    +0.012 A 
ATOM     20  C   UNL     1       7.095   0.815   0.750  0.00  0.00    +0.013 A 
ATOM     21  C   UNL     1       7.584   0.882   2.041  0.00  0.00    +0.008 A 
ATOM     22  C   UNL     1       6.764   0.563   3.072  0.00  0.00    +0.045 A 
ATOM     23  S   UNL     1       5.246   0.158   2.224  0.00  0.00    -0.100 S 
ENDBRANCH   4  19
BRANCH  10  24
ATOM     24  C   UNL     1       4.814  -5.597   1.107  0.00  0.00    +0.120 C 
BRANCH  24  25
ATOM     25  C   UNL     1       3.712  -6.622   1.022  0.00  0.00    +0.219 C 
ATOM     26  O   UNL     1       3.084  -6.752  -0.007  0.00  0.00    -0.275 OA
ATOM     27  N   UNL     1       3.425  -7.392   2.089  0.00  0.00    -0.285 N 
ATOM     28  H   UNL     1       4.048  -7.333   2.994  0.00  0.00    +0.155 HD
BRANCH  27  29
ATOM     29  C   UNL     1       2.338  -8.263   2.047  0.00  0.00    +0.033 A 
ATOM     30  C   UNL     1       2.397  -9.479   2.722  0.00  0.00    +0.024 A 
ATOM     31  C   UNL     1       1.329 -10.337   2.688  0.00  0.00    +0.013 A 
ATOM     32  C   UNL     1       0.180  -9.993   1.963  0.00  0.00    +0.017 A 
ATOM     33  C   UNL     1       0.128  -8.771   1.281  0.00  0.00    +0.013 A 
ATOM     34  C   UNL     1       1.199  -7.917   1.326  0.00  0.00    +0.024 A 
BRANCH  32  35
ATOM     35  C   UNL     1      -0.965 -10.912   1.919  0.00  0.00    +0.160 C 
ATOM     36  O   UNL     1      -1.918 -10.659   1.212  0.00  0.00    -0.292 OA
ATOM     37  C   UNL     1      -0.957 -12.168   2.752  0.00  0.00    +0.091 C 
ENDBRANCH  32  35
ENDBRANCH  27  29
ENDBRANCH  24  25
ENDBRANCH  10  24
TORSDOF 6
