REMARK  Name = ZINC20752609
REMARK  4 active torsions:
REMARK  status: ('A' for Active; 'I' for Inactive)
REMARK    1  A    between atoms: C_1  and  O_2
REMARK    2  A    between atoms: O_2  and  C_3
REMARK    3  A    between atoms: C_6  and  N_24
REMARK    4  A    between atoms: C_10  and  C_19
REMARK                            x       y       z     vdW  Elec       q    Type
REMARK                         _______ _______ _______ _____ _____    ______ ____
ROOT
ATOM      1  C   UNL     1      -3.141   6.973   2.090  0.00  0.00    +0.141 A 
ATOM      2  C   UNL     1      -4.114   7.953   2.160  0.00  0.00    +0.050 A 
ATOM      3  C   UNL     1      -4.980   8.135   1.097  0.00  0.00    +0.037 A 
ATOM      4  C   UNL     1      -4.873   7.341  -0.026  0.00  0.00    +0.132 A 
ATOM      5  C   UNL     1      -3.900   6.352  -0.107  0.00  0.00    +0.014 A 
ATOM      6  C   UNL     1      -3.031   6.168   0.952  0.00  0.00    +0.076 A 
ATOM      7  N   UNL     1      -2.046   5.200   0.935  0.00  0.00    -0.333 N 
ATOM      8  C   UNL     1      -2.355   4.080   0.046  0.00  0.00    +0.112 C 
ATOM      9  C   UNL     1      -2.600   4.606  -1.370  0.00  0.00    +0.029 C 
ATOM     10  C   UNL     1      -3.842   5.523  -1.355  0.00  0.00    +0.051 C 
ATOM     11  C   UNL     1      -5.008   4.529  -1.426  0.00  0.00    -0.023 C 
ATOM     12  C   UNL     1      -4.606   3.377  -1.903  0.00  0.00    -0.030 C 
ATOM     13  C   UNL     1      -3.127   3.424  -2.232  0.00  0.00    +0.033 C 
ATOM     14  H   UNL     1      -1.105   5.207   1.505  0.00  0.00    +0.147 HD
ENDROOT
BRANCH   8  15
ATOM     15  C   UNL     1      -1.196   3.116   0.030  0.00  0.00    +0.010 A 
ATOM     16  C   UNL     1      -1.213   1.761   0.017  0.00  0.00    +0.013 A 
ATOM     17  C   UNL     1      -0.013   1.076   0.008  0.00  0.00    +0.008 A 
ATOM     18  C   UNL     1       1.146   1.780   0.001  0.00  0.00    +0.045 A 
ATOM     19  S   UNL     1       0.555   3.464   0.015  0.00  0.00    -0.100 S 
ENDBRANCH   8  15
BRANCH   4  20
ATOM     20  N   UNL     1      -5.804   7.545  -1.158  0.00  0.00    +0.057 N 
ATOM     21  O   UNL     1      -6.660   8.410  -1.095  0.00  0.00    -0.126 OA
ATOM     22  O   UNL     1      -5.715   6.849  -2.153  0.00  0.00    -0.126 OA
ENDBRANCH   4  20
BRANCH   1  24
ATOM     23  C   UNL     1      -2.455   7.647   4.266  0.00  0.00    +0.277 C 
ATOM     24  O   UNL     1      -2.288   6.791   3.134  0.00  0.00    -0.493 OA
ENDBRANCH   1  24
TORSDOF 3
