REMARK  Name = ZINC39668990
REMARK  4 active torsions:
REMARK  status: ('A' for Active; 'I' for Inactive)
REMARK    1  A    between atoms: C_10  and  C_12
REMARK    2  A    between atoms: C_12  and  N_13
REMARK    3  A    between atoms: C_14  and  C_16
REMARK    4  A    between atoms: C_27  and  C_29
REMARK                            x       y       z     vdW  Elec       q    Type
REMARK                         _______ _______ _______ _____ _____    ______ ____
ROOT
ATOM      1  C   UNL     1       8.873  -1.231   1.274  0.00  0.00    +0.100 C 
ATOM      2  C   UNL     1       9.156  -0.845  -0.195  0.00  0.00    +0.121 C 
ATOM      3  N   UNL     1       9.938   0.411  -0.108  0.00  0.00    -0.296 N 
ATOM      4  C   UNL     1      10.846   0.201   1.044  0.00  0.00    +0.115 C 
ATOM      5  C   UNL     1       9.987  -0.546   2.084  0.00  0.00    -0.004 C 
ATOM      6  C   UNL     1      10.828  -1.589   2.813  0.00  0.00    -0.010 C 
ATOM      7  C   UNL     1      11.891  -0.881   3.658  0.00  0.00    -0.082 C 
ATOM      8  N   UNL     1      11.238   0.012   4.622  0.00  0.00    +0.379 N 
ATOM      9  C   UNL     1      10.507   1.068   3.912  0.00  0.00    -0.082 C 
ATOM     10  C   UNL     1       9.385   0.443   3.078  0.00  0.00    -0.010 C 
ATOM     11  C   UNL     1       9.844   1.499  -0.899  0.00  0.00    +0.247 C 
ATOM     12  O   UNL     1       8.960   1.572  -1.730  0.00  0.00    -0.270 OA
ATOM     13  H   UNL     1      10.593  -0.520   5.188  0.00  0.00    -0.086 HD
ATOM     14  H   UNL     1      11.937   0.431   5.218  0.00  0.00    -0.086 HD
ENDROOT
BRANCH  11  15
ATOM     15  C   UNL     1      10.817   2.603  -0.755  0.00  0.00    +0.037 A 
ATOM     16  C   UNL     1      12.053   2.373  -0.149  0.00  0.00    +0.014 A 
ATOM     17  C   UNL     1      12.957   3.407  -0.018  0.00  0.00    +0.016 A 
ATOM     18  C   UNL     1      12.639   4.671  -0.486  0.00  0.00    +0.018 A 
ATOM     19  C   UNL     1      11.415   4.905  -1.088  0.00  0.00    +0.016 A 
ATOM     20  C   UNL     1      10.505   3.878  -1.230  0.00  0.00    +0.014 A 
ATOM     21 BR   UNL     1      13.883   6.083  -0.302  0.00  0.00    -0.050 Br
ENDBRANCH  11  15
BRANCH   1  23
ATOM     22  N   UNL     1       6.868  -1.308   2.720  0.00  0.00    -0.312 N 
ATOM     23  C   UNL     1       7.522  -0.717   1.700  0.00  0.00    +0.218 C 
ATOM     24  O   UNL     1       7.023   0.228   1.126  0.00  0.00    -0.275 OA
ATOM     25  H   UNL     1       7.267  -2.064   3.179  0.00  0.00    +0.149 HD
BRANCH  22  26
ATOM     26  C   UNL     1       5.554  -0.809   3.135  0.00  0.00    +0.140 C 
BRANCH  26  36
ATOM     27  C   UNL     1       1.040  -0.424   5.207  0.00  0.00    +0.000 A 
ATOM     28  C   UNL     1       1.444  -0.588   3.895  0.00  0.00    +0.000 A 
ATOM     29  C   UNL     1       2.737  -0.983   3.617  0.00  0.00    +0.006 A 
ATOM     30  C   UNL     1       3.635  -1.214   4.648  0.00  0.00    -0.014 A 
ATOM     31  C   UNL     1       3.234  -1.046   5.956  0.00  0.00    -0.040 A 
ATOM     32  C   UNL     1       1.934  -0.652   6.235  0.00  0.00    +0.004 A 
ATOM     33  C   UNL     1       4.184  -1.274   7.104  0.00  0.00    +0.063 C 
ATOM     34  C   UNL     1       5.390  -2.083   6.623  0.00  0.00    +0.165 C 
ATOM     35  O   UNL     1       5.897  -1.477   5.428  0.00  0.00    -0.370 OA
ATOM     36  C   UNL     1       5.035  -1.649   4.303  0.00  0.00    +0.165 C 
ENDBRANCH  26  36
ENDBRANCH  22  26
ENDBRANCH   1  23
TORSDOF 4
