REMARK  Name = ZINC67049776
REMARK  4 active torsions:
REMARK  status: ('A' for Active; 'I' for Inactive)
REMARK    1  A    between atoms: C_9  and  C_11
REMARK    2  A    between atoms: C_11  and  C_12
REMARK    3  A    between atoms: N_14  and  C_15
REMARK    4  A    between atoms: N_18  and  C_21
REMARK                            x       y       z     vdW  Elec       q    Type
REMARK                         _______ _______ _______ _____ _____    ______ ____
ROOT
ATOM      1  C   UNL     1       4.188  -5.775  -1.783  0.00  0.00    +0.076 C 
ATOM      2  C   UNL     1       5.267  -5.994  -0.720  0.00  0.00    +0.041 C 
ATOM      3  C   UNL     1       5.605  -7.486  -0.642  0.00  0.00    +0.108 C 
ATOM      4  N   UNL     1       5.975  -7.958  -1.983  0.00  0.00    -0.313 N 
ATOM      5  C   UNL     1       5.048  -7.717  -3.098  0.00  0.00    +0.108 C 
ATOM      6  C   UNL     1       4.716  -6.222  -3.148  0.00  0.00    +0.041 C 
ENDROOT
BRANCH   4   7
ATOM      7  C   UNL     1       7.174  -8.616  -2.193  0.00  0.00    +0.152 A 
ATOM      8  C   UNL     1       7.476  -9.178  -3.446  0.00  0.00    +0.147 A 
ATOM      9  N   UNL     1       6.832  -9.255  -4.635  0.00  0.00    -0.231 NA
ATOM     10  C   UNL     1       7.574  -9.901  -5.488  0.00  0.00    +0.198 A 
ATOM     11  N   UNL     1       8.742 -10.280  -4.896  0.00  0.00    -0.329 N 
ATOM     12  C   UNL     1       8.709  -9.835  -3.598  0.00  0.00    +0.163 A 
ATOM     13  N   UNL     1       9.538  -9.900  -2.562  0.00  0.00    -0.216 NA
ATOM     14  C   UNL     1       9.213  -9.358  -1.407  0.00  0.00    +0.225 A 
ATOM     15  N   UNL     1       8.069  -8.728  -1.217  0.00  0.00    -0.218 NA
ATOM     16  H   UNL     1       9.464 -10.773  -5.315  0.00  0.00    +0.168 HD
ENDBRANCH   4   7
BRANCH   1  19
ATOM     17  C   UNL     1       2.921  -3.852  -0.986  0.00  0.00    +0.216 C 
ATOM     18  O   UNL     1       2.385  -4.578  -0.175  0.00  0.00    -0.276 OA
ATOM     19  N   UNL     1       3.838  -4.353  -1.837  0.00  0.00    -0.312 N 
ATOM     20  H   UNL     1       4.266  -3.772  -2.485  0.00  0.00    +0.149 HD
BRANCH  17  21
ATOM     21  C   UNL     1       2.561  -2.390  -1.041  0.00  0.00    +0.132 C 
BRANCH  21  30
ATOM     22  C   UNL     1      -0.009   1.373   0.099  0.00  0.00    +0.011 A 
ATOM     23  C   UNL     1       1.157   2.061   0.111  0.00  0.00    +0.046 A 
ATOM     24  S   UNL     1       2.364   0.744   0.083  0.00  0.00    -0.099 S 
ATOM     25  C   UNL     1       1.231  -0.616   0.056  0.00  0.00    +0.022 A 
ATOM     26  C   UNL     1       0.006  -0.018   0.071  0.00  0.00    -0.033 A 
ATOM     27  C   UNL     1      -1.246  -0.892   0.058  0.00  0.00    +0.064 C 
ATOM     28  C   UNL     1      -0.840  -2.309   0.472  0.00  0.00    +0.165 C 
ATOM     29  O   UNL     1       0.276  -2.753  -0.305  0.00  0.00    -0.371 OA
ATOM     30  C   UNL     1       1.505  -2.083   0.022  0.00  0.00    +0.164 C 
ENDBRANCH  21  30
ENDBRANCH  17  21
ENDBRANCH   1  19
TORSDOF 4
