REMARK  Name = ZINC38891171
REMARK  7 active torsions:
REMARK  status: ('A' for Active; 'I' for Inactive)
REMARK    1  A    between atoms: C_1  and  C_2
REMARK    2  A    between atoms: C_6  and  N_9
REMARK    3  A    between atoms: C_7  and  C_8
REMARK    4  A    between atoms: N_9  and  C_10
REMARK    5  A    between atoms: C_10  and  C_11
REMARK    6  A    between atoms: C_23  and  C_25
REMARK    7  A    between atoms: C_28  and  N_31
REMARK                            x       y       z     vdW  Elec       q    Type
REMARK                         _______ _______ _______ _____ _____    ______ ____
ROOT
ATOM      1  N   UNL     1      -0.024  -2.700   2.511  0.00  0.00    -0.266 N 
ATOM      2  C   UNL     1      -1.196  -3.180   2.973  0.00  0.00    +0.251 C 
ATOM      3  O   UNL     1      -1.203  -4.061   3.811  0.00  0.00    -0.270 OA
ENDROOT
BRANCH   1   9
ATOM      4  C   UNL     1       0.590  -1.692  -2.261  0.00  0.00    +0.044 C 
ATOM      5  C   UNL     1       0.282  -1.250  -0.853  0.00  0.00    -0.046 A 
ATOM      6  C   UNL     1       0.010   0.080  -0.591  0.00  0.00    +0.004 A 
ATOM      7  C   UNL     1      -0.273   0.489   0.699  0.00  0.00    +0.002 A 
ATOM      8  C   UNL     1      -0.285  -0.430   1.730  0.00  0.00    +0.024 A 
ATOM      9  C   UNL     1      -0.013  -1.767   1.470  0.00  0.00    +0.040 A 
ATOM     10  C   UNL     1       0.266  -2.175   0.172  0.00  0.00    -0.026 A 
ATOM     11  C   UNL     1       0.556  -3.626  -0.117  0.00  0.00    +0.046 C 
ENDBRANCH   1   9
BRANCH   2  12
ATOM     12  C   UNL     1      -2.471  -2.635   2.462  0.00  0.00    +0.037 A 
ATOM     13  C   UNL     1      -2.618  -2.353   1.103  0.00  0.00    +0.015 A 
ATOM     14  C   UNL     1      -3.811  -1.844   0.633  0.00  0.00    +0.033 A 
ATOM     15  C   UNL     1      -4.860  -1.613   1.505  0.00  0.00    +0.126 A 
ATOM     16  C   UNL     1      -4.720  -1.890   2.853  0.00  0.00    +0.033 A 
ATOM     17  C   UNL     1      -3.535  -2.405   3.336  0.00  0.00    +0.015 A 
BRANCH  15  18
ATOM     18  N   UNL     1      -6.137  -1.067   0.993  0.00  0.00    +0.056 N 
ATOM     19  O   UNL     1      -6.262  -0.823  -0.184  0.00  0.00    -0.126 OA
ATOM     20  O   UNL     1      -7.055  -0.863   1.753  0.00  0.00    -0.126 OA
ENDBRANCH  15  18
ENDBRANCH   2  12
BRANCH   1  21
ATOM     21  C   UNL     1       1.238  -3.156   3.100  0.00  0.00    +0.131 C 
BRANCH  21  22
ATOM     22  C   UNL     1       1.667  -2.184   4.201  0.00  0.00    +0.116 C 
ATOM     23  C   UNL     1       3.116  -2.476   4.540  0.00  0.00    -0.003 C 
ATOM     24  C   UNL     1       3.401  -2.803   5.833  0.00  0.00    -0.007 A 
ATOM     25  C   UNL     1       4.772  -3.101   6.247  0.00  0.00    +0.009 A 
ATOM     26  C   UNL     1       5.009  -3.421   7.545  0.00  0.00    +0.001 A 
ATOM     27  C   UNL     1       3.976  -3.472   8.481  0.00  0.00    +0.002 A 
ATOM     28  C   UNL     1       2.683  -3.207   8.161  0.00  0.00    +0.024 A 
ATOM     29  C   UNL     1       2.330  -2.863   6.843  0.00  0.00    +0.040 A 
ATOM     30  N   UNL     1       1.058  -2.604   6.540  0.00  0.00    -0.284 N 
ATOM     31  C   UNL     1       0.658  -2.278   5.323  0.00  0.00    +0.226 C 
ATOM     32  O   UNL     1      -0.518  -2.054   5.107  0.00  0.00    -0.275 OA
ATOM     33  H   UNL     1       0.395  -2.658   7.245  0.00  0.00    +0.155 HD
ENDBRANCH  21  22
ENDBRANCH   1  21
TORSDOF 5
