REMARK  Name = ZINC63669081
REMARK  7 active torsions:
REMARK  status: ('A' for Active; 'I' for Inactive)
REMARK    1  A    between atoms: C_1  and  C_2
REMARK    2  A    between atoms: C_5  and  C_38
REMARK    3  A    between atoms: C_6  and  S_8
REMARK    4  A    between atoms: S_8  and  C_11
REMARK    5  A    between atoms: N_26  and  C_27
REMARK    6  A    between atoms: C_27  and  C_28
REMARK    7  A    between atoms: C_28  and  C_29
REMARK                            x       y       z     vdW  Elec       q    Type
REMARK                         _______ _______ _______ _____ _____    ______ ____
ROOT
ATOM      1  C   UNL     1      -1.533  -4.001   2.674  0.00  0.00    +0.316 C 
ATOM      2  C   UNL     1      -1.796  -4.768   3.980  0.00  0.00    +0.241 C 
ATOM      3  N   UNL     1      -0.649  -4.716   4.883  0.00  0.00    -0.350 N 
ATOM      4  C   UNL     1      -0.814  -4.595   6.174  0.00  0.00    +0.103 C 
ATOM      5  C   UNL     1      -2.163  -4.487   6.765  0.00  0.00    +0.035 A 
ATOM      6  C   UNL     1      -2.411  -4.725   8.110  0.00  0.00    +0.013 A 
ATOM      7  C   UNL     1      -3.695  -4.591   8.601  0.00  0.00    +0.001 A 
ATOM      8  C   UNL     1      -4.736  -4.221   7.766  0.00  0.00    +0.002 A 
ATOM      9  C   UNL     1      -4.507  -3.987   6.421  0.00  0.00    +0.026 A 
ATOM     10  C   UNL     1      -3.233  -4.126   5.918  0.00  0.00    +0.066 A 
ATOM     11  N   UNL     1      -2.905  -3.977   4.571  0.00  0.00    -0.179 N 
ATOM     12  N   UNL     1      -3.355  -3.097   3.604  0.00  0.00    -0.075 NA
ATOM     13  N   UNL     1      -2.658  -3.057   2.584  0.00  0.00    -0.141 NA
ATOM     14  N   UNL     1       0.291  -4.567   6.998  0.00  0.00    -0.330 N 
ATOM     15  H   UNL     1       0.178  -4.477   7.957  0.00  0.00    +0.147 HD
ATOM     16  H   UNL     1       0.248  -4.773   4.519  0.00  0.00    +0.163 HD
ENDROOT
BRANCH   1  17
ATOM     17  S   UNL     1       0.043  -3.106   2.768  0.00  0.00    +0.025 S 
ATOM     18  O   UNL     1       1.129  -4.018   2.680  0.00  0.00    -0.167 OA
ATOM     19  O   UNL     1      -0.007  -2.135   3.804  0.00  0.00    -0.167 OA
BRANCH  17  25
ATOM     20  C   UNL     1      -0.030   1.446   0.200  0.00  0.00    +0.044 C 
ATOM     21  C   UNL     1       0.079  -0.056   0.152  0.00  0.00    -0.049 A 
ATOM     22  C   UNL     1       0.241  -0.699  -1.061  0.00  0.00    +0.004 A 
ATOM     23  C   UNL     1       0.342  -2.077  -1.105  0.00  0.00    +0.005 A 
ATOM     24  C   UNL     1       0.281  -2.812   0.065  0.00  0.00    -0.026 A 
ATOM     25  C   UNL     1       0.120  -2.169   1.277  0.00  0.00    +0.094 A 
ATOM     26  C   UNL     1       0.024  -0.791   1.322  0.00  0.00    +0.030 A 
ATOM     27  C   UNL     1       0.390  -4.314   0.017  0.00  0.00    +0.046 C 
ENDBRANCH  17  25
ENDBRANCH   1  17
BRANCH  14  28
ATOM     28  C   UNL     1       1.635  -4.673   6.425  0.00  0.00    +0.107 C 
BRANCH  28  29
ATOM     29  C   UNL     1       2.674  -4.615   7.547  0.00  0.00    +0.052 C 
BRANCH  29  30
ATOM     30  C   UNL     1       4.056  -4.724   6.958  0.00  0.00    -0.040 C 
ATOM     31  C   UNL     1       4.886  -3.705   6.636  0.00  0.00    -0.001 A 
ATOM     32  C   UNL     1       4.753  -2.247   6.734  0.00  0.00    +0.010 A 
ATOM     33  C   UNL     1       5.778  -1.466   6.321  0.00  0.00    +0.001 A 
ATOM     34  C   UNL     1       6.960  -2.014   5.804  0.00  0.00    +0.002 A 
ATOM     35  C   UNL     1       7.156  -3.344   5.684  0.00  0.00    +0.026 A 
ATOM     36  C   UNL     1       6.144  -4.259   6.087  0.00  0.00    +0.043 A 
ATOM     37  N   UNL     1       6.095  -5.569   6.070  0.00  0.00    -0.380 N 
ATOM     38  C   UNL     1       4.800  -5.995   6.613  0.00  0.00    +0.144 C 
ATOM     39  H   UNL     1       6.798  -6.158   5.755  0.00  0.00    +0.160 HD
ENDBRANCH  29  30
ENDBRANCH  28  29
ENDBRANCH  14  28
TORSDOF 5
