REMARK  Name = ZINC01142219
REMARK  14 active torsions:
REMARK  status: ('A' for Active; 'I' for Inactive)
REMARK    1  A    between atoms: C_1  and  C_2
REMARK    2  A    between atoms: C_4  and  C_39
REMARK    3  A    between atoms: C_5  and  N_9
REMARK    4  A    between atoms: C_6  and  C_8
REMARK    5  A    between atoms: C_10  and  C_12
REMARK    6  A    between atoms: C_12  and  S_13
REMARK    7  A    between atoms: S_13  and  C_14
REMARK    8  A    between atoms: C_15  and  C_37
REMARK    9  A    between atoms: C_16  and  C_32
REMARK   10  A    between atoms: C_18  and  C_22
REMARK   11  A    between atoms: C_19  and  C_21
REMARK   12  A    between atoms: C_22  and  O_24
REMARK   13  A    between atoms: O_24  and  C_25
REMARK   14  A    between atoms: C_25  and  C_26
REMARK                            x       y       z     vdW  Elec       q    Type
REMARK                         _______ _______ _______ _____ _____    ______ ____
ROOT
ATOM      1  C   UNL     1       2.047   1.899  -1.207  0.00  0.00    +0.080 C 
ATOM      2  C   UNL     1       2.009   0.640  -1.722  0.00  0.00    +0.072 C 
ATOM      3  C   UNL     1       0.709  -0.096  -1.884  0.00  0.00    +0.136 C 
ATOM      4  C   UNL     1      -0.377   0.553  -1.076  0.00  0.00    +0.069 C 
ATOM      5  C   UNL     1      -0.249   1.800  -0.593  0.00  0.00    +0.016 C 
ATOM      6  N   UNL     1       0.887   2.528  -0.813  0.00  0.00    -0.312 N 
ATOM      7  C   UNL     1      -1.378   2.409   0.199  0.00  0.00    +0.061 C 
ATOM      8  H   UNL     1       0.873   3.619  -0.675  0.00  0.00    +0.152 HD
ENDROOT
BRANCH   3   9
ATOM      9  C   UNL     1       0.316  -0.091  -3.339  0.00  0.00    +0.118 A 
ATOM     10  C   UNL     1       0.158  -1.179  -4.115  0.00  0.00    +0.045 A 
ATOM     11  C   UNL     1      -0.211  -0.716  -5.399  0.00  0.00    +0.041 A 
ATOM     12  C   UNL     1      -0.258   0.627  -5.330  0.00  0.00    +0.195 A 
ATOM     13  O   UNL     1       0.056   0.999  -4.079  0.00  0.00    -0.467 OA
ENDBRANCH   3   9
BRANCH   4  14
ATOM     14  C   UNL     1      -1.566  -0.167  -0.818  0.00  0.00    +0.338 C 
ATOM     15  O   UNL     1      -1.595  -0.993   0.076  0.00  0.00    -0.245 OA
BRANCH  14  16
ATOM     16  O   UNL     1      -2.669   0.062  -1.561  0.00  0.00    -0.457 OA
BRANCH  16  17
ATOM     17  C   UNL     1      -3.835  -0.702  -1.245  0.00  0.00    +0.268 C 
BRANCH  17  18
ATOM     18  C   UNL     1      -4.957  -0.313  -2.173  0.00  0.00    -0.010 A 
ATOM     19  C   UNL     1      -5.820   0.709  -1.824  0.00  0.00    +0.007 A 
ATOM     20  C   UNL     1      -6.846   1.068  -2.677  0.00  0.00    +0.000 A 
ATOM     21  C   UNL     1      -7.015   0.399  -3.875  0.00  0.00    +0.000 A 
ATOM     22  C   UNL     1      -6.156  -0.626  -4.221  0.00  0.00    +0.000 A 
ATOM     23  C   UNL     1      -5.126  -0.982  -3.370  0.00  0.00    +0.007 A 
ENDBRANCH  17  18
ENDBRANCH  16  17
ENDBRANCH  14  16
ENDBRANCH   4  14
BRANCH   2  24
ATOM     24  C   UNL     1       3.230   0.005  -2.116  0.00  0.00    +0.098 C 
ATOM     25  N   UNL     1       4.199  -0.499  -2.428  0.00  0.00    -0.191 NA
ENDBRANCH   2  24
BRANCH   1  26
ATOM     26  S   UNL     1       3.592   2.729  -1.042  0.00  0.00    -0.100 S 
BRANCH  26  27
ATOM     27  C   UNL     1       3.032   4.297  -0.331  0.00  0.00    +0.171 C 
BRANCH  27  29
ATOM     28  N   UNL     1       4.042   6.423   0.430  0.00  0.00    -0.284 N 
ATOM     29  C   UNL     1       4.219   5.195  -0.097  0.00  0.00    +0.227 C 
ATOM     30  O   UNL     1       5.334   4.813  -0.384  0.00  0.00    -0.275 OA
ATOM     31  H   UNL     1       3.045   6.734   0.775  0.00  0.00    +0.155 HD
BRANCH  28  36
ATOM     32  C   UNL     1       8.437   9.983   0.869  0.00  0.00    +0.044 C 
ATOM     33  C   UNL     1       7.269   9.037   0.752  0.00  0.00    -0.050 A 
ATOM     34  C   UNL     1       6.135   9.423   0.060  0.00  0.00    +0.008 A 
ATOM     35  C   UNL     1       5.064   8.558  -0.048  0.00  0.00    -0.029 A 
ATOM     36  C   UNL     1       5.126   7.301   0.538  0.00  0.00    +0.039 A 
ATOM     37  C   UNL     1       6.263   6.919   1.237  0.00  0.00    -0.029 A 
ATOM     38  C   UNL     1       7.334   7.786   1.337  0.00  0.00    +0.008 A 
ATOM     39  C   UNL     1       6.332   5.558   1.880  0.00  0.00    +0.045 C 
ATOM     40  C   UNL     1       3.828   8.979  -0.802  0.00  0.00    +0.045 C 
ENDBRANCH  28  36
ENDBRANCH  27  29
ENDBRANCH  26  27
ENDBRANCH   1  26
TORSDOF 10
