REMARK  Name = ZINC13064643
REMARK  12 active torsions:
REMARK  status: ('A' for Active; 'I' for Inactive)
REMARK    1  A    between atoms: C_1  and  C_2
REMARK    2  A    between atoms: C_2  and  C_3
REMARK    3  A    between atoms: C_3  and  C_5
REMARK    4  A    between atoms: C_3  and  N_66
REMARK    5  A    between atoms: N_9  and  C_10
REMARK    6  A    between atoms: C_10  and  C_11
REMARK    7  A    between atoms: C_17  and  C_18
REMARK    8  A    between atoms: C_17  and  N_66
REMARK    9  A    between atoms: C_23  and  C_24
REMARK   10  A    between atoms: C_23  and  N_66
REMARK   11  A    between atoms: C_28  and  C_37
REMARK   12  A    between atoms: C_29  and  C_36
REMARK                            x       y       z     vdW  Elec       q    Type
REMARK                         _______ _______ _______ _____ _____    ______ ____
ROOT
ATOM      1  N   UNL     1       3.990   0.518  -2.979  0.00  0.00    +0.394 N 
ATOM      2  H   UNL     1       4.423   0.511  -3.910  0.00  0.00    -0.080 HD
ENDROOT
BRANCH   1   3
ATOM      3  C   UNL     1       4.092   1.879  -2.412  0.00  0.00    +0.003 C 
BRANCH   3   4
ATOM      4  C   UNL     1       3.188   2.804  -3.185  0.00  0.00    +0.138 A 
ATOM      5  N   UNL     1       3.051   2.857  -4.488  0.00  0.00    -0.115 NA
ATOM      6  N   UNL     1       2.193   3.778  -4.761  0.00  0.00    -0.023 NA
ATOM      7  N   UNL     1       1.775   4.311  -3.666  0.00  0.00    -0.044 NA
ATOM      8  N   UNL     1       2.363   3.736  -2.672  0.00  0.00    -0.226 N 
BRANCH   8   9
ATOM      9  C   UNL     1       2.173   4.043  -1.252  0.00  0.00    +0.182 C 
BRANCH   9  10
ATOM     10  C   UNL     1       1.060   3.192  -0.699  0.00  0.00    -0.026 A 
ATOM     11  C   UNL     1       1.342   1.952  -0.155  0.00  0.00    +0.005 A 
ATOM     12  C   UNL     1       0.321   1.171   0.352  0.00  0.00    +0.000 A 
ATOM     13  C   UNL     1      -0.983   1.627   0.311  0.00  0.00    +0.000 A 
ATOM     14  C   UNL     1      -1.265   2.868  -0.227  0.00  0.00    +0.000 A 
ATOM     15  C   UNL     1      -0.244   3.650  -0.735  0.00  0.00    +0.005 A 
ENDBRANCH   9  10
ENDBRANCH   8   9
ENDBRANCH   3   4
BRANCH   3  17
ATOM     16  C   UNL     1       5.688   3.718  -1.852  0.00  0.00    +0.002 C 
ATOM     17  C   UNL     1       5.540   2.357  -2.537  0.00  0.00    -0.011 C 
ENDBRANCH   3  17
ENDBRANCH   1   3
BRANCH   1  18
ATOM     18  C   UNL     1       2.569   0.130  -3.109  0.00  0.00    -0.002 C 
BRANCH  18  19
ATOM     19  C   UNL     1       2.471  -1.037  -4.058  0.00  0.00    +0.089 A 
ATOM     20  C   UNL     1       2.381  -2.332  -3.705  0.00  0.00    +0.042 A 
ATOM     21  C   UNL     1       2.311  -3.079  -4.904  0.00  0.00    +0.041 A 
ATOM     22  C   UNL     1       2.363  -2.196  -5.917  0.00  0.00    +0.195 A 
ATOM     23  O   UNL     1       2.454  -0.960  -5.398  0.00  0.00    -0.470 OA
ENDBRANCH  18  19
ENDBRANCH   1  18
BRANCH   1  24
ATOM     24  C   UNL     1       4.699  -0.446  -2.112  0.00  0.00    -0.036 C 
BRANCH  24  25
ATOM     25  C   UNL     1       4.126  -0.423  -0.718  0.00  0.00    +0.001 A 
ATOM     26  C   UNL     1       3.155  -1.304  -0.373  0.00  0.00    +0.017 A 
ATOM     27  C   UNL     1       2.619  -1.256   0.989  0.00  0.00    -0.001 A 
ATOM     28  C   UNL     1       1.617  -2.140   1.404  0.00  0.00    +0.013 A 
ATOM     29  C   UNL     1       1.138  -2.069   2.681  0.00  0.00    -0.047 A 
ATOM     30  C   UNL     1       1.638  -1.129   3.572  0.00  0.00    -0.046 A 
ATOM     31  C   UNL     1       2.625  -0.249   3.185  0.00  0.00    +0.030 A 
ATOM     32  C   UNL     1       3.128  -0.302   1.889  0.00  0.00    +0.049 A 
ATOM     33  N   UNL     1       4.117   0.566   1.476  0.00  0.00    -0.322 N 
ATOM     34  H   UNL     1       4.467   1.223   2.098  0.00  0.00    +0.169 HD
ATOM     35  C   UNL     1       4.606   0.511   0.225  0.00  0.00    +0.251 A 
ATOM     36  O   UNL     1       5.483   1.291  -0.105  0.00  0.00    -0.268 OA
ATOM     37  C   UNL     1       1.094  -1.069   4.976  0.00  0.00    +0.044 C 
ATOM     38  C   UNL     1       0.058  -3.021   3.128  0.00  0.00    +0.044 C 
ENDBRANCH  24  25
ENDBRANCH   1  24
TORSDOF 9
