REMARK  Name = ZINC41021407
REMARK  8 active torsions:
REMARK  status: ('A' for Active; 'I' for Inactive)
REMARK    1  A    between atoms: C_6  and  C_7
REMARK    2  A    between atoms: C_10  and  C_12
REMARK    3  A    between atoms: C_12  and  C_13
REMARK    4  A    between atoms: C_13  and  C_14
REMARK    5  A    between atoms: N_16  and  C_17
REMARK    6  A    between atoms: C_18  and  C_25
REMARK    7  A    between atoms: N_27  and  C_28
REMARK    8  A    between atoms: C_28  and  C_29
REMARK                            x       y       z     vdW  Elec       q    Type
REMARK                         _______ _______ _______ _____ _____    ______ ____
ROOT
ATOM      1  C   UNL     1      -4.122  -5.619  -1.419  0.00  0.00    +0.218 C 
ATOM      2  O   UNL     1      -4.356  -6.176  -0.367  0.00  0.00    -0.275 OA
ATOM      3  N   UNL     1      -4.397  -6.236  -2.585  0.00  0.00    -0.279 N 
ATOM      4  H   UNL     1      -4.210  -5.790  -3.425  0.00  0.00    +0.155 HD
ENDROOT
BRANCH   3   5
ATOM      5  C   UNL     1      -4.949  -7.508  -2.583  0.00  0.00    +0.084 A 
ATOM      6  C   UNL     1      -5.289  -8.289  -3.671  0.00  0.00    +0.069 A 
ATOM      7  C   UNL     1      -5.859  -9.607  -3.398  0.00  0.00    -0.023 A 
ATOM      8  C   UNL     1      -5.982  -9.892  -2.089  0.00  0.00    -0.004 A 
ATOM      9  S   UNL     1      -5.350  -8.456  -1.258  0.00  0.00    -0.077 S 
ATOM     10  C   UNL     1      -6.577 -11.255  -1.865  0.00  0.00    +0.043 C 
ATOM     11  C   UNL     1      -7.215 -11.631  -3.221  0.00  0.00    +0.010 C 
ATOM     12  C   UNL     1      -6.372 -10.797  -4.207  0.00  0.00    +0.037 C 
BRANCH   6  13
ATOM     13  C   UNL     1      -5.087  -7.815  -5.044  0.00  0.00    +0.247 C 
ATOM     14  O   UNL     1      -4.035  -8.037  -5.615  0.00  0.00    -0.270 OA
ATOM     15  N   UNL     1      -6.064  -7.133  -5.672  0.00  0.00    -0.309 N 
ATOM     16  H   UNL     1      -6.902  -6.956  -5.217  0.00  0.00    +0.149 HD
BRANCH  15  17
ATOM     17  C   UNL     1      -5.862  -6.659  -7.044  0.00  0.00    +0.136 C 
BRANCH  17  18
ATOM     18  C   UNL     1      -7.115  -5.920  -7.518  0.00  0.00    +0.135 C 
ATOM     19  C   UNL     1      -6.935  -5.440  -8.980  0.00  0.00    +0.035 C 
ATOM     20  C   UNL     1      -8.414  -5.343  -9.443  0.00  0.00    +0.031 C 
ATOM     21  C   UNL     1      -9.076  -6.506  -8.673  0.00  0.00    +0.160 C 
ATOM     22  O   UNL     1      -8.239  -6.815  -7.551  0.00  0.00    -0.375 OA
ENDBRANCH  17  18
ENDBRANCH  15  17
ENDBRANCH   6  13
ENDBRANCH   3   5
BRANCH   1  23
ATOM     23  C   UNL     1      -3.522  -4.236  -1.421  0.00  0.00    +0.105 C 
BRANCH  23  24
ATOM     24  C   UNL     1      -3.310  -3.770   0.021  0.00  0.00    +0.105 C 
BRANCH  24  28
ATOM     25  C   UNL     1      -1.266  -0.763   0.011  0.00  0.00    +0.155 A 
ATOM     26  C   UNL     1      -2.521  -0.244   0.020  0.00  0.00    +0.161 A 
ATOM     27  N   UNL     1      -3.383  -1.271   0.025  0.00  0.00    -0.221 NA
ATOM     28  C   UNL     1      -2.710  -2.388   0.018  0.00  0.00    +0.197 A 
ATOM     29  O   UNL     1      -1.400  -2.108   0.005  0.00  0.00    -0.440 OA
BRANCH  25  35
ATOM     30  C   UNL     1      -0.017   1.391   0.010  0.00  0.00    +0.013 A 
ATOM     31  C   UNL     1       1.170   2.095   0.002  0.00  0.00    +0.021 A 
ATOM     32  C   UNL     1       2.378   1.419  -0.013  0.00  0.00    +0.041 A 
ATOM     33  C   UNL     1       2.403   0.034  -0.021  0.00  0.00    +0.021 A 
ATOM     34  C   UNL     1       1.223  -0.680  -0.014  0.00  0.00    +0.013 A 
ATOM     35  C   UNL     1       0.002  -0.004   0.002  0.00  0.00    +0.019 A 
ATOM     36 CL   UNL     1       3.868   2.310  -0.022  0.00  0.00    -0.084 Cl
ENDBRANCH  25  35
ENDBRANCH  24  28
ENDBRANCH  23  24
ENDBRANCH   1  23
TORSDOF 8
