REMARK  Name = ZINC02622656
REMARK  3 active torsions:
REMARK  status: ('A' for Active; 'I' for Inactive)
REMARK    1  A    between atoms: N_13  and  C_17
REMARK    2  A    between atoms: C_17  and  C_18
REMARK    3  A    between atoms: C_21  and  C_24
REMARK                            x       y       z     vdW  Elec       q    Type
REMARK                         _______ _______ _______ _____ _____    ______ ____
ROOT
ATOM      1  C   UNL     1       4.432   0.654  -3.635  0.00  0.00    +0.000 A 
ATOM      2  C   UNL     1       3.095   0.300  -3.640  0.00  0.00    +0.000 A 
ATOM      3  C   UNL     1       2.381   0.305  -2.460  0.00  0.00    +0.006 A 
ATOM      4  C   UNL     1       2.993   0.662  -1.266  0.00  0.00    -0.012 A 
ATOM      5  C   UNL     1       4.327   1.009  -1.260  0.00  0.00    -0.042 A 
ATOM      6  C   UNL     1       5.043   1.006  -2.450  0.00  0.00    +0.004 A 
ATOM      7  C   UNL     1       5.058   1.387   0.001  0.00  0.00    +0.035 C 
ATOM      8  C   UNL     1       4.073   1.768   1.104  0.00  0.00    +0.008 C 
ATOM      9  C   UNL     1       3.032   0.649   1.235  0.00  0.00    +0.040 C 
ATOM     10  C   UNL     1       2.160   0.655  -0.015  0.00  0.00    +0.138 C 
ATOM     11  C   UNL     1       1.231   1.848   0.000  0.00  0.00    +0.251 C 
ATOM     12  O   UNL     1       1.542   3.020   0.003  0.00  0.00    -0.272 OA
ATOM     13  N   UNL     1      -0.016   1.334   0.009  0.00  0.00    -0.220 N 
ATOM     14  C   UNL     1       0.002  -0.004   0.002  0.00  0.00    +0.310 C 
ATOM     15  O   UNL     1      -0.999  -0.694   0.008  0.00  0.00    -0.252 OA
ATOM     16  N   UNL     1       1.254  -0.501  -0.012  0.00  0.00    -0.281 N 
ATOM     17  H   UNL     1       1.506  -1.437  -0.020  0.00  0.00    +0.152 HD
ENDROOT
BRANCH  13  18
ATOM     18  C   UNL     1      -1.239   2.141   0.020  0.00  0.00    +0.153 C 
BRANCH  18  19
ATOM     19  C   UNL     1      -1.651   2.410   1.444  0.00  0.00    -0.029 A 
ATOM     20  C   UNL     1      -2.505   1.535   2.091  0.00  0.00    +0.006 A 
ATOM     21  C   UNL     1      -2.882   1.773   3.397  0.00  0.00    +0.019 A 
ATOM     22  C   UNL     1      -2.409   2.906   4.061  0.00  0.00    +0.052 A 
ATOM     23  C   UNL     1      -1.552   3.788   3.400  0.00  0.00    +0.019 A 
ATOM     24  C   UNL     1      -1.178   3.535   2.097  0.00  0.00    +0.006 A 
BRANCH  22  25
ATOM     25  C   UNL     1      -2.802   3.163   5.414  0.00  0.00    +0.099 C 
ATOM     26  N   UNL     1      -3.113   3.367   6.487  0.00  0.00    -0.191 NA
ENDBRANCH  22  25
ENDBRANCH  18  19
ENDBRANCH  13  18
TORSDOF 3
