REMARK  Name = ZINC22434990
REMARK  6 active torsions:
REMARK  status: ('A' for Active; 'I' for Inactive)
REMARK    1  A    between atoms: C_1  and  C_2
REMARK    2  A    between atoms: C_4  and  C_23
REMARK    3  A    between atoms: C_6  and  N_8
REMARK    4  A    between atoms: C_9  and  C_13
REMARK    5  A    between atoms: C_13  and  N_19
REMARK    6  A    between atoms: C_20  and  C_22
REMARK                            x       y       z     vdW  Elec       q    Type
REMARK                         _______ _______ _______ _____ _____    ______ ____
ROOT
ATOM      1  N   UNL     1      -0.215   2.217   6.146  0.00  0.00    -0.195 N 
ATOM      2  C   UNL     1      -0.172   3.415   5.522  0.00  0.00    +0.180 A 
ATOM      3  N   UNL     1       1.032   3.554   5.031  0.00  0.00    -0.111 NA
ATOM      4  N   UNL     1       1.753   2.527   5.302  0.00  0.00    -0.023 NA
ATOM      5  N   UNL     1       1.070   1.670   5.982  0.00  0.00    -0.039 NA
ENDROOT
BRANCH   1  11
ATOM      6  C   UNL     1      -3.073  -1.688   7.024  0.00  0.00    +0.044 C 
ATOM      7  C   UNL     1      -2.711  -0.245   7.262  0.00  0.00    -0.048 A 
ATOM      8  C   UNL     1      -3.458   0.518   8.140  0.00  0.00    +0.006 A 
ATOM      9  C   UNL     1      -3.126   1.842   8.365  0.00  0.00    -0.048 A 
ATOM     10  C   UNL     1      -2.053   2.408   7.705  0.00  0.00    +0.031 A 
ATOM     11  C   UNL     1      -1.305   1.645   6.818  0.00  0.00    +0.070 A 
ATOM     12  C   UNL     1      -1.637   0.316   6.598  0.00  0.00    +0.031 A 
ATOM     13  C   UNL     1      -3.938   2.668   9.328  0.00  0.00    +0.044 C 
ENDBRANCH   1  11
BRANCH   2  14
ATOM     14  C   UNL     1      -1.302   4.406   5.413  0.00  0.00    +0.096 C 
ATOM     15  C   UNL     1      -1.227   5.117   4.061  0.00  0.00    +0.034 C 
ATOM     16  C   UNL     1      -2.374   6.124   3.950  0.00  0.00    +0.003 C 
ATOM     17  C   UNL     1      -2.260   7.154   5.075  0.00  0.00    +0.000 C 
ATOM     18  C   UNL     1      -2.335   6.442   6.427  0.00  0.00    +0.003 C 
ATOM     19  C   UNL     1      -1.188   5.436   6.538  0.00  0.00    +0.034 C 
BRANCH  14  20
ATOM     20  N   UNL     1      -2.582   3.701   5.524  0.00  0.00    -0.303 N 
ATOM     21  C   UNL     1      -2.934   2.793   4.592  0.00  0.00    +0.211 C 
ATOM     22  O   UNL     1      -2.154   2.491   3.715  0.00  0.00    -0.276 OA
ATOM     23  C   UNL     1      -4.298   2.154   4.641  0.00  0.00    +0.109 C 
ATOM     24  H   UNL     1      -3.255   3.914   6.367  0.00  0.00    +0.150 HD
ENDBRANCH  14  20
ENDBRANCH   2  14
TORSDOF 3
