REMARK  Name = ZINC06244771
REMARK  10 active torsions:
REMARK  status: ('A' for Active; 'I' for Inactive)
REMARK    1  A    between atoms: C_1  and  C_2
REMARK    2  A    between atoms: C_5  and  C_37
REMARK    3  A    between atoms: C_9  and  C_14
REMARK    4  A    between atoms: C_14  and  C_16
REMARK    5  A    between atoms: C_14  and  N_68
REMARK    6  A    between atoms: N_20  and  C_21
REMARK    7  A    between atoms: C_21  and  C_22
REMARK    8  A    between atoms: C_21  and  C_23
REMARK    9  A    between atoms: C_21  and  C_24
REMARK   10  A    between atoms: N_27  and  C_30
REMARK                            x       y       z     vdW  Elec       q    Type
REMARK                         _______ _______ _______ _____ _____    ______ ____
ROOT
ATOM      1  C   UNL     1       0.453   5.382  -0.888  0.00  0.00    +0.039 C 
ENDROOT
BRANCH   1  10
ATOM      2  C   UNL     1       1.351   7.772  -5.426  0.00  0.00    +0.044 C 
ATOM      3  C   UNL     1       0.025   7.065  -5.547  0.00  0.00    -0.041 A 
ATOM      4  C   UNL     1      -0.688   7.138  -6.710  0.00  0.00    +0.004 A 
ATOM      5  C   UNL     1      -1.909   6.489  -6.832  0.00  0.00    +0.005 A 
ATOM      6  C   UNL     1      -2.426   5.760  -5.783  0.00  0.00    -0.026 A 
ATOM      7  C   UNL     1      -1.718   5.672  -4.589  0.00  0.00    +0.052 A 
ATOM      8  C   UNL     1      -0.480   6.331  -4.469  0.00  0.00    +0.002 A 
ATOM      9  C   UNL     1       0.258   6.231  -3.209  0.00  0.00    +0.018 A 
ATOM     10  C   UNL     1      -0.281   5.505  -2.198  0.00  0.00    +0.011 A 
ATOM     11  C   UNL     1      -1.523   4.859  -2.372  0.00  0.00    +0.251 A 
ATOM     12  O   UNL     1      -1.987   4.207  -1.452  0.00  0.00    -0.268 OA
ATOM     13  N   UNL     1      -2.211   4.949  -3.523  0.00  0.00    -0.322 N 
ATOM     14  H   UNL     1      -3.064   4.495  -3.607  0.00  0.00    +0.169 HD
ATOM     15  C   UNL     1      -3.753   5.060  -5.929  0.00  0.00    +0.046 C 
ENDBRANCH   1  10
BRANCH   1  21
ATOM     16  C   UNL     1       1.349   3.264  -1.645  0.00  0.00    -0.058 C 
ATOM     17  C   UNL     1       1.454   1.775  -1.305  0.00  0.00    +0.086 C 
ATOM     18  N   UNL     1       2.164   1.617  -0.028  0.00  0.00    -0.331 N 
ATOM     19  C   UNL     1       1.457   2.315   1.054  0.00  0.00    +0.086 C 
ATOM     20  C   UNL     1       1.351   3.803   0.714  0.00  0.00    -0.058 C 
ATOM     21  N   UNL     1       0.617   3.950  -0.560  0.00  0.00    +0.391 N 
ATOM     22  H   UNL     1      -0.312   3.522  -0.462  0.00  0.00    -0.080 HD
BRANCH  18  23
ATOM     23  C   UNL     1       2.344   0.265   0.281  0.00  0.00    +0.065 A 
ATOM     24  C   UNL     1       1.242  -0.566   0.437  0.00  0.00    +0.026 A 
ATOM     25  C   UNL     1       1.422  -1.902   0.738  0.00  0.00    +0.002 A 
ATOM     26  C   UNL     1       2.698  -2.412   0.894  0.00  0.00    +0.003 A 
ATOM     27  C   UNL     1       3.799  -1.588   0.744  0.00  0.00    +0.040 A 
ATOM     28  C   UNL     1       3.626  -0.250   0.438  0.00  0.00    +0.144 A 
ATOM     29  F   UNL     1       4.701   0.555   0.293  0.00  0.00    -0.204 F 
ENDBRANCH  18  23
ENDBRANCH   1  21
BRANCH   1  30
ATOM     30  C   UNL     1      -0.351   6.044   0.202  0.00  0.00    +0.143 A 
ATOM     31  N   UNL     1      -1.490   5.626   0.698  0.00  0.00    -0.115 NA
ATOM     32  N   UNL     1      -1.857   6.461   1.608  0.00  0.00    -0.023 NA
ATOM     33  N   UNL     1      -0.983   7.400   1.705  0.00  0.00    -0.043 NA
ATOM     34  N   UNL     1      -0.036   7.176   0.858  0.00  0.00    -0.225 N 
BRANCH  34  35
ATOM     35  C   UNL     1       1.157   8.001   0.648  0.00  0.00    +0.059 C 
ATOM     36  C   UNL     1       1.213   8.454  -0.812  0.00  0.00    +0.036 C 
ATOM     37  C   UNL     1       1.096   9.227   1.560  0.00  0.00    +0.036 C 
ATOM     38  C   UNL     1       2.407   7.182   0.976  0.00  0.00    +0.036 C 
ENDBRANCH  34  35
ENDBRANCH   1  30
TORSDOF 5
