REMARK  Name = ZINC38685384
REMARK  15 active torsions:
REMARK  status: ('A' for Active; 'I' for Inactive)
REMARK    1  A    between atoms: C_1  and  C_2
REMARK    2  A    between atoms: C_2  and  C_3
REMARK    3  A    between atoms: C_3  and  C_4
REMARK    4  A    between atoms: C_4  and  C_5
REMARK    5  A    between atoms: C_5  and  O_6
REMARK    6  A    between atoms: O_6  and  C_7
REMARK    7  A    between atoms: C_10  and  C_13
REMARK    8  A    between atoms: C_18  and  O_27
REMARK    9  A    between atoms: C_22  and  N_26
REMARK   10  A    between atoms: C_23  and  C_24
REMARK   11  A    between atoms: O_27  and  C_28
REMARK   12  A    between atoms: C_28  and  C_30
REMARK   13  A    between atoms: C_33  and  O_36
REMARK   14  A    between atoms: O_36  and  C_37
REMARK   15  A    between atoms: C_37  and  C_38
REMARK                            x       y       z     vdW  Elec       q    Type
REMARK                         _______ _______ _______ _____ _____    ______ ____
ROOT
ATOM      1  C   UNL     1      -7.776  -6.693   0.068  0.00  0.00    +0.098 C 
ATOM      2  C   UNL     1      -7.907  -7.534  -1.174  0.00  0.00    +0.008 A 
ATOM      3  C   UNL     1      -8.283  -6.937  -2.365  0.00  0.00    +0.012 A 
ATOM      4  C   UNL     1      -8.408  -7.693  -3.513  0.00  0.00    +0.047 A 
ATOM      5  C   UNL     1      -8.156  -9.057  -3.477  0.00  0.00    +0.135 A 
ATOM      6  C   UNL     1      -7.779  -9.658  -2.287  0.00  0.00    +0.093 A 
ATOM      7  C   UNL     1      -7.653  -8.896  -1.132  0.00  0.00    +0.138 A 
ATOM      8  O   UNL     1      -7.284  -9.500   0.024  0.00  0.00    -0.441 OA
ATOM      9  C   UNL     1      -7.524  -8.898   1.201  0.00  0.00    +0.199 C 
ATOM     10  C   UNL     1      -7.764  -7.571   1.287  0.00  0.00    +0.098 C 
ENDROOT
BRANCH   1  14
ATOM     11  C   UNL     1      -4.133  -4.466  -0.109  0.00  0.00    +0.121 A 
ATOM     12  C   UNL     1      -5.349  -3.803  -0.028  0.00  0.00    +0.046 A 
ATOM     13  C   UNL     1      -6.525  -4.526   0.029  0.00  0.00    +0.008 A 
ATOM     14  C   UNL     1      -6.491  -5.907   0.005  0.00  0.00    -0.034 A 
ATOM     15  C   UNL     1      -5.280  -6.570  -0.075  0.00  0.00    +0.008 A 
ATOM     16  C   UNL     1      -4.101  -5.853  -0.138  0.00  0.00    +0.046 A 
BRANCH  11  17
ATOM     17  O   UNL     1      -2.974  -3.758  -0.165  0.00  0.00    -0.492 OA
BRANCH  17  18
ATOM     18  C   UNL     1      -3.082  -2.333  -0.130  0.00  0.00    +0.229 C 
BRANCH  18  19
ATOM     19  C   UNL     1      -1.685  -1.714  -0.203  0.00  0.00    +0.041 C 
BRANCH  19  20
ATOM     20  C   UNL     1      -1.801  -0.189  -0.166  0.00  0.00    +0.003 C 
BRANCH  20  22
ATOM     21  C   UNL     1      -0.519   1.956  -0.201  0.00  0.00    +0.004 C 
ATOM     22  C   UNL     1      -0.404   0.431  -0.238  0.00  0.00    -0.003 C 
ENDBRANCH  20  22
ENDBRANCH  19  20
ENDBRANCH  18  19
ENDBRANCH  17  18
ENDBRANCH  11  17
ENDBRANCH   1  14
BRANCH   9  23
ATOM     23  N   UNL     1      -7.526  -9.652   2.347  0.00  0.00    -0.328 N 
ATOM     24  H   UNL     1      -7.355 -10.606   2.300  0.00  0.00    +0.145 HD
ATOM     25  H   UNL     1      -7.698  -9.232   3.204  0.00  0.00    +0.145 HD
ENDBRANCH   9  23
BRANCH  10  26
ATOM     26  C   UNL     1      -8.012  -6.990   2.572  0.00  0.00    +0.101 C 
ATOM     27  N   UNL     1      -8.210  -6.529   3.592  0.00  0.00    -0.191 NA
ENDBRANCH  10  26
BRANCH   5  28
ATOM     28  O   UNL     1      -8.279  -9.803  -4.606  0.00  0.00    -0.422 OA
BRANCH  28  29
ATOM     29  C   UNL     1      -9.296 -10.685  -4.675  0.00  0.00    +0.344 C 
ATOM     30  O   UNL     1     -10.129 -10.722  -3.791  0.00  0.00    -0.245 OA
BRANCH  29  31
ATOM     31  C   UNL     1      -9.398 -11.604  -5.823  0.00  0.00    +0.060 A 
ATOM     32  C   UNL     1      -8.437 -11.567  -6.839  0.00  0.00    +0.018 A 
ATOM     33  C   UNL     1      -8.536 -12.428  -7.909  0.00  0.00    +0.046 A 
ATOM     34  C   UNL     1      -9.588 -13.333  -7.980  0.00  0.00    +0.121 A 
ATOM     35  C   UNL     1     -10.545 -13.373  -6.973  0.00  0.00    +0.046 A 
ATOM     36  C   UNL     1     -10.451 -12.520  -5.897  0.00  0.00    +0.018 A 
BRANCH  34  37
ATOM     37  O   UNL     1      -9.681 -14.180  -9.037  0.00  0.00    -0.492 OA
BRANCH  37  38
ATOM     38  C   UNL     1     -10.788 -15.084  -9.047  0.00  0.00    +0.225 C 
ATOM     39  C   UNL     1     -10.725 -15.952 -10.306  0.00  0.00    +0.048 C 
ENDBRANCH  37  38
ENDBRANCH  34  37
ENDBRANCH  29  31
ENDBRANCH  28  29
ENDBRANCH   5  28
TORSDOF 13
