REMARK  Name = ZINC14527397
REMARK  8 active torsions:
REMARK  status: ('A' for Active; 'I' for Inactive)
REMARK    1  A    between atoms: C_1  and  C_2
REMARK    2  A    between atoms: C_5  and  C_8
REMARK    3  A    between atoms: N_14  and  C_15
REMARK    4  A    between atoms: C_15  and  C_16
REMARK    5  A    between atoms: C_16  and  C_17
REMARK    6  A    between atoms: C_22  and  C_25
REMARK    7  A    between atoms: C_25  and  N_59
REMARK    8  A    between atoms: C_28  and  C_31
REMARK                            x       y       z     vdW  Elec       q    Type
REMARK                         _______ _______ _______ _____ _____    ______ ____
ROOT
ATOM      1  C   UNL     1      -0.036   1.111   0.009  0.00  0.00    +0.220 C 
ATOM      2  O   UNL     1      -0.045  -0.102  -0.005  0.00  0.00    -0.275 OA
ATOM      3  N   UNL     1       1.136   1.777   0.008  0.00  0.00    -0.265 N 
ATOM      4  C   UNL     1       2.334   1.074  -0.010  0.00  0.00    +0.164 A 
ATOM      5  N   UNL     1       3.568   1.540  -0.019  0.00  0.00    -0.231 NA
ATOM      6  C   UNL     1       4.606   0.726  -0.032  0.00  0.00    +0.034 A 
ATOM      7  C   UNL     1       4.378  -0.610  -0.046  0.00  0.00    +0.070 A 
ATOM      8  S   UNL     1       2.592  -0.643  -0.033  0.00  0.00    -0.060 S 
ATOM      9  H   UNL     1       1.142   2.747   0.019  0.00  0.00    +0.157 HD
ENDROOT
BRANCH   1  10
ATOM     10  C   UNL     1      -1.336   1.874   0.022  0.00  0.00    +0.118 C 
BRANCH  10  11
ATOM     11  C   UNL     1      -2.506   0.887   0.014  0.00  0.00    +0.135 C 
BRANCH  11  18
ATOM     12  C   UNL     1      -4.508   1.948   1.148  0.00  0.00    +0.163 A 
ATOM     13  N   UNL     1      -5.566   2.612   0.773  0.00  0.00    -0.153 NA
ATOM     14  N   UNL     1      -5.533   2.727  -0.624  0.00  0.00    -0.254 N 
ATOM     15  H   UNL     1      -6.194   3.168  -1.179  0.00  0.00    +0.191 HD
ATOM     16  C   UNL     1      -4.413   2.110  -1.055  0.00  0.00    +0.176 A 
ATOM     17  S   UNL     1      -3.902   1.966  -2.683  0.00  0.00    -0.011 S 
ATOM     18  N   UNL     1      -3.769   1.629   0.027  0.00  0.00    -0.303 N 
BRANCH  12  23
ATOM     19  C   UNL     1      -3.144   0.590   6.572  0.00  0.00    +0.044 C 
ATOM     20  C   UNL     1      -3.501   0.946   5.152  0.00  0.00    -0.050 A 
ATOM     21  C   UNL     1      -4.812   1.244   4.826  0.00  0.00    +0.004 A 
ATOM     22  C   UNL     1      -5.145   1.571   3.528  0.00  0.00    +0.012 A 
ATOM     23  C   UNL     1      -4.158   1.599   2.543  0.00  0.00    +0.019 A 
ATOM     24  C   UNL     1      -2.838   1.292   2.877  0.00  0.00    +0.012 A 
ATOM     25  C   UNL     1      -2.517   0.973   4.181  0.00  0.00    +0.004 A 
ENDBRANCH  12  23
ENDBRANCH  11  18
ENDBRANCH  10  11
ENDBRANCH   1  10
BRANCH   6  26
ATOM     26  C   UNL     1       6.011   1.269  -0.036  0.00  0.00    -0.022 C 
BRANCH  26  33
ATOM     27  C   UNL     1       5.353   2.302  -2.124  0.00  0.00    -0.078 C 
ATOM     28  C   UNL     1       5.745   2.475  -3.593  0.00  0.00    -0.016 C 
ATOM     29  C   UNL     1       7.063   3.250  -3.676  0.00  0.00    -0.018 C 
ATOM     30  C   UNL     1       8.139   2.497  -2.890  0.00  0.00    -0.016 C 
ATOM     31  C   UNL     1       7.678   2.322  -1.441  0.00  0.00    -0.078 C 
ATOM     32  C   UNL     1       7.491   3.374  -5.140  0.00  0.00    +0.007 C 
ATOM     33  N   UNL     1       6.418   1.549  -1.429  0.00  0.00    +0.383 N 
ATOM     34  H   UNL     1       6.569   0.658  -1.917  0.00  0.00    -0.081 HD
ENDBRANCH  26  33
ENDBRANCH   6  26
TORSDOF 6
