REMARK  Name = ZINC64044276
REMARK  9 active torsions:
REMARK  status: ('A' for Active; 'I' for Inactive)
REMARK    1  A    between atoms: C_1  and  C_2
REMARK    2  A    between atoms: C_2  and  C_3
REMARK    3  A    between atoms: C_3  and  C_14
REMARK    4  A    between atoms: N_6  and  C_10
REMARK    5  A    between atoms: C_10  and  C_11
REMARK    6  A    between atoms: C_11  and  C_13
REMARK    7  A    between atoms: C_20  and  C_22
REMARK    8  A    between atoms: C_22  and  C_23
REMARK    9  A    between atoms: C_23  and  C_24
REMARK                            x       y       z     vdW  Elec       q    Type
REMARK                         _______ _______ _______ _____ _____    ______ ____
ROOT
ATOM      1  C   UNL     1       0.839  -2.038   1.222  0.00  0.00    +0.024 C 
ATOM      2  C   UNL     1      -0.562  -2.636   1.076  0.00  0.00    +0.025 C 
ATOM      3  C   UNL     1      -0.457  -4.163   1.022  0.00  0.00    +0.108 C 
ATOM      4  N   UNL     1       0.278  -4.630   2.205  0.00  0.00    -0.301 N 
ATOM      5  C   UNL     1       1.598  -4.051   2.490  0.00  0.00    +0.108 C 
ATOM      6  C   UNL     1       1.471  -2.525   2.528  0.00  0.00    +0.025 C 
ATOM      7  C   UNL     1      -0.249  -5.569   3.015  0.00  0.00    +0.216 C 
ATOM      8  O   UNL     1      -1.341  -6.038   2.769  0.00  0.00    -0.276 OA
ENDROOT
BRANCH   1   9
ATOM      9  C   UNL     1       0.742  -0.511   1.242  0.00  0.00    +0.115 C 
ATOM     10  C   UNL     1       0.055  -0.034   2.505  0.00  0.00    +0.247 C 
ATOM     11  O   UNL     1      -1.076  -0.284   2.863  0.00  0.00    -0.273 OA
ATOM     12  N   UNL     1       0.962   0.727   3.149  0.00  0.00    -0.220 N 
ATOM     13  C   UNL     1       2.116   0.796   2.474  0.00  0.00    +0.310 C 
ATOM     14  O   UNL     1       3.085   1.423   2.854  0.00  0.00    -0.252 OA
ATOM     15  N   UNL     1       2.083   0.093   1.328  0.00  0.00    -0.285 N 
ATOM     16  H   UNL     1       2.802   0.001   0.683  0.00  0.00    +0.151 HD
BRANCH   9  18
ATOM     17  C   UNL     1      -0.019   1.526   0.010  0.00  0.00    +0.006 C 
ATOM     18  C   UNL     1       0.002  -0.004   0.002  0.00  0.00    +0.032 C 
ENDBRANCH   9  18
BRANCH  12  19
ATOM     19  C   UNL     1       0.716   1.397   4.428  0.00  0.00    +0.148 C 
BRANCH  19  20
ATOM     20  C   UNL     1       1.104   0.478   5.559  0.00  0.00    -0.062 C 
ATOM     21  C   UNL     1       2.295   0.569   6.097  0.00  0.00    +0.009 C 
ATOM     22  C   UNL     1       0.122  -0.544   6.069  0.00  0.00    +0.040 C 
ENDBRANCH  19  20
ENDBRANCH  12  19
ENDBRANCH   1   9
BRANCH   7  23
ATOM     23  C   UNL     1       0.517  -6.037   4.225  0.00  0.00    +0.100 C 
BRANCH  23  24
ATOM     24  C   UNL     1      -0.299  -7.098   4.967  0.00  0.00    +0.056 C 
BRANCH  24  25
ATOM     25  C   UNL     1       0.479  -7.573   6.196  0.00  0.00    +0.174 C 
ATOM     26  N   UNL     1       0.586  -6.485   7.176  0.00  0.00    -0.363 N 
ATOM     27  C   UNL     1       0.001  -6.884   8.268  0.00  0.00    +0.060 A 
ATOM     28  C   UNL     1      -0.213  -6.247   9.576  0.00  0.00    +0.030 A 
ATOM     29  C   UNL     1      -0.869  -6.918  10.542  0.00  0.00    +0.040 A 
ATOM     30  C   UNL     1      -1.369  -8.223  10.356  0.00  0.00    +0.125 A 
ATOM     31  C   UNL     1      -1.226  -8.896   9.193  0.00  0.00    +0.065 A 
ATOM     32  C   UNL     1      -0.526  -8.262   8.070  0.00  0.00    +0.063 A 
ATOM     33  N   UNL     1      -0.246  -8.662   6.861  0.00  0.00    -0.363 N 
ATOM     34  F   UNL     1      -2.015  -8.823  11.379  0.00  0.00    -0.205 F 
ATOM     35  H   UNL     1       1.014  -5.626   7.035  0.00  0.00    +0.162 HD
ATOM     36  H   UNL     1      -0.474  -9.521   6.473  0.00  0.00    +0.162 HD
ENDBRANCH  24  25
ENDBRANCH  23  24
ENDBRANCH   7  23
TORSDOF 7
