REMARK  Name = ZINC06263515
REMARK  5 active torsions:
REMARK  status: ('A' for Active; 'I' for Inactive)
REMARK    1  A    between atoms: C_1  and  C_2
REMARK    2  A    between atoms: C_3  and  C_18
REMARK    3  A    between atoms: C_4  and  C_10
REMARK    4  A    between atoms: C_13  and  N_15
REMARK    5  A    between atoms: C_18  and  C_20
REMARK                            x       y       z     vdW  Elec       q    Type
REMARK                         _______ _______ _______ _____ _____    ______ ____
ROOT
ATOM      1  C   UNL     1       0.264   5.264  -0.042  0.00  0.00    +0.061 C 
ATOM      2  C   UNL     1       0.080   3.769   0.001  0.00  0.00    +0.015 C 
ATOM      3  C   UNL     1      -1.173   3.251   0.004  0.00  0.00    +0.039 C 
ATOM      4  C   UNL     1      -1.311   1.742   0.043  0.00  0.00    +0.173 C 
ATOM      5  N   UNL     1      -0.063   0.960   0.086  0.00  0.00    -0.313 N 
ATOM      6  C   UNL     1       1.110   1.623   0.078  0.00  0.00    +0.135 C 
ATOM      7  S   UNL     1       2.567   0.726   0.120  0.00  0.00    -0.019 S 
ATOM      8  N   UNL     1       1.174   2.960   0.038  0.00  0.00    -0.300 N 
ATOM      9  H   UNL     1      -0.085  -0.009   0.115  0.00  0.00    +0.149 HD
ATOM     10  H   UNL     1       2.051   3.376   0.034  0.00  0.00    +0.154 HD
ENDROOT
BRANCH   4  11
ATOM     11  C   UNL     1      -2.125   1.385   1.260  0.00  0.00    +0.133 A 
ATOM     12  C   UNL     1      -3.443   1.120   1.274  0.00  0.00    +0.049 A 
ATOM     13  C   UNL     1      -3.789   0.834   2.615  0.00  0.00    +0.076 A 
ATOM     14  C   UNL     1      -2.663   0.948   3.341  0.00  0.00    +0.280 A 
ATOM     15  O   UNL     1      -1.658   1.282   2.515  0.00  0.00    -0.437 OA
BRANCH  14  16
ATOM     16  N   UNL     1      -2.550   0.741   4.803  0.00  0.00    +0.093 N 
ATOM     17  O   UNL     1      -3.535   0.439   5.452  0.00  0.00    -0.123 OA
ATOM     18  O   UNL     1      -1.473   0.873   5.355  0.00  0.00    -0.123 OA
ENDBRANCH  14  16
ENDBRANCH   4  11
BRANCH   3  19
ATOM     19  C   UNL     1      -2.304   4.082  -0.033  0.00  0.00    +0.160 C 
ATOM     20  O   UNL     1      -2.550   4.816   0.904  0.00  0.00    -0.293 OA
ATOM     21  C   UNL     1      -3.213   4.066  -1.235  0.00  0.00    +0.091 C 
ENDBRANCH   3  19
TORSDOF 3
