REMARK  Name = ZINC09607869
REMARK  8 active torsions:
REMARK  status: ('A' for Active; 'I' for Inactive)
REMARK    1  A    between atoms: C_5  and  S_7
REMARK    2  A    between atoms: S_7  and  N_10
REMARK    3  A    between atoms: N_10  and  C_11
REMARK    4  A    between atoms: C_11  and  C_12
REMARK    5  A    between atoms: C_15  and  C_18
REMARK    6  A    between atoms: N_20  and  C_21
REMARK    7  A    between atoms: C_21  and  C_22
REMARK    8  A    between atoms: C_22  and  C_23
REMARK                            x       y       z     vdW  Elec       q    Type
REMARK                         _______ _______ _______ _____ _____    ______ ____
ROOT
ATOM      1  C   UNL     1       2.336  10.298   3.364  0.00  0.00    +0.005 C 
ATOM      2  C   UNL     1       1.101   9.767   4.094  0.00  0.00    +0.005 C 
ATOM      3  C   UNL     1       1.122   8.238   4.086  0.00  0.00    +0.013 C 
ATOM      4  C   UNL     1       1.116   7.735   2.641  0.00  0.00    +0.075 C 
ATOM      5  C   UNL     1       2.351   8.266   1.911  0.00  0.00    +0.013 C 
ATOM      6  C   UNL     1       2.329   9.796   1.919  0.00  0.00    +0.005 C 
ENDROOT
BRANCH   4   7
ATOM      7  C   UNL     1       1.137   6.228   2.633  0.00  0.00    +0.216 C 
ATOM      8  O   UNL     1       1.155   5.616   3.680  0.00  0.00    -0.276 OA
ATOM      9  N   UNL     1       1.135   5.560   1.462  0.00  0.00    -0.315 N 
ATOM     10  H   UNL     1       1.121   6.049   0.625  0.00  0.00    +0.149 HD
BRANCH   9  11
ATOM     11  C   UNL     1       1.156   4.095   1.455  0.00  0.00    +0.109 C 
BRANCH  11  12
ATOM     12  C   UNL     1       1.150   3.592   0.010  0.00  0.00    +0.054 C 
BRANCH  12  13
ATOM     13  C   UNL     1       1.171   2.086   0.002  0.00  0.00    -0.046 A 
ATOM     14  C   UNL     1      -0.017   1.378   0.010  0.00  0.00    +0.005 A 
ATOM     15  C   UNL     1       0.002  -0.004   0.002  0.00  0.00    +0.020 A 
ATOM     16  C   UNL     1       1.210  -0.679  -0.013  0.00  0.00    +0.041 A 
ATOM     17  C   UNL     1       2.398   0.030  -0.021  0.00  0.00    +0.020 A 
ATOM     18  C   UNL     1       2.378   1.412  -0.013  0.00  0.00    +0.005 A 
ATOM     19 CL   UNL     1       1.234  -2.415  -0.022  0.00  0.00    -0.084 Cl
ENDBRANCH  12  13
ENDBRANCH  11  12
ENDBRANCH   9  11
ENDBRANCH   4   7
BRANCH   1  20
ATOM     20  C   UNL     1       2.314  11.828   3.372  0.00  0.00    +0.109 C 
BRANCH  20  21
ATOM     21  N   UNL     1       3.554  12.337   2.779  0.00  0.00    -0.190 NA
ATOM     22  H   UNL     1       4.312  11.745   2.658  0.00  0.00    +0.148 HD
BRANCH  21  23
ATOM     23  S   UNL     1       3.659  13.923   2.314  0.00  0.00    +0.061 S 
ATOM     24  O   UNL     1       4.974  14.112   1.810  0.00  0.00    -0.153 OA
ATOM     25  O   UNL     1       2.499  14.198   1.541  0.00  0.00    -0.153 OA
BRANCH  23  30
ATOM     26  C   UNL     1       4.524  16.441   5.327  0.00  0.00    +0.004 A 
ATOM     27  C   UNL     1       3.408  16.490   6.092  0.00  0.00    +0.031 A 
ATOM     28  C   UNL     1       2.266  15.729   5.730  0.00  0.00    +0.102 A 
ATOM     29  C   UNL     1       2.330  14.908   4.524  0.00  0.00    +0.126 A 
ATOM     30  C   UNL     1       3.535  14.903   3.774  0.00  0.00    +0.133 A 
ATOM     31  C   UNL     1       4.587  15.654   4.177  0.00  0.00    +0.031 A 
ATOM     32  N   UNL     1       1.195  14.247   4.308  0.00  0.00    -0.189 NA
ATOM     33  S   UNL     1       0.227  14.646   5.474  0.00  0.00    +0.117 S 
ATOM     34  N   UNL     1       1.084  15.635   6.336  0.00  0.00    -0.191 NA
ENDBRANCH  23  30
ENDBRANCH  21  23
ENDBRANCH  20  21
ENDBRANCH   1  20
TORSDOF 8
