REMARK  Name = ZINC13500070
REMARK  12 active torsions:
REMARK  status: ('A' for Active; 'I' for Inactive)
REMARK    1  A    between atoms: C_1  and  C_2
REMARK    2  A    between atoms: C_2  and  C_3
REMARK    3  A    between atoms: C_3  and  C_4
REMARK    4  A    between atoms: C_4  and  C_6
REMARK    5  A    between atoms: C_4  and  N_73
REMARK    6  A    between atoms: N_10  and  C_11
REMARK    7  A    between atoms: C_11  and  C_12
REMARK    8  A    between atoms: C_18  and  C_19
REMARK    9  A    between atoms: C_18  and  N_73
REMARK   10  A    between atoms: C_23  and  C_32
REMARK   11  A    between atoms: C_25  and  C_31
REMARK   12  A    between atoms: C_33  and  N_73
REMARK                            x       y       z     vdW  Elec       q    Type
REMARK                         _______ _______ _______ _____ _____    ______ ____
ROOT
ATOM      1  N   UNL     1      -2.270  -0.465   0.852  0.00  0.00    +0.391 N 
ATOM      2  H   UNL     1      -2.816   0.341   0.526  0.00  0.00    -0.080 HD
ENDROOT
BRANCH   1   3
ATOM      3  C   UNL     1      -1.829  -0.216   2.241  0.00  0.00    -0.067 C 
ATOM      4  C   UNL     1      -1.398  -1.528   2.928  0.00  0.00    -0.015 C 
ATOM      5  C   UNL     1      -1.895  -1.372   4.388  0.00  0.00    -0.002 C 
ATOM      6  C   UNL     1      -3.255  -0.651   4.211  0.00  0.00    -0.002 C 
ATOM      7  C   UNL     1      -3.009   0.342   3.056  0.00  0.00    -0.015 C 
ENDBRANCH   1   3
BRANCH   1   8
ATOM      8  C   UNL     1      -1.094  -0.636  -0.028  0.00  0.00    +0.003 C 
BRANCH   8   9
ATOM      9  C   UNL     1      -0.552  -2.037   0.084  0.00  0.00    +0.138 A 
ATOM     10  N   UNL     1      -0.248  -2.673   1.189  0.00  0.00    -0.115 NA
ATOM     11  N   UNL     1       0.184  -3.844   0.869  0.00  0.00    -0.023 NA
ATOM     12  N   UNL     1       0.163  -3.972  -0.411  0.00  0.00    -0.044 NA
ATOM     13  N   UNL     1      -0.284  -2.879  -0.932  0.00  0.00    -0.228 N 
BRANCH  13  14
ATOM     14  C   UNL     1      -0.466  -2.606  -2.359  0.00  0.00    +0.178 C 
BRANCH  14  15
ATOM     15  C   UNL     1       0.816  -1.996  -2.929  0.00  0.00    +0.140 C 
ATOM     16  C   UNL     1       0.596  -1.598  -4.404  0.00  0.00    +0.035 C 
ATOM     17  C   UNL     1       1.949  -1.993  -5.057  0.00  0.00    +0.031 C 
ATOM     18  C   UNL     1       2.320  -3.248  -4.229  0.00  0.00    +0.160 C 
ATOM     19  O   UNL     1       1.872  -2.963  -2.894  0.00  0.00    -0.375 OA
ENDBRANCH  14  15
ENDBRANCH  13  14
ENDBRANCH   8   9
BRANCH   8  20
ATOM     20  C   UNL     1      -0.010   0.365   0.377  0.00  0.00    -0.008 C 
BRANCH  20  22
ATOM     21  C   UNL     1       0.531   2.791   0.625  0.00  0.00    +0.004 C 
ATOM     22  C   UNL     1      -0.581   1.784   0.326  0.00  0.00    -0.005 C 
ENDBRANCH  20  22
ENDBRANCH   8  20
ENDBRANCH   1   8
BRANCH   1  23
ATOM     23  C   UNL     1      -3.119  -1.673   0.800  0.00  0.00    -0.036 C 
BRANCH  23  24
ATOM     24  C   UNL     1      -3.936  -1.634  -0.466  0.00  0.00    +0.001 A 
ATOM     25  C   UNL     1      -3.538  -2.347  -1.548  0.00  0.00    +0.017 A 
ATOM     26  C   UNL     1      -4.357  -2.293  -2.761  0.00  0.00    -0.001 A 
ATOM     27  C   UNL     1      -4.001  -3.011  -3.907  0.00  0.00    +0.013 A 
ATOM     28  C   UNL     1      -4.785  -2.936  -5.024  0.00  0.00    -0.050 A 
ATOM     29  C   UNL     1      -5.931  -2.153  -5.031  0.00  0.00    +0.008 A 
ATOM     30  C   UNL     1      -6.300  -1.436  -3.914  0.00  0.00    -0.026 A 
ATOM     31  C   UNL     1      -5.518  -1.498  -2.765  0.00  0.00    +0.052 A 
ATOM     32  N   UNL     1      -5.865  -0.792  -1.632  0.00  0.00    -0.322 N 
ATOM     33  H   UNL     1      -6.666  -0.244  -1.637  0.00  0.00    +0.169 HD
ATOM     34  C   UNL     1      -5.110  -0.852  -0.522  0.00  0.00    +0.251 A 
ATOM     35  O   UNL     1      -5.447  -0.215   0.461  0.00  0.00    -0.268 OA
ATOM     36  C   UNL     1      -7.547  -0.590  -3.936  0.00  0.00    +0.046 C 
ATOM     37  C   UNL     1      -4.401  -3.710  -6.258  0.00  0.00    +0.044 C 
ENDBRANCH  23  24
ENDBRANCH   1  23
TORSDOF 9
