REMARK  Name = ZINC35130752
REMARK  12 active torsions:
REMARK  status: ('A' for Active; 'I' for Inactive)
REMARK    1  A    between atoms: C_1  and  C_2
REMARK    2  A    between atoms: C_2  and  N_3
REMARK    3  A    between atoms: N_3  and  C_4
REMARK    4  A    between atoms: C_4  and  C_5
REMARK    5  A    between atoms: N_7  and  C_8
REMARK    6  A    between atoms: C_10  and  C_21
REMARK    7  A    between atoms: N_12  and  C_13
REMARK    8  A    between atoms: C_21  and  C_22
REMARK    9  A    between atoms: C_21  and  C_23
REMARK   10  A    between atoms: C_21  and  C_24
REMARK   11  A    between atoms: C_25  and  C_27
REMARK   12  A    between atoms: C_30  and  N_33
REMARK                            x       y       z     vdW  Elec       q    Type
REMARK                         _______ _______ _______ _____ _____    ______ ____
ROOT
ATOM      1  C   UNL     1      -2.086  -0.874  -2.151  0.00  0.00    +0.236 C 
ATOM      2  O   UNL     1      -1.448  -1.866  -1.864  0.00  0.00    -0.274 OA
ATOM      3  N   UNL     1      -2.708  -0.794  -3.343  0.00  0.00    -0.269 N 
ATOM      4  H   UNL     1      -3.217  -0.001  -3.572  0.00  0.00    +0.156 HD
ENDROOT
BRANCH   3   5
ATOM      5  C   UNL     1      -2.619  -1.851  -4.248  0.00  0.00    +0.129 A 
ATOM      6  C   UNL     1      -1.947  -3.020  -4.059  0.00  0.00    +0.069 A 
ATOM      7  C   UNL     1      -2.112  -3.801  -5.206  0.00  0.00    +0.071 A 
ATOM      8  N   UNL     1      -2.852  -3.137  -6.057  0.00  0.00    -0.169 NA
ATOM      9  N   UNL     1      -3.193  -1.906  -5.481  0.00  0.00    -0.218 N 
BRANCH   9  10
ATOM     10  C   UNL     1      -3.982  -0.909  -6.071  0.00  0.00    +0.069 A 
ATOM     11  C   UNL     1      -4.824  -0.133  -5.284  0.00  0.00    +0.029 A 
ATOM     12  C   UNL     1      -5.601   0.849  -5.867  0.00  0.00    +0.023 A 
ATOM     13  C   UNL     1      -5.541   1.062  -7.233  0.00  0.00    +0.059 A 
ATOM     14  C   UNL     1      -4.702   0.290  -8.019  0.00  0.00    +0.061 A 
ATOM     15  C   UNL     1      -3.918  -0.691  -7.440  0.00  0.00    +0.049 A 
ATOM     16 CL   UNL     1      -4.630   0.558  -9.733  0.00  0.00    -0.082 Cl
ATOM     17 CL   UNL     1      -6.519   2.296  -7.962  0.00  0.00    -0.082 Cl
ENDBRANCH   9  10
BRANCH   7  18
ATOM     18  C   UNL     1      -1.535  -5.176  -5.426  0.00  0.00    +0.006 C 
ATOM     19  C   UNL     1      -2.328  -6.198  -4.609  0.00  0.00    +0.017 C 
ATOM     20  C   UNL     1      -1.620  -5.532  -6.911  0.00  0.00    +0.017 C 
ATOM     21  C   UNL     1      -0.071  -5.191  -4.980  0.00  0.00    +0.017 C 
ENDBRANCH   7  18
ENDBRANCH   3   5
BRANCH   1  22
ATOM     22  C   UNL     1      -2.181   0.268  -1.173  0.00  0.00    +0.204 C 
BRANCH  22  23
ATOM     23  N   UNL     1      -1.425  -0.061   0.038  0.00  0.00    -0.289 N 
ATOM     24  C   UNL     1      -2.063  -0.555   1.118  0.00  0.00    +0.247 C 
ATOM     25  O   UNL     1      -1.449  -0.757   2.147  0.00  0.00    -0.270 OA
BRANCH  24  26
ATOM     26  C   UNL     1      -3.510  -0.853   1.049  0.00  0.00    +0.037 A 
ATOM     27  C   UNL     1      -4.026  -1.582  -0.023  0.00  0.00    +0.015 A 
ATOM     28  C   UNL     1      -5.377  -1.856  -0.081  0.00  0.00    +0.033 A 
ATOM     29  C   UNL     1      -6.220  -1.410   0.922  0.00  0.00    +0.126 A 
ATOM     30  C   UNL     1      -5.715  -0.686   1.987  0.00  0.00    +0.033 A 
ATOM     31  C   UNL     1      -4.365  -0.410   2.060  0.00  0.00    +0.015 A 
BRANCH  29  32
ATOM     32  N   UNL     1      -7.668  -1.707   0.853  0.00  0.00    +0.056 N 
ATOM     33  O   UNL     1      -8.112  -2.339  -0.077  0.00  0.00    -0.126 OA
ATOM     34  O   UNL     1      -8.407  -1.318   1.728  0.00  0.00    -0.126 OA
ENDBRANCH  29  32
ENDBRANCH  24  26
BRANCH  23  36
ATOM     35  C   UNL     1       0.321   1.596   0.470  0.00  0.00    +0.024 C 
ATOM     36  C   UNL     1       0.024   0.148   0.076  0.00  0.00    +0.105 C 
ENDBRANCH  23  36
ENDBRANCH  22  23
ENDBRANCH   1  22
TORSDOF 8
