REMARK  Name = ZINC49643510
REMARK  4 active torsions:
REMARK  status: ('A' for Active; 'I' for Inactive)
REMARK    1  A    between atoms: C_4  and  N_7
REMARK    2  A    between atoms: C_11  and  N_14
REMARK    3  A    between atoms: N_17  and  C_20
REMARK    4  A    between atoms: C_20  and  C_21
REMARK                            x       y       z     vdW  Elec       q    Type
REMARK                         _______ _______ _______ _____ _____    ______ ____
ROOT
ATOM      1  N   UNL     1       7.264  -2.585  -0.081  0.00  0.00    -0.331 N 
ATOM      2  C   UNL     1       7.348  -4.054  -0.101  0.00  0.00    +0.086 C 
ATOM      3  C   UNL     1       8.306  -4.500   1.009  0.00  0.00    -0.059 C 
ATOM      4  N   UNL     1       9.595  -3.816   0.845  0.00  0.00    +0.385 N 
ATOM      5  C   UNL     1       9.422  -2.370   1.031  0.00  0.00    -0.059 C 
ATOM      6  C   UNL     1       8.519  -1.818  -0.083  0.00  0.00    +0.086 C 
ATOM      7  H   UNL     1       9.954  -3.994  -0.081  0.00  0.00    -0.081 HD
ENDROOT
BRANCH   1  12
ATOM      8  N   UNL     1       3.605  -0.682  -0.019  0.00  0.00    -0.195 N 
ATOM      9  C   UNL     1       4.409  -0.502  -1.085  0.00  0.00    +0.292 A 
ATOM     10  O   UNL     1       4.053   0.213  -2.010  0.00  0.00    -0.264 OA
ATOM     11  C   UNL     1       5.657  -1.139  -1.127  0.00  0.00    +0.129 A 
ATOM     12  C   UNL     1       6.037  -1.943  -0.067  0.00  0.00    +0.074 A 
ATOM     13  C   UNL     1       5.162  -2.103   1.028  0.00  0.00    +0.158 A 
ATOM     14  N   UNL     1       4.008  -1.494   1.046  0.00  0.00    -0.170 NA
ATOM     15 CL   UNL     1       6.711  -0.923  -2.490  0.00  0.00    -0.076 Cl
BRANCH   8  19
ATOM     16  C   UNL     1      -0.105   1.209   0.113  0.00  0.00    +0.000 A 
ATOM     17  C   UNL     1       0.746   1.281   1.201  0.00  0.00    +0.002 A 
ATOM     18  C   UNL     1       1.976   0.655   1.161  0.00  0.00    +0.028 A 
ATOM     19  C   UNL     1       2.359  -0.048   0.025  0.00  0.00    +0.069 A 
ATOM     20  C   UNL     1       1.502  -0.119  -1.065  0.00  0.00    +0.028 A 
ATOM     21  C   UNL     1       0.273   0.509  -1.019  0.00  0.00    +0.002 A 
ENDBRANCH   8  19
ENDBRANCH   1  12
BRANCH   4  22
ATOM     22  C   UNL     1      10.548  -4.325   1.841  0.00  0.00    -0.024 C 
BRANCH  22  23
ATOM     23  C   UNL     1      11.904  -3.716   1.597  0.00  0.00    +0.007 A 
ATOM     24  C   UNL     1      12.474  -2.876   2.531  0.00  0.00    +0.090 A 
ATOM     25  C   UNL     1      13.731  -2.322   2.287  0.00  0.00    +0.259 A 
ATOM     26  O   UNL     1      14.241  -1.578   3.110  0.00  0.00    -0.267 OA
ATOM     27  N   UNL     1      14.391  -2.612   1.126  0.00  0.00    -0.264 N 
ATOM     28  C   UNL     1      15.627  -2.147   0.745  0.00  0.00    +0.104 A 
ATOM     29  C   UNL     1      16.167  -2.506  -0.419  0.00  0.00    +0.067 A 
ATOM     30  S   UNL     1      14.908  -3.578  -1.093  0.00  0.00    -0.059 S 
ATOM     31  C   UNL     1      13.752  -3.454   0.255  0.00  0.00    +0.158 A 
ATOM     32  N   UNL     1      12.575  -3.982   0.480  0.00  0.00    -0.341 N 
ATOM     33  H   UNL     1      12.184  -4.575  -0.181  0.00  0.00    +0.167 HD
ENDBRANCH  22  23
ENDBRANCH   4  22
TORSDOF 4
