REMARK  Name = ZINC40339692
REMARK  7 active torsions:
REMARK  status: ('A' for Active; 'I' for Inactive)
REMARK    1  A    between atoms: C_4  and  C_7
REMARK    2  A    between atoms: C_7  and  O_8
REMARK    3  A    between atoms: O_8  and  C_9
REMARK    4  A    between atoms: C_12  and  C_15
REMARK    5  A    between atoms: C_18  and  C_36
REMARK    6  A    between atoms: N_25  and  C_26
REMARK    7  A    between atoms: C_26  and  C_27
REMARK                            x       y       z     vdW  Elec       q    Type
REMARK                         _______ _______ _______ _____ _____    ______ ____
ROOT
ATOM      1  C   UNL     1       9.022  -3.675   1.977  0.00  0.00    +0.142 C 
ATOM      2  C   UNL     1      10.118  -2.701   2.311  0.00  0.00    +0.035 A 
ATOM      3  C   UNL     1      10.867  -1.588   1.915  0.00  0.00    +0.099 A 
ATOM      4  N   UNL     1      11.728  -1.328   2.880  0.00  0.00    -0.173 NA
ATOM      5  N   UNL     1      11.597  -2.167   3.845  0.00  0.00    -0.272 N 
ATOM      6  H   UNL     1      12.125  -2.168   4.658  0.00  0.00    +0.189 HD
ATOM      7  C   UNL     1      10.603  -3.058   3.554  0.00  0.00    +0.126 A 
ATOM      8  C   UNL     1       9.855  -4.228   4.028  0.00  0.00    +0.266 C 
ATOM      9  O   UNL     1      10.041  -4.787   5.092  0.00  0.00    -0.268 OA
ATOM     10  N   UNL     1       8.933  -4.596   3.118  0.00  0.00    -0.281 N 
ENDROOT
BRANCH   1  14
ATOM     11  C   UNL     1       5.319  -1.605   1.466  0.00  0.00    +0.121 A 
ATOM     12  C   UNL     1       6.048  -2.007   0.357  0.00  0.00    +0.046 A 
ATOM     13  C   UNL     1       7.245  -2.676   0.525  0.00  0.00    +0.009 A 
ATOM     14  C   UNL     1       7.716  -2.945   1.797  0.00  0.00    -0.022 A 
ATOM     15  C   UNL     1       6.990  -2.545   2.904  0.00  0.00    +0.009 A 
ATOM     16  C   UNL     1       5.796  -1.871   2.742  0.00  0.00    +0.046 A 
BRANCH  11  17
ATOM     17  O   UNL     1       4.141  -0.946   1.304  0.00  0.00    -0.487 OA
BRANCH  17  18
ATOM     18  C   UNL     1       3.711  -0.707  -0.038  0.00  0.00    +0.264 C 
BRANCH  18  22
ATOM     19  C   UNL     1      -0.017   1.378   0.010  0.00  0.00    +0.000 A 
ATOM     20  C   UNL     1       1.171   2.086   0.002  0.00  0.00    +0.000 A 
ATOM     21  C   UNL     1       2.377   1.411  -0.013  0.00  0.00    +0.007 A 
ATOM     22  C   UNL     1       2.396   0.029  -0.020  0.00  0.00    -0.010 A 
ATOM     23  C   UNL     1       1.208  -0.679  -0.012  0.00  0.00    +0.007 A 
ATOM     24  C   UNL     1       0.002  -0.004   0.002  0.00  0.00    +0.000 A 
ENDBRANCH  18  22
ENDBRANCH  17  18
ENDBRANCH  11  17
ENDBRANCH   1  14
BRANCH   3  25
ATOM     25  C   UNL     1      10.720  -0.837   0.643  0.00  0.00    +0.002 A 
ATOM     26  C   UNL     1      10.380  -1.507  -0.529  0.00  0.00    +0.010 A 
ATOM     27  C   UNL     1      10.243  -0.804  -1.709  0.00  0.00    +0.001 A 
ATOM     28  C   UNL     1      10.444   0.564  -1.728  0.00  0.00    +0.000 A 
ATOM     29  C   UNL     1      10.783   1.235  -0.567  0.00  0.00    +0.001 A 
ATOM     30  C   UNL     1      10.916   0.542   0.619  0.00  0.00    +0.010 A 
ENDBRANCH   3  25
BRANCH  10  31
ATOM     31  C   UNL     1       8.002  -5.720   3.244  0.00  0.00    +0.144 C 
BRANCH  31  32
ATOM     32  C   UNL     1       8.633  -6.962   2.669  0.00  0.00    -0.026 A 
ATOM     33  C   UNL     1       8.465  -7.265   1.331  0.00  0.00    +0.009 A 
ATOM     34  C   UNL     1       9.042  -8.403   0.799  0.00  0.00    +0.050 A 
ATOM     35  C   UNL     1       9.791  -9.243   1.608  0.00  0.00    +0.166 A 
ATOM     36  C   UNL     1       9.960  -8.938   2.956  0.00  0.00    +0.167 A 
ATOM     37  C   UNL     1       9.383  -7.793   3.481  0.00  0.00    +0.054 A 
ATOM     38  O   UNL     1      10.728  -9.909   3.530  0.00  0.00    -0.453 OA
ATOM     39  C   UNL     1      10.686 -11.022   2.618  0.00  0.00    +0.466 C 
ATOM     40  O   UNL     1      10.453 -10.406   1.337  0.00  0.00    -0.453 OA
ENDBRANCH  31  32
ENDBRANCH  10  31
TORSDOF 7
