REMARK  Name = ZINC19297205
REMARK  10 active torsions:
REMARK  status: ('A' for Active; 'I' for Inactive)
REMARK    1  A    between atoms: C_1  and  C_2
REMARK    2  A    between atoms: C_2  and  C_3
REMARK    3  A    between atoms: C_3  and  C_4
REMARK    4  A    between atoms: C_4  and  C_5
REMARK    5  A    between atoms: C_5  and  N_6
REMARK    6  A    between atoms: C_15  and  S_16
REMARK    7  A    between atoms: S_16  and  C_17
REMARK    8  A    between atoms: C_17  and  C_19
REMARK    9  A    between atoms: C_17  and  C_20
REMARK   10  A    between atoms: C_23  and  C_25
REMARK                            x       y       z     vdW  Elec       q    Type
REMARK                         _______ _______ _______ _____ _____    ______ ____
ROOT
ATOM      1  N   UNL     1       2.406  -4.069  -0.747  0.00  0.00    -0.287 N 
ATOM      2  C   UNL     1       2.484  -2.725  -0.772  0.00  0.00    +0.263 A 
ATOM      3  O   UNL     1       3.520  -2.171  -1.097  0.00  0.00    -0.267 OA
ATOM      4  C   UNL     1       1.331  -1.958  -0.413  0.00  0.00    +0.076 A 
ATOM      5  C   UNL     1       1.195  -0.493  -0.373  0.00  0.00    -0.023 A 
ATOM      6  C   UNL     1       0.002  -0.004   0.002  0.00  0.00    -0.004 A 
ATOM      7  S   UNL     1      -1.004  -1.436   0.317  0.00  0.00    -0.073 S 
ATOM      8  C   UNL     1       0.190  -2.692  -0.057  0.00  0.00    +0.117 A 
ATOM      9  N   UNL     1       0.178  -4.020  -0.052  0.00  0.00    -0.216 NA
ATOM     10  C   UNL     1       1.253  -4.705  -0.387  0.00  0.00    +0.173 A 
ATOM     11  C   UNL     1      -0.018   1.501   0.010  0.00  0.00    +0.043 C 
ATOM     12  C   UNL     1       1.471   1.909  -0.002  0.00  0.00    +0.010 C 
ATOM     13  C   UNL     1       2.125   0.686  -0.674  0.00  0.00    +0.037 C 
ENDROOT
BRANCH   1  14
ATOM     14  C   UNL     1       3.581  -4.864  -1.112  0.00  0.00    +0.127 C 
BRANCH  14  15
ATOM     15  C   UNL     1       4.420  -5.139   0.138  0.00  0.00    +0.022 C 
BRANCH  15  16
ATOM     16  C   UNL     1       5.647  -5.969  -0.244  0.00  0.00    +0.001 C 
BRANCH  16  18
ATOM     17  C   UNL     1       7.713  -7.074   0.624  0.00  0.00    +0.004 C 
ATOM     18  C   UNL     1       6.486  -6.244   1.006  0.00  0.00    -0.003 C 
ENDBRANCH  16  18
ENDBRANCH  15  16
ENDBRANCH  14  15
ENDBRANCH   1  14
BRANCH  10  19
ATOM     19  S   UNL     1       1.202  -6.466  -0.369  0.00  0.00    -0.075 S 
BRANCH  19  20
ATOM     20  C   UNL     1      -0.508  -6.725   0.164  0.00  0.00    +0.139 C 
ATOM     21  C   UNL     1      -0.684  -6.194   1.588  0.00  0.00    +0.029 C 
BRANCH  20  22
ATOM     22  C   UNL     1      -0.826  -8.198   0.135  0.00  0.00    +0.231 A 
ATOM     23  N   UNL     1      -0.066  -9.158   0.582  0.00  0.00    -0.111 NA
ATOM     24  N   UNL     1      -0.648 -10.290   0.399  0.00  0.00    -0.107 NA
ATOM     25  C   UNL     1      -1.810 -10.090  -0.185  0.00  0.00    +0.255 A 
ATOM     26  O   UNL     1      -1.942  -8.760  -0.363  0.00  0.00    -0.419 OA
BRANCH  25  27
ATOM     27  C   UNL     1      -2.781 -11.124  -0.573  0.00  0.00    +0.076 A 
ATOM     28  C   UNL     1      -2.703 -12.495  -0.418  0.00  0.00    +0.021 A 
ATOM     29  C   UNL     1      -3.751 -13.265  -0.866  0.00  0.00    +0.008 A 
ATOM     30  C   UNL     1      -4.823 -12.660  -1.442  0.00  0.00    +0.046 A 
ATOM     31  S   UNL     1      -4.373 -10.934  -1.359  0.00  0.00    -0.092 S 
ENDBRANCH  25  27
ENDBRANCH  20  22
ENDBRANCH  19  20
ENDBRANCH  10  19
TORSDOF 8
