REMARK  Name = ZINC38736821
REMARK  6 active torsions:
REMARK  status: ('A' for Active; 'I' for Inactive)
REMARK    1  A    between atoms: C_1  and  C_2
REMARK    2  A    between atoms: C_11  and  C_14
REMARK    3  A    between atoms: C_17  and  N_20
REMARK    4  A    between atoms: N_20  and  S_21
REMARK    5  A    between atoms: S_21  and  C_24
REMARK    6  A    between atoms: C_34  and  C_36
REMARK                            x       y       z     vdW  Elec       q    Type
REMARK                         _______ _______ _______ _____ _____    ______ ____
ROOT
ATOM      1  C   UNL     1       5.415  -6.159   0.096  0.00  0.00    +0.002 A 
ATOM      2  C   UNL     1       6.097  -6.497  -1.072  0.00  0.00    +0.012 A 
ATOM      3  C   UNL     1       7.151  -7.383  -1.021  0.00  0.00    +0.025 A 
ATOM      4  C   UNL     1       7.535  -7.940   0.194  0.00  0.00    +0.048 A 
ATOM      5  C   UNL     1       6.856  -7.605   1.360  0.00  0.00    +0.025 A 
ATOM      6  C   UNL     1       5.805  -6.714   1.315  0.00  0.00    +0.012 A 
ENDROOT
BRANCH   1  17
ATOM      7  C   UNL     1      -0.265   1.391   0.574  0.00  0.00    +0.007 C 
ATOM      8  C   UNL     1      -0.206  -0.123   0.360  0.00  0.00    -0.011 C 
ATOM      9  C   UNL     1       0.620  -0.429  -0.892  0.00  0.00    +0.022 C 
ATOM     10  C   UNL     1       0.648  -1.943  -1.123  0.00  0.00    +0.107 C 
ATOM     11  N   UNL     1       1.137  -2.598   0.098  0.00  0.00    -0.314 N 
ATOM     12  C   UNL     1       0.471  -2.303   1.373  0.00  0.00    +0.107 C 
ATOM     13  C   UNL     1       0.445  -0.785   1.576  0.00  0.00    +0.022 C 
ATOM     14  C   UNL     1       2.210  -3.481   0.046  0.00  0.00    +0.144 A 
ATOM     15  C   UNL     1       2.826  -3.762  -1.175  0.00  0.00    +0.047 A 
ATOM     16  C   UNL     1       3.889  -4.646  -1.177  0.00  0.00    +0.033 A 
ATOM     17  C   UNL     1       4.281  -5.205   0.044  0.00  0.00    +0.093 A 
ATOM     18  N   UNL     1       3.635  -4.878   1.156  0.00  0.00    -0.147 NA
ATOM     19  N   UNL     1       2.652  -4.054   1.156  0.00  0.00    -0.134 NA
ENDBRANCH   1  17
BRANCH   4  20
ATOM     20  N   UNL     1       8.602  -8.838   0.243  0.00  0.00    -0.216 N 
ATOM     21  H   UNL     1       8.660  -9.558  -0.405  0.00  0.00    +0.174 HD
BRANCH  20  22
ATOM     22  S   UNL     1       9.769  -8.675   1.406  0.00  0.00    +0.072 S 
ATOM     23  O   UNL     1       9.091  -8.599   2.653  0.00  0.00    -0.150 OA
ATOM     24  O   UNL     1      10.755  -9.660   1.133  0.00  0.00    -0.150 OA
BRANCH  22  25
ATOM     25  C   UNL     1      10.538  -7.109   1.155  0.00  0.00    +0.109 A 
ATOM     26  C   UNL     1      11.694  -7.022   0.400  0.00  0.00    +0.030 A 
ATOM     27  C   UNL     1      12.297  -5.796   0.205  0.00  0.00    +0.026 A 
ATOM     28  C   UNL     1      11.743  -4.651   0.767  0.00  0.00    +0.040 A 
ATOM     29  C   UNL     1      10.584  -4.738   1.521  0.00  0.00    -0.024 A 
ATOM     30  C   UNL     1       9.983  -5.972   1.709  0.00  0.00    +0.034 A 
ATOM     31  C   UNL     1       9.951  -3.518   2.136  0.00  0.00    +0.038 C 
ATOM     32  C   UNL     1      10.972  -2.387   2.253  0.00  0.00    +0.024 C 
ATOM     33  C   UNL     1      11.646  -2.183   0.890  0.00  0.00    +0.114 C 
ATOM     34  N   UNL     1      12.374  -3.416   0.561  0.00  0.00    -0.271 N 
ATOM     35  C   UNL     1      13.628  -3.361   0.070  0.00  0.00    +0.217 C 
ATOM     36  O   UNL     1      14.197  -4.380  -0.258  0.00  0.00    -0.276 OA
ATOM     37  C   UNL     1      14.324  -2.031  -0.072  0.00  0.00    +0.109 C 
ENDBRANCH  22  25
ENDBRANCH  20  22
ENDBRANCH   4  20
TORSDOF 4
