REMARK  Name = ZINC01376481
REMARK  7 active torsions:
REMARK  status: ('A' for Active; 'I' for Inactive)
REMARK    1  A    between atoms: C_1  and  C_2
REMARK    2  A    between atoms: C_2  and  C_3
REMARK    3  A    between atoms: C_2  and  C_4
REMARK    4  A    between atoms: C_17  and  S_20
REMARK    5  A    between atoms: S_20  and  C_21
REMARK    6  A    between atoms: C_21  and  C_22
REMARK    7  A    between atoms: N_24  and  C_25
REMARK                            x       y       z     vdW  Elec       q    Type
REMARK                         _______ _______ _______ _____ _____    ______ ____
ROOT
ATOM      1  C   UNL     1       5.805  -7.697   0.524  0.00  0.00    +0.121 A 
ATOM      2  N   UNL     1       6.361  -8.873   0.588  0.00  0.00    -0.226 NA
ATOM      3  C   UNL     1       7.681  -9.035   0.636  0.00  0.00    +0.114 A 
ATOM      4  C   UNL     1       8.571  -7.952   0.613  0.00  0.00    +0.056 A 
ATOM      5  C   UNL     1       9.954  -8.260   0.669  0.00  0.00    -0.024 A 
ATOM      6  C   UNL     1      10.304  -9.566   0.725  0.00  0.00    -0.004 A 
ATOM      7  S   UNL     1       8.761 -10.441   0.726  0.00  0.00    -0.073 S 
ATOM      8  C   UNL     1      11.686 -10.137   0.789  0.00  0.00    +0.043 C 
ATOM      9  C   UNL     1      12.684  -9.032   0.410  0.00  0.00    +0.005 C 
ATOM     10  C   UNL     1      12.332  -7.764   1.194  0.00  0.00    +0.005 C 
ATOM     11  C   UNL     1      11.025  -7.172   0.666  0.00  0.00    +0.037 C 
ATOM     12  C   UNL     1       7.929  -6.620   0.546  0.00  0.00    +0.173 A 
ATOM     13  N   UNL     1       6.553  -6.556   0.503  0.00  0.00    -0.257 N 
ATOM     14  C   UNL     1       6.254  -5.224   0.442  0.00  0.00    +0.198 A 
ATOM     15  N   UNL     1       7.392  -4.568   0.459  0.00  0.00    -0.122 NA
ATOM     16  N   UNL     1       8.380  -5.391   0.521  0.00  0.00    -0.128 NA
ENDROOT
BRANCH   1  18
ATOM     17  C   UNL     1       3.770  -8.470  -0.663  0.00  0.00    +0.015 C 
ATOM     18  C   UNL     1       4.302  -7.595   0.473  0.00  0.00    +0.049 C 
ATOM     19  C   UNL     1       3.712  -8.070   1.802  0.00  0.00    +0.015 C 
ENDBRANCH   1  18
BRANCH  14  20
ATOM     20  S   UNL     1       4.641  -4.517   0.362  0.00  0.00    -0.076 S 
BRANCH  20  21
ATOM     21  C   UNL     1       4.948  -2.730   0.312  0.00  0.00    +0.173 C 
BRANCH  21  22
ATOM     22  C   UNL     1       3.633  -1.997   0.242  0.00  0.00    +0.227 C 
ATOM     23  O   UNL     1       2.592  -2.619   0.227  0.00  0.00    -0.275 OA
ATOM     24  N   UNL     1       3.614  -0.650   0.195  0.00  0.00    -0.285 N 
ATOM     25  H   UNL     1       4.446  -0.155   0.131  0.00  0.00    +0.155 HD
BRANCH  24  26
ATOM     26  C   UNL     1       2.393   0.035   0.238  0.00  0.00    +0.037 A 
ATOM     27  C   UNL     1       1.333  -0.479   0.974  0.00  0.00    +0.027 A 
ATOM     28  C   UNL     1       0.129   0.196   1.016  0.00  0.00    +0.051 A 
ATOM     29  C   UNL     1      -0.026   1.388   0.325  0.00  0.00    +0.162 A 
ATOM     30  C   UNL     1       1.033   1.907  -0.409  0.00  0.00    +0.164 A 
ATOM     31  C   UNL     1       2.241   1.229  -0.453  0.00  0.00    +0.072 A 
ATOM     32  O   UNL     1       0.903   3.081  -1.087  0.00  0.00    -0.485 OA
ATOM     33  C   UNL     1      -0.432   3.541  -1.327  0.00  0.00    +0.270 C 
ATOM     34  C   UNL     1      -1.226   3.413  -0.020  0.00  0.00    +0.270 C 
ATOM     35  O   UNL     1      -1.224   2.035   0.371  0.00  0.00    -0.485 OA
ENDBRANCH  24  26
ENDBRANCH  21  22
ENDBRANCH  20  21
ENDBRANCH  14  20
TORSDOF 5
