REMARK  Name = ZINC01424204
REMARK  12 active torsions:
REMARK  status: ('A' for Active; 'I' for Inactive)
REMARK    1  A    between atoms: C_1  and  C_2
REMARK    2  A    between atoms: C_2  and  O_3
REMARK    3  A    between atoms: O_3  and  C_4
REMARK    4  A    between atoms: C_6  and  C_33
REMARK    5  A    between atoms: C_9  and  S_10
REMARK    6  A    between atoms: S_10  and  N_13
REMARK    7  A    between atoms: N_13  and  C_14
REMARK    8  A    between atoms: C_14  and  C_15
REMARK    9  A    between atoms: C_15  and  C_16
REMARK   10  A    between atoms: C_17  and  C_31
REMARK   11  A    between atoms: C_23  and  O_26
REMARK   12  A    between atoms: O_26  and  C_27
REMARK                            x       y       z     vdW  Elec       q    Type
REMARK                         _______ _______ _______ _____ _____    ______ ____
ROOT
ATOM      1  C   UNL     1      -1.325   4.093   1.429  0.00  0.00    +0.110 C 
ENDROOT
BRANCH   1   2
ATOM      2  N   UNL     1      -1.763   4.047   2.826  0.00  0.00    -0.190 NA
ATOM      3  H   UNL     1      -1.802   4.863   3.349  0.00  0.00    +0.148 HD
BRANCH   2   4
ATOM      4  S   UNL     1      -2.191   2.603   3.513  0.00  0.00    +0.062 S 
ATOM      5  O   UNL     1      -3.091   1.975   2.609  0.00  0.00    -0.153 OA
ATOM      6  O   UNL     1      -2.538   2.881   4.862  0.00  0.00    -0.153 OA
BRANCH   4  12
ATOM      7  C   UNL     1      -0.149   1.182   2.380  0.00  0.00    +0.147 A 
ATOM      8  C   UNL     1       0.994   0.397   2.421  0.00  0.00    +0.052 A 
ATOM      9  C   UNL     1       1.535   0.028   3.637  0.00  0.00    -0.029 A 
ATOM     10  C   UNL     1       0.937   0.441   4.815  0.00  0.00    +0.046 A 
ATOM     11  C   UNL     1      -0.203   1.224   4.776  0.00  0.00    +0.052 A 
ATOM     12  C   UNL     1      -0.744   1.599   3.561  0.00  0.00    +0.148 A 
ATOM     13 CL   UNL     1       1.618  -0.024   6.342  0.00  0.00    -0.083 Cl
ATOM     14  C   UNL     1       2.776  -0.825   3.682  0.00  0.00    +0.045 C 
BRANCH   7  15
ATOM     15  O   UNL     1      -0.682   1.547   1.184  0.00  0.00    -0.490 OA
BRANCH  15  17
ATOM     16  C   UNL     1      -0.753   1.593  -1.232  0.00  0.00    +0.048 C 
ATOM     17  C   UNL     1      -0.013   1.086   0.008  0.00  0.00    +0.226 C 
ENDBRANCH  15  17
ENDBRANCH   7  15
ENDBRANCH   4  12
ENDBRANCH   2   4
ENDBRANCH   1   2
BRANCH   1  18
ATOM     18  C   UNL     1      -1.350   5.541   0.934  0.00  0.00    +0.054 C 
BRANCH  18  19
ATOM     19  C   UNL     1      -0.899   5.588  -0.503  0.00  0.00    -0.018 A 
ATOM     20  C   UNL     1       0.361   5.747  -0.940  0.00  0.00    +0.017 A 
ATOM     21  N   UNL     1       0.385   5.736  -2.308  0.00  0.00    -0.358 N 
ATOM     22  H   UNL     1       1.183   5.832  -2.852  0.00  0.00    +0.166 HD
ATOM     23  C   UNL     1      -0.894   5.574  -2.798  0.00  0.00    +0.047 A 
ATOM     24  C   UNL     1      -1.752   5.474  -1.688  0.00  0.00    +0.007 A 
ATOM     25  C   UNL     1      -3.125   5.303  -1.881  0.00  0.00    +0.056 A 
ATOM     26  C   UNL     1      -3.630   5.233  -3.164  0.00  0.00    +0.131 A 
ATOM     27  C   UNL     1      -2.777   5.332  -4.260  0.00  0.00    +0.048 A 
ATOM     28  C   UNL     1      -1.422   5.502  -4.082  0.00  0.00    +0.030 A 
ATOM     29  C   UNL     1       1.569   5.911  -0.054  0.00  0.00    +0.063 C 
BRANCH  26  30
ATOM     30  O   UNL     1      -4.965   5.066  -3.358  0.00  0.00    -0.406 OA
BRANCH  30  31
ATOM     31  C   UNL     1      -5.422   5.002  -4.711  0.00  0.00    +0.575 C 
ATOM     32  F   UNL     1      -4.810   3.923  -5.358  0.00  0.00    -0.133 F 
ATOM     33  F   UNL     1      -6.810   4.830  -4.727  0.00  0.00    -0.133 F 
ATOM     34  F   UNL     1      -5.091   6.190  -5.372  0.00  0.00    -0.133 F 
ENDBRANCH  30  31
ENDBRANCH  26  30
ENDBRANCH  18  19
ENDBRANCH   1  18
TORSDOF 9
