REMARK  Name = ZINC20136760
REMARK  11 active torsions:
REMARK  status: ('A' for Active; 'I' for Inactive)
REMARK    1  A    between atoms: C_1  and  C_2
REMARK    2  A    between atoms: C_2  and  O_3
REMARK    3  A    between atoms: O_3  and  C_4
REMARK    4  A    between atoms: C_4  and  C_6
REMARK    5  A    between atoms: C_7  and  C_32
REMARK    6  A    between atoms: C_9  and  S_20
REMARK    7  A    between atoms: C_10  and  C_18
REMARK    8  A    between atoms: C_11  and  C_13
REMARK    9  A    between atoms: S_20  and  C_21
REMARK   10  A    between atoms: C_21  and  C_22
REMARK   11  A    between atoms: N_24  and  C_25
REMARK                            x       y       z     vdW  Elec       q    Type
REMARK                         _______ _______ _______ _____ _____    ______ ____
ROOT
ATOM      1  C   UNL     1      -0.695   1.545  -1.718  0.00  0.00    +0.074 C 
ATOM      2  C   UNL     1      -0.645   2.872  -2.006  0.00  0.00    +0.050 C 
ATOM      3  N   UNL     1       0.245   3.699  -1.360  0.00  0.00    -0.308 N 
ATOM      4  C   UNL     1       1.324   3.164  -0.693  0.00  0.00    +0.080 C 
ATOM      5  C   UNL     1       1.348   1.848  -0.355  0.00  0.00    +0.072 C 
ATOM      6  C   UNL     1       0.205   0.931  -0.683  0.00  0.00    +0.136 C 
ATOM      7  H   UNL     1       0.095   4.789  -1.375  0.00  0.00    +0.153 HD
ENDROOT
BRANCH   2   8
ATOM      8  C   UNL     1      -1.556   3.433  -3.025  0.00  0.00    -0.003 A 
ATOM      9  C   UNL     1      -1.044   3.933  -4.224  0.00  0.00    +0.010 A 
ATOM     10  C   UNL     1      -1.901   4.450  -5.173  0.00  0.00    +0.001 A 
ATOM     11  C   UNL     1      -3.264   4.484  -4.934  0.00  0.00    +0.000 A 
ATOM     12  C   UNL     1      -3.777   3.995  -3.746  0.00  0.00    +0.001 A 
ATOM     13  C   UNL     1      -2.932   3.470  -2.791  0.00  0.00    +0.010 A 
ENDBRANCH   2   8
BRANCH   6  14
ATOM     14  C   UNL     1      -0.592   0.665   0.568  0.00  0.00    +0.118 A 
ATOM     15  C   UNL     1      -0.790  -0.540   1.132  0.00  0.00    +0.045 A 
ATOM     16  C   UNL     1      -1.588  -0.328   2.280  0.00  0.00    +0.041 A 
ATOM     17  C   UNL     1      -1.829   0.993   2.349  0.00  0.00    +0.195 A 
ATOM     18  O   UNL     1      -1.218   1.590   1.312  0.00  0.00    -0.467 OA
ENDBRANCH   6  14
BRANCH   1  19
ATOM     19  C   UNL     1      -1.611   0.726  -2.405  0.00  0.00    +0.338 C 
ATOM     20  O   UNL     1      -2.260   1.181  -3.329  0.00  0.00    -0.245 OA
BRANCH  19  21
ATOM     21  O   UNL     1      -1.768  -0.564  -2.041  0.00  0.00    -0.462 OA
BRANCH  21  23
ATOM     22  C   UNL     1      -2.755  -2.763  -2.228  0.00  0.00    +0.048 C 
ATOM     23  C   UNL     1      -2.715  -1.337  -2.782  0.00  0.00    +0.229 C 
ENDBRANCH  21  23
ENDBRANCH  19  21
ENDBRANCH   1  19
BRANCH   5  24
ATOM     24  C   UNL     1       2.491   1.323   0.330  0.00  0.00    +0.098 C 
ATOM     25  N   UNL     1       3.397   0.906   0.873  0.00  0.00    -0.191 NA
ENDBRANCH   5  24
BRANCH   4  26
ATOM     26  S   UNL     1       2.688   4.197  -0.272  0.00  0.00    -0.100 S 
BRANCH  26  27
ATOM     27  C   UNL     1       2.109   5.773  -0.949  0.00  0.00    +0.171 C 
BRANCH  27  28
ATOM     28  C   UNL     1       3.146   6.838  -0.699  0.00  0.00    +0.227 C 
ATOM     29  O   UNL     1       4.175   6.559  -0.120  0.00  0.00    -0.275 OA
ATOM     30  N   UNL     1       2.930   8.101  -1.119  0.00  0.00    -0.285 N 
ATOM     31  H   UNL     1       2.032   8.338  -1.708  0.00  0.00    +0.155 HD
BRANCH  30  32
ATOM     32  C   UNL     1       3.848   9.110  -0.804  0.00  0.00    +0.033 A 
ATOM     33  C   UNL     1       3.402  10.399  -0.546  0.00  0.00    +0.025 A 
ATOM     34  C   UNL     1       4.309  11.392  -0.231  0.00  0.00    +0.022 A 
ATOM     35  C   UNL     1       5.662  11.104  -0.183  0.00  0.00    +0.041 A 
ATOM     36  C   UNL     1       6.109   9.821  -0.444  0.00  0.00    +0.022 A 
ATOM     37  C   UNL     1       5.205   8.824  -0.754  0.00  0.00    +0.025 A 
ATOM     38 CL   UNL     1       6.800  12.356   0.207  0.00  0.00    -0.084 Cl
ENDBRANCH  30  32
ENDBRANCH  27  28
ENDBRANCH  26  27
ENDBRANCH   4  26
TORSDOF 10
