REMARK  Name = ZINC00782531
REMARK  10 active torsions:
REMARK  status: ('A' for Active; 'I' for Inactive)
REMARK    1  A    between atoms: C_1  and  C_2
REMARK    2  A    between atoms: C_6  and  C_15
REMARK    3  A    between atoms: C_13  and  C_14
REMARK    4  A    between atoms: C_15  and  C_17
REMARK    5  A    between atoms: C_15  and  N_62
REMARK    6  A    between atoms: N_21  and  C_22
REMARK    7  A    between atoms: C_22  and  C_23
REMARK    8  A    between atoms: C_22  and  C_24
REMARK    9  A    between atoms: C_22  and  C_25
REMARK   10  A    between atoms: C_28  and  C_31
REMARK                            x       y       z     vdW  Elec       q    Type
REMARK                         _______ _______ _______ _____ _____    ______ ____
ROOT
ATOM      1  C   UNL     1      -4.709   3.808   0.191  0.00  0.00    +0.039 C 
ENDROOT
BRANCH   1   7
ATOM      2  C   UNL     1       2.572   3.224   1.694  0.00  0.00    +0.044 C 
ATOM      3  C   UNL     1       1.243   2.593   1.369  0.00  0.00    -0.047 A 
ATOM      4  C   UNL     1       0.142   3.384   1.198  0.00  0.00    +0.013 A 
ATOM      5  C   UNL     1      -1.092   2.799   0.896  0.00  0.00    -0.001 A 
ATOM      6  C   UNL     1      -2.292   3.616   0.706  0.00  0.00    +0.017 A 
ATOM      7  C   UNL     1      -3.457   2.995   0.398  0.00  0.00    +0.011 A 
ATOM      8  C   UNL     1      -3.504   1.589   0.282  0.00  0.00    +0.251 A 
ATOM      9  O   UNL     1      -4.564   1.050   0.015  0.00  0.00    -0.268 OA
ATOM     10  N   UNL     1      -2.409   0.830   0.460  0.00  0.00    -0.322 N 
ATOM     11  H   UNL     1      -2.478  -0.164   0.369  0.00  0.00    +0.169 HD
ATOM     12  C   UNL     1      -1.191   1.401   0.764  0.00  0.00    +0.049 A 
ATOM     13  C   UNL     1      -0.058   0.615   0.947  0.00  0.00    +0.030 A 
ATOM     14  C   UNL     1       1.147   1.214   1.245  0.00  0.00    -0.046 A 
ATOM     15  C   UNL     1       2.375   0.361   1.437  0.00  0.00    +0.044 C 
ENDBRANCH   1   7
BRANCH   1  22
ATOM     16  C   UNL     1      -6.593   4.140  -1.293  0.00  0.00    -0.077 C 
ATOM     17  C   UNL     1      -7.227   3.673  -2.606  0.00  0.00    -0.015 C 
ATOM     18  C   UNL     1      -6.301   4.034  -3.771  0.00  0.00    -0.018 C 
ATOM     19  C   UNL     1      -4.933   3.385  -3.544  0.00  0.00    -0.015 C 
ATOM     20  C   UNL     1      -4.365   3.860  -2.205  0.00  0.00    -0.077 C 
ATOM     21  C   UNL     1      -6.902   3.516  -5.080  0.00  0.00    +0.007 C 
ATOM     22  N   UNL     1      -5.290   3.462  -1.123  0.00  0.00    +0.389 N 
ATOM     23  H   UNL     1      -5.435   2.446  -1.166  0.00  0.00    -0.080 HD
ENDBRANCH   1  22
BRANCH   1  24
ATOM     24  C   UNL     1      -5.707   3.477   1.271  0.00  0.00    +0.143 A 
ATOM     25  N   UNL     1      -6.353   2.347   1.420  0.00  0.00    -0.115 NA
ATOM     26  N   UNL     1      -7.109   2.455   2.458  0.00  0.00    -0.023 NA
ATOM     27  N   UNL     1      -6.969   3.628   2.969  0.00  0.00    -0.043 NA
ATOM     28  N   UNL     1      -6.113   4.288   2.265  0.00  0.00    -0.225 N 
BRANCH  28  29
ATOM     29  C   UNL     1      -5.666   5.663   2.505  0.00  0.00    +0.059 C 
ATOM     30  C   UNL     1      -6.059   6.541   1.315  0.00  0.00    +0.036 C 
ATOM     31  C   UNL     1      -6.326   6.200   3.776  0.00  0.00    +0.036 C 
ATOM     32  C   UNL     1      -4.145   5.683   2.672  0.00  0.00    +0.036 C 
ENDBRANCH  28  29
ENDBRANCH   1  24
TORSDOF 4
