REMARK  Name = ZINC39970207
REMARK  5 active torsions:
REMARK  status: ('A' for Active; 'I' for Inactive)
REMARK    1  A    between atoms: C_1  and  C_2
REMARK    2  A    between atoms: N_10  and  C_11
REMARK    3  A    between atoms: C_17  and  C_23
REMARK    4  A    between atoms: N_25  and  C_26
REMARK    5  A    between atoms: C_26  and  C_27
REMARK                            x       y       z     vdW  Elec       q    Type
REMARK                         _______ _______ _______ _____ _____    ______ ____
ROOT
ATOM      1  C   UNL     1      -0.018   1.503   0.010  0.00  0.00    +0.045 C 
ATOM      2  C   UNL     1       0.002  -0.004   0.002  0.00  0.00    -0.036 C 
ATOM      3  C   UNL     1      -1.160  -0.695   0.004  0.00  0.00    +0.088 C 
ATOM      4  N   UNL     1      -1.161  -2.060  -0.025  0.00  0.00    -0.230 N 
ATOM      5  C   UNL     1       0.020  -2.755   0.026  0.00  0.00    +0.134 C 
ATOM      6  N   UNL     1       0.042  -4.085   0.115  0.00  0.00    -0.216 NA
ATOM      7  C   UNL     1      -1.051  -4.824   0.006  0.00  0.00    +0.149 C 
ATOM      8  N   UNL     1      -0.988  -6.123   0.236  0.00  0.00    -0.212 NA
ATOM      9  C   UNL     1      -2.106  -6.863   0.354  0.00  0.00    +0.162 C 
ATOM     10  N   UNL     1      -2.045  -8.171   0.278  0.00  0.00    -0.262 NA
ATOM     11  C   UNL     1      -3.410  -6.185   0.571  0.00  0.00    +0.078 C 
ATOM     12  C   UNL     1      -3.524  -4.887   0.222  0.00  0.00    +0.010 C 
ATOM     13  C   UNL     1      -2.351  -4.187  -0.385  0.00  0.00    +0.167 C 
ATOM     14  C   UNL     1      -2.337  -2.719  -0.099  0.00  0.00    +0.239 C 
ATOM     15  O   UNL     1      -3.376  -2.124   0.066  0.00  0.00    -0.274 OA
ATOM     16  C   UNL     1       1.236  -2.052   0.009  0.00  0.00    +0.045 C 
ATOM     17  C   UNL     1       1.226  -0.687  -0.013  0.00  0.00    +0.008 C 
ENDROOT
BRANCH  10  18
ATOM     18  C   UNL     1      -0.755  -8.833   0.063  0.00  0.00    +0.108 C 
ATOM     19  C   UNL     1      -0.462  -9.770   1.237  0.00  0.00    +0.027 C 
ATOM     20  C   UNL     1       0.885 -10.461   1.014  0.00  0.00    +0.002 C 
ATOM     21  C   UNL     1       0.833 -11.270  -0.284  0.00  0.00    +0.000 C 
ATOM     22  C   UNL     1       0.540 -10.333  -1.458  0.00  0.00    +0.002 C 
ATOM     23  C   UNL     1      -0.807  -9.642  -1.234  0.00  0.00    +0.027 C 
ENDBRANCH  10  18
BRANCH  11  24
ATOM     24  C   UNL     1      -4.554  -6.914   1.155  0.00  0.00    +0.247 C 
ATOM     25  O   UNL     1      -5.614  -6.345   1.327  0.00  0.00    -0.270 OA
ATOM     26  N   UNL     1      -4.422  -8.211   1.498  0.00  0.00    -0.309 N 
ATOM     27  H   UNL     1      -3.576  -8.665   1.361  0.00  0.00    +0.149 HD
BRANCH  26  28
ATOM     28  C   UNL     1      -5.556  -8.934   2.077  0.00  0.00    +0.136 C 
BRANCH  28  29
ATOM     29  C   UNL     1      -5.143 -10.378   2.373  0.00  0.00    +0.135 C 
ATOM     30  C   UNL     1      -6.340 -11.171   2.955  0.00  0.00    +0.035 C 
ATOM     31  C   UNL     1      -5.946 -12.623   2.571  0.00  0.00    +0.031 C 
ATOM     32  C   UNL     1      -5.230 -12.422   1.218  0.00  0.00    +0.160 C 
ATOM     33  O   UNL     1      -4.797 -11.057   1.156  0.00  0.00    -0.375 OA
ENDBRANCH  28  29
ENDBRANCH  26  28
ENDBRANCH  11  24
TORSDOF 4
