REMARK  Name = ZINC13372050
REMARK  4 active torsions:
REMARK  status: ('A' for Active; 'I' for Inactive)
REMARK    1  A    between atoms: C_6  and  C_7
REMARK    2  A    between atoms: C_13  and  C_18
REMARK    3  A    between atoms: C_13  and  O_27
REMARK    4  A    between atoms: C_14  and  O_17
REMARK                            x       y       z     vdW  Elec       q    Type
REMARK                         _______ _______ _______ _____ _____    ______ ____
ROOT
ATOM      1  C   UNL     1      -1.294  -0.774   0.010  0.00  0.00    +0.157 C 
ATOM      2  C   UNL     1      -1.809  -0.911   1.411  0.00  0.00    +0.088 C 
ATOM      3  C   UNL     1      -1.022  -0.837   2.692  0.00  0.00    +0.173 C 
ATOM      4  O   UNL     1      -2.027  -0.386   3.652  0.00  0.00    -0.342 OA
ATOM      5  C   UNL     1      -3.065   0.348   2.939  0.00  0.00    +0.227 C 
ATOM      6  C   UNL     1      -2.542   0.489   1.542  0.00  0.00    +0.154 C 
ATOM      7  C   UNL     1      -3.329   0.423   0.261  0.00  0.00    +0.201 C 
ATOM      8  O   UNL     1      -2.326  -0.034  -0.703  0.00  0.00    -0.368 OA
ENDROOT
BRANCH   1  14
ATOM      9  C   UNL     1       1.168  -0.613   0.427  0.00  0.00    +0.010 A 
ATOM     10  C   UNL     1       2.360   0.089   0.421  0.00  0.00    +0.050 A 
ATOM     11  C   UNL     1       2.387   1.405  -0.010  0.00  0.00    +0.166 A 
ATOM     12  C   UNL     1       1.211   2.019  -0.438  0.00  0.00    +0.167 A 
ATOM     13  C   UNL     1       0.022   1.309  -0.430  0.00  0.00    +0.055 A 
ATOM     14  C   UNL     1       0.002  -0.004   0.002  0.00  0.00    -0.015 A 
ATOM     15  O   UNL     1       1.498   3.301  -0.809  0.00  0.00    -0.453 OA
ATOM     16  C   UNL     1       2.779   3.594  -0.220  0.00  0.00    +0.466 C 
ATOM     17  O   UNL     1       3.409   2.304  -0.113  0.00  0.00    -0.453 OA
ENDBRANCH   1  14
BRANCH   5  18
ATOM     18  C   UNL     1      -4.356  -0.429   2.949  0.00  0.00    +0.018 A 
ATOM     19  C   UNL     1      -4.330  -1.809   3.023  0.00  0.00    +0.013 A 
ATOM     20  C   UNL     1      -5.511  -2.526   3.033  0.00  0.00    +0.050 A 
ATOM     21  C   UNL     1      -6.726  -1.863   2.967  0.00  0.00    +0.166 A 
ATOM     22  C   UNL     1      -6.752  -0.472   2.892  0.00  0.00    +0.167 A 
ATOM     23  C   UNL     1      -5.564   0.240   2.889  0.00  0.00    +0.058 A 
ATOM     24  O   UNL     1      -8.053  -0.063   2.838  0.00  0.00    -0.453 OA
ATOM     25  C   UNL     1      -8.809  -1.232   2.469  0.00  0.00    +0.466 C 
ATOM     26  O   UNL     1      -8.010  -2.324   2.960  0.00  0.00    -0.453 OA
ENDBRANCH   5  18
BRANCH   6  27
ATOM     27  O   UNL     1      -1.588   1.551   1.471  0.00  0.00    -0.380 OA
ATOM     28  H   UNL     1      -1.975   2.434   1.545  0.00  0.00    +0.211 HD
ENDBRANCH   6  27
BRANCH   5  29
ATOM     29  O   UNL     1      -3.255   1.637   3.527  0.00  0.00    -0.359 OA
ATOM     30  H   UNL     1      -3.544   1.609   4.449  0.00  0.00    +0.213 HD
ENDBRANCH   5  29
TORSDOF 4
