REMARK  Name = ZINC39480518
REMARK  8 active torsions:
REMARK  status: ('A' for Active; 'I' for Inactive)
REMARK    1  A    between atoms: C_1  and  C_2
REMARK    2  A    between atoms: C_2  and  C_3
REMARK    3  A    between atoms: C_2  and  S_4
REMARK    4  A    between atoms: S_4  and  C_7
REMARK    5  A    between atoms: C_9  and  S_26
REMARK    6  A    between atoms: N_13  and  C_25
REMARK    7  A    between atoms: C_22  and  O_24
REMARK    8  A    between atoms: S_26  and  C_29
REMARK                            x       y       z     vdW  Elec       q    Type
REMARK                         _______ _______ _______ _____ _____    ______ ____
ROOT
ATOM      1  C   UNL     1      -1.434  -2.368   0.045  0.00  0.00    +0.112 A 
ATOM      2  C   UNL     1      -1.907  -3.148   1.093  0.00  0.00    +0.056 A 
ATOM      3  C   UNL     1      -1.732  -4.523   1.097  0.00  0.00    +0.096 A 
ATOM      4  C   UNL     1      -1.203  -5.160  -0.023  0.00  0.00    +0.033 A 
ATOM      5  C   UNL     1      -0.813  -4.391  -1.057  0.00  0.00    -0.013 A 
ATOM      6  C   UNL     1      -0.761  -3.007  -0.970  0.00  0.00    +0.064 A 
ATOM      7  N   UNL     1       0.340  -2.461  -1.614  0.00  0.00    -0.285 N 
ATOM      8  C   UNL     1       0.527  -1.234  -2.186  0.00  0.00    +0.156 A 
ATOM      9  C   UNL     1       0.693  -1.610  -3.606  0.00  0.00    +0.144 A 
ATOM     10  C   UNL     1       0.884  -0.615  -4.503  0.00  0.00    +0.160 A 
ATOM     11  N   UNL     1       0.923   0.646  -4.064  0.00  0.00    -0.222 NA
ATOM     12  C   UNL     1       0.781   0.936  -2.785  0.00  0.00    +0.225 A 
ATOM     13  N   UNL     1       0.586  -0.000  -1.861  0.00  0.00    -0.218 NA
ATOM     14 CL   UNL     1       1.076  -0.970  -6.191  0.00  0.00    -0.060 Cl
ATOM     15  N   UNL     1       0.618  -2.966  -3.651  0.00  0.00    -0.211 NA
ATOM     16  C   UNL     1      -0.462  -3.491  -3.180  0.00  0.00    +0.192 C 
ATOM     17  C   UNL     1      -0.600  -4.857  -2.521  0.00  0.00    +0.132 C 
ATOM     18  C   UNL     1       1.500  -3.352  -1.693  0.00  0.00    +0.137 C 
ENDROOT
BRANCH   1  19
ATOM     19  S   UNL     1      -1.695  -0.625   0.014  0.00  0.00    +0.001 S 
ATOM     20  O   UNL     1      -2.768  -0.403   0.918  0.00  0.00    -0.169 OA
ATOM     21  O   UNL     1      -1.829  -0.303  -1.364  0.00  0.00    -0.169 OA
BRANCH  19  23
ATOM     22  C   UNL     1      -0.243   1.614   0.616  0.00  0.00    +0.032 C 
ATOM     23  C   UNL     1      -0.163   0.087   0.675  0.00  0.00    +0.130 C 
ATOM     24  C   UNL     1       0.021  -0.358   2.127  0.00  0.00    +0.032 C 
ENDBRANCH  19  23
ENDBRANCH   1  19
BRANCH   3  25
ATOM     25  S   UNL     1      -2.177  -5.464   2.519  0.00  0.00    +0.025 S 
ATOM     26  O   UNL     1      -1.407  -6.658   2.473  0.00  0.00    -0.164 OA
ATOM     27  O   UNL     1      -2.135  -4.573   3.625  0.00  0.00    -0.164 OA
BRANCH  25  28
ATOM     28  C   UNL     1      -3.861  -5.942   2.321  0.00  0.00    +0.094 A 
ATOM     29  C   UNL     1      -4.872  -5.125   2.792  0.00  0.00    +0.027 A 
ATOM     30  C   UNL     1      -6.193  -5.501   2.636  0.00  0.00    +0.002 A 
ATOM     31  C   UNL     1      -6.504  -6.693   2.010  0.00  0.00    +0.000 A 
ATOM     32  C   UNL     1      -5.493  -7.510   1.538  0.00  0.00    +0.002 A 
ATOM     33  C   UNL     1      -4.172  -7.132   1.689  0.00  0.00    +0.027 A 
ENDBRANCH  25  28
ENDBRANCH   3  25
BRANCH  16  34
ATOM     34  O   UNL     1      -1.584  -2.747  -3.279  0.00  0.00    -0.495 OA
ATOM     35  H   UNL     1      -1.450  -1.887  -3.700  0.00  0.00    +0.293 HD
ENDBRANCH  16  34
TORSDOF 5
