REMARK  Name = ZINC12309619
REMARK  12 active torsions:
REMARK  status: ('A' for Active; 'I' for Inactive)
REMARK    1  A    between atoms: C_1  and  C_2
REMARK    2  A    between atoms: C_2  and  C_3
REMARK    3  A    between atoms: C_3  and  C_4
REMARK    4  A    between atoms: C_10  and  N_11
REMARK    5  A    between atoms: N_11  and  O_12
REMARK    6  A    between atoms: O_12  and  C_13
REMARK    7  A    between atoms: C_13  and  C_14
REMARK    8  A    between atoms: N_16  and  C_17
REMARK    9  A    between atoms: C_19  and  C_24
REMARK   10  A    between atoms: C_22  and  C_23
REMARK   11  A    between atoms: N_27  and  C_32
REMARK   12  A    between atoms: N_30  and  C_31
REMARK                            x       y       z     vdW  Elec       q    Type
REMARK                         _______ _______ _______ _____ _____    ______ ____
ROOT
ATOM      1  C   UNL     1       0.030   0.040  -0.293  0.00  0.00    -0.005 A 
ATOM      2  C   UNL     1       1.178  -0.620  -0.069  0.00  0.00    +0.090 A 
ATOM      3  N   UNL     1       2.298   0.016   0.395  0.00  0.00    -0.347 N 
ATOM      4  H   UNL     1       3.141  -0.571   0.787  0.00  0.00    +0.167 HD
ATOM      5  C   UNL     1       2.413   1.371   0.392  0.00  0.00    +0.129 A 
ATOM      6  C   UNL     1       1.286   2.162   0.185  0.00  0.00    +0.106 A 
ATOM      7  C   UNL     1      -0.010   1.493  -0.034  0.00  0.00    +0.082 A 
ATOM      8  C   UNL     1       1.413   3.570   0.190  0.00  0.00    +0.268 A 
ATOM      9  O   UNL     1       0.441   4.281   0.014  0.00  0.00    -0.267 OA
ATOM     10  N   UNL     1       2.634   4.111   0.393  0.00  0.00    -0.263 N 
ATOM     11  C   UNL     1       3.710   3.329   0.586  0.00  0.00    +0.333 A 
ATOM     12  O   UNL     1       4.794   3.850   0.764  0.00  0.00    -0.246 OA
ATOM     13  N   UNL     1       3.623   1.986   0.589  0.00  0.00    -0.282 N 
ATOM     14  C   UNL     1       4.825   1.177   0.803  0.00  0.00    +0.155 C 
ATOM     15  C   UNL     1       2.788   5.568   0.402  0.00  0.00    +0.157 C 
ENDROOT
BRANCH   7  16
ATOM     16  N   UNL     1      -1.143   2.158  -0.005  0.00  0.00    -0.264 N 
ATOM     17  H   UNL     1      -2.027   1.761  -0.526  0.00  0.00    +0.194 HD
BRANCH  16  18
ATOM     18  O   UNL     1      -1.227   3.384   0.698  0.00  0.00    -0.265 OA
BRANCH  18  19
ATOM     19  C   UNL     1      -2.517   3.997   0.646  0.00  0.00    +0.288 C 
BRANCH  19  20
ATOM     20  C   UNL     1      -2.490   5.289   1.422  0.00  0.00    +0.246 C 
ATOM     21  O   UNL     1      -1.468   5.649   1.966  0.00  0.00    -0.273 OA
ATOM     22  N   UNL     1      -3.603   6.044   1.511  0.00  0.00    -0.283 N 
ATOM     23  H   UNL     1      -4.548   5.683   1.080  0.00  0.00    +0.155 HD
BRANCH  22  24
ATOM     24  C   UNL     1      -3.556   7.286   2.153  0.00  0.00    +0.037 A 
ATOM     25  C   UNL     1      -2.603   7.527   3.135  0.00  0.00    +0.027 A 
ATOM     26  C   UNL     1      -2.559   8.754   3.766  0.00  0.00    -0.049 A 
ATOM     27  C   UNL     1      -3.463   9.743   3.423  0.00  0.00    +0.004 A 
ATOM     28  C   UNL     1      -4.413   9.507   2.446  0.00  0.00    +0.005 A 
ATOM     29  C   UNL     1      -4.458   8.283   1.807  0.00  0.00    -0.029 A 
ATOM     30  C   UNL     1      -5.490   8.029   0.738  0.00  0.00    +0.045 C 
ATOM     31  C   UNL     1      -1.526   9.016   4.831  0.00  0.00    +0.044 C 
ENDBRANCH  22  24
ENDBRANCH  19  20
ENDBRANCH  18  19
ENDBRANCH  16  18
ENDBRANCH   7  16
BRANCH   1  32
ATOM     32  C   UNL     1      -1.190  -0.687  -0.798  0.00  0.00    +0.038 C 
BRANCH  32  34
ATOM     33  C   UNL     1      -1.995  -2.615  -2.167  0.00  0.00    +0.004 C 
ATOM     34  C   UNL     1      -0.756  -1.878  -1.655  0.00  0.00    +0.001 C 
ENDBRANCH  32  34
ENDBRANCH   1  32
TORSDOF 7
