REMARK  Name = ZINC66899995
REMARK  4 active torsions:
REMARK  status: ('A' for Active; 'I' for Inactive)
REMARK    1  A    between atoms: C_3  and  C_11
REMARK    2  A    between atoms: N_16  and  C_17
REMARK    3  A    between atoms: C_17  and  C_18
REMARK    4  A    between atoms: C_20  and  N_28
REMARK                            x       y       z     vdW  Elec       q    Type
REMARK                         _______ _______ _______ _____ _____    ______ ____
ROOT
ATOM      1  C   UNL     1       3.714   2.256   0.048  0.00  0.00    +0.091 C 
ATOM      2  C   UNL     1       4.388   2.343   1.433  0.00  0.00    +0.025 C 
ATOM      3  C   UNL     1       5.028   3.756   1.422  0.00  0.00    +0.017 C 
ATOM      4  C   UNL     1       3.980   4.568   0.621  0.00  0.00    +0.085 C 
ATOM      5  N   UNL     1       3.496   3.635  -0.424  0.00  0.00    -0.291 NA
ENDROOT
BRANCH   1   8
ATOM      6  C   UNL     1       0.007   1.608   0.353  0.00  0.00    +0.004 A 
ATOM      7  C   UNL     1       1.220   2.263   0.247  0.00  0.00    +0.009 A 
ATOM      8  C   UNL     1       2.394   1.538   0.164  0.00  0.00    +0.015 A 
ATOM      9  C   UNL     1       2.358   0.152   0.187  0.00  0.00    +0.167 A 
ATOM     10  C   UNL     1       1.139  -0.506   0.296  0.00  0.00    +0.162 A 
ATOM     11  C   UNL     1      -0.036   0.227   0.377  0.00  0.00    +0.049 A 
ATOM     12  O   UNL     1       1.082  -1.865   0.328  0.00  0.00    -0.485 OA
ATOM     13  C   UNL     1       2.241  -2.570  -0.130  0.00  0.00    +0.270 C 
ATOM     14  C   UNL     1       3.479  -1.921   0.504  0.00  0.00    +0.270 C 
ATOM     15  O   UNL     1       3.522  -0.548   0.100  0.00  0.00    -0.485 OA
ENDBRANCH   1   8
BRANCH   5  16
ATOM     16  C   UNL     1       4.181   3.870  -1.702  0.00  0.00    +0.124 C 
BRANCH  16  17
ATOM     17  C   UNL     1       3.639   5.122  -2.340  0.00  0.00    +0.011 A 
ATOM     18  C   UNL     1       4.390   6.282  -2.334  0.00  0.00    +0.041 A 
ATOM     19  C   UNL     1       3.893   7.432  -2.919  0.00  0.00    +0.127 A 
ATOM     20  C   UNL     1       2.643   7.424  -3.510  0.00  0.00    +0.042 A 
ATOM     21  C   UNL     1       1.887   6.267  -3.518  0.00  0.00    +0.022 A 
ATOM     22  C   UNL     1       2.387   5.110  -2.940  0.00  0.00    +0.133 A 
ATOM     23  O   UNL     1       1.661   3.961  -2.954  0.00  0.00    -0.466 OA
ATOM     24  C   UNL     1       0.266   4.081  -3.248  0.00  0.00    +0.394 C 
ATOM     25  O   UNL     1       0.112   4.918  -4.401  0.00  0.00    -0.339 OA
ATOM     26  C   UNL     1       0.523   6.271  -4.162  0.00  0.00    +0.202 C 
BRANCH  19  27
ATOM     27  N   UNL     1       4.699   8.673  -2.912  0.00  0.00    +0.056 N 
ATOM     28  O   UNL     1       5.792   8.680  -2.395  0.00  0.00    -0.126 OA
ATOM     29  O   UNL     1       4.265   9.678  -3.423  0.00  0.00    -0.126 OA
ENDBRANCH  19  27
ENDBRANCH  16  17
ENDBRANCH   5  16
TORSDOF 4
