REMARK  Name = ZINC63833001
REMARK  9 active torsions:
REMARK  status: ('A' for Active; 'I' for Inactive)
REMARK    1  A    between atoms: C_1  and  C_2
REMARK    2  A    between atoms: C_2  and  C_3
REMARK    3  A    between atoms: C_2  and  C_4
REMARK    4  A    between atoms: C_4  and  N_5
REMARK    5  A    between atoms: C_10  and  C_13
REMARK    6  A    between atoms: C_16  and  C_19
REMARK    7  A    between atoms: C_19  and  C_20
REMARK    8  A    between atoms: C_19  and  C_21
REMARK    9  A    between atoms: C_19  and  C_22
REMARK                            x       y       z     vdW  Elec       q    Type
REMARK                         _______ _______ _______ _____ _____    ______ ____
ROOT
ATOM      1  N   UNL     1      -1.416  -1.993  -0.116  0.00  0.00    -0.232 N 
ATOM      2  C   UNL     1      -1.366  -2.981   0.965  0.00  0.00    +0.211 C 
ATOM      3  C   UNL     1      -2.106  -4.153   0.321  0.00  0.00    +0.093 C 
ATOM      4  N   UNL     1      -2.820  -4.728   1.224  0.00  0.00    -0.262 NA
ATOM      5  C   UNL     1      -2.720  -3.998   2.498  0.00  0.00    +0.205 C 
ATOM      6  N   UNL     1      -2.168  -2.642   2.148  0.00  0.00    -0.269 NA
ATOM      7  C   UNL     1      -1.753  -3.997  -1.092  0.00  0.00    +0.156 C 
ATOM      8  N   UNL     1      -1.451  -2.747  -1.303  0.00  0.00    -0.189 NA
ATOM      9  H   UNL     1      -1.587  -2.274   2.886  0.00  0.00    +0.126 HD
ENDROOT
BRANCH   5  10
ATOM     10  C   UNL     1      -4.100  -3.868   3.145  0.00  0.00    +0.191 C 
ATOM     11  C   UNL     1      -4.651  -5.234   3.513  0.00  0.00    +0.030 C 
ATOM     12  C   UNL     1      -5.766  -5.337   2.786  0.00  0.00    +0.067 C 
ATOM     13  N   UNL     1      -5.956  -4.227   2.039  0.00  0.00    -0.158 NA
ATOM     14  N   UNL     1      -5.084  -3.360   2.175  0.00  0.00    -0.176 NA
BRANCH  12  15
ATOM     15  C   UNL     1      -6.688  -6.529   2.797  0.00  0.00    +0.006 C 
ATOM     16  C   UNL     1      -6.145  -7.585   3.762  0.00  0.00    +0.017 C 
ATOM     17  C   UNL     1      -8.082  -6.092   3.251  0.00  0.00    +0.017 C 
ATOM     18  C   UNL     1      -6.773  -7.122   1.389  0.00  0.00    +0.017 C 
ENDBRANCH  12  15
ENDBRANCH   5  10
BRANCH   1  19
ATOM     19  C   UNL     1      -1.433  -0.534   0.013  0.00  0.00    +0.131 C 
BRANCH  19  21
ATOM     20  C   UNL     1      -0.019   1.526   0.010  0.00  0.00    +0.009 C 
ATOM     21  C   UNL     1       0.002  -0.004   0.002  0.00  0.00    +0.002 C 
ATOM     22  C   UNL     1       0.742  -0.511   1.242  0.00  0.00    +0.009 C 
ENDBRANCH  19  21
ENDBRANCH   1  19
TORSDOF 4
