REMARK  Name = ZINC39325324
REMARK  7 active torsions:
REMARK  status: ('A' for Active; 'I' for Inactive)
REMARK    1  A    between atoms: C_1  and  C_2
REMARK    2  A    between atoms: C_9  and  C_14
REMARK    3  A    between atoms: C_14  and  N_15
REMARK    4  A    between atoms: N_15  and  C_16
REMARK    5  A    between atoms: N_15  and  S_26
REMARK    6  A    between atoms: C_16  and  C_17
REMARK    7  A    between atoms: S_26  and  C_29
REMARK                            x       y       z     vdW  Elec       q    Type
REMARK                         _______ _______ _______ _____ _____    ______ ____
ROOT
ATOM      1  N   UNL     1       1.171  -6.304   3.215  0.00  0.00    -0.171 NA
ENDROOT
BRANCH   1   2
ATOM      2  S   UNL     1       0.398  -6.799   4.594  0.00  0.00    +0.061 S 
ATOM      3  O   UNL     1       0.922  -8.081   4.915  0.00  0.00    -0.153 OA
ATOM      4  O   UNL     1       0.448  -5.707   5.501  0.00  0.00    -0.153 OA
BRANCH   2   5
ATOM      5  C   UNL     1      -1.299  -7.037   4.183  0.00  0.00    +0.106 A 
ATOM      6  C   UNL     1      -2.191  -5.988   4.299  0.00  0.00    +0.030 A 
ATOM      7  C   UNL     1      -3.522  -6.174   3.977  0.00  0.00    +0.022 A 
ATOM      8  C   UNL     1      -3.962  -7.410   3.539  0.00  0.00    +0.041 A 
ATOM      9  C   UNL     1      -3.068  -8.460   3.424  0.00  0.00    +0.022 A 
ATOM     10  C   UNL     1      -1.736  -8.271   3.741  0.00  0.00    +0.030 A 
ATOM     11 CL   UNL     1      -5.634  -7.645   3.136  0.00  0.00    -0.084 Cl
ENDBRANCH   2   5
ENDBRANCH   1   2
BRANCH   1  12
ATOM     12  C   UNL     1       1.389  -4.877   2.970  0.00  0.00    +0.126 C 
BRANCH  12  21
ATOM     13  C   UNL     1       0.405   1.486  -0.121  0.00  0.00    +0.044 C 
ATOM     14  C   UNL     1       0.271  -0.014  -0.056  0.00  0.00    -0.050 A 
ATOM     15  C   UNL     1       0.077  -0.735  -1.235  0.00  0.00    +0.005 A 
ATOM     16  C   UNL     1      -0.051  -2.087  -1.254  0.00  0.00    +0.024 A 
ATOM     17  C   UNL     1       0.008  -2.828  -0.059  0.00  0.00    +0.040 A 
ATOM     18  N   UNL     1      -0.118  -4.154  -0.091  0.00  0.00    -0.284 N 
ATOM     19  C   UNL     1      -0.073  -4.910   0.993  0.00  0.00    +0.225 C 
ATOM     20  O   UNL     1      -0.195  -6.117   0.902  0.00  0.00    -0.275 OA
ATOM     21  C   UNL     1       0.132  -4.268   2.347  0.00  0.00    +0.114 C 
ATOM     22  C   UNL     1       0.277  -2.759   2.388  0.00  0.00    -0.003 C 
ATOM     23  C   UNL     1       0.212  -2.092   1.201  0.00  0.00    -0.007 A 
ATOM     24  C   UNL     1       0.348  -0.636   1.149  0.00  0.00    +0.012 A 
ATOM     25  H   UNL     1      -0.251  -4.585  -0.950  0.00  0.00    +0.155 HD
ENDBRANCH  12  21
ENDBRANCH   1  12
BRANCH   1  26
ATOM     26  C   UNL     1       1.635  -7.295   2.240  0.00  0.00    +0.144 C 
BRANCH  26  27
ATOM     27  C   UNL     1       3.073  -7.645   2.526  0.00  0.00    -0.028 A 
ATOM     28  C   UNL     1       4.091  -6.918   1.936  0.00  0.00    +0.009 A 
ATOM     29  C   UNL     1       5.411  -7.236   2.196  0.00  0.00    +0.050 A 
ATOM     30  C   UNL     1       5.717  -8.284   3.049  0.00  0.00    +0.166 A 
ATOM     31  C   UNL     1       4.692  -9.015   3.643  0.00  0.00    +0.167 A 
ATOM     32  C   UNL     1       3.371  -8.688   3.383  0.00  0.00    +0.054 A 
ATOM     33  O   UNL     1       5.247  -9.983   4.430  0.00  0.00    -0.453 OA
ATOM     34  C   UNL     1       6.614 -10.097   3.993  0.00  0.00    +0.466 C 
ATOM     35  O   UNL     1       6.914  -8.793   3.463  0.00  0.00    -0.453 OA
ENDBRANCH  26  27
ENDBRANCH   1  26
TORSDOF 6
