REMARK  Name = ZINC01243255
REMARK  10 active torsions:
REMARK  status: ('A' for Active; 'I' for Inactive)
REMARK    1  A    between atoms: C_1  and  C_2
REMARK    2  A    between atoms: C_3  and  C_21
REMARK    3  A    between atoms: N_11  and  C_14
REMARK    4  A    between atoms: C_15  and  C_19
REMARK    5  A    between atoms: C_16  and  N_18
REMARK    6  A    between atoms: C_21  and  O_23
REMARK    7  A    between atoms: O_23  and  C_24
REMARK    8  A    between atoms: C_24  and  C_25
REMARK    9  A    between atoms: C_24  and  C_26
REMARK   10  A    between atoms: C_24  and  C_27
REMARK                            x       y       z     vdW  Elec       q    Type
REMARK                         _______ _______ _______ _____ _____    ______ ____
ROOT
ATOM      1  C   UNL     1      -0.013   1.086   0.008  0.00  0.00    +0.087 C 
ATOM      2  C   UNL     1      -0.718   1.572   1.248  0.00  0.00    +0.116 C 
ATOM      3  C   UNL     1      -0.839   2.892   1.449  0.00  0.00    +0.099 C 
ATOM      4  C   UNL     1      -1.541   3.424   2.664  0.00  0.00    +0.148 C 
ATOM      5  C   UNL     1      -0.544   4.013   3.630  0.00  0.00    -0.001 A 
ATOM      6  C   UNL     1       0.522   3.483   4.322  0.00  0.00    +0.007 A 
ATOM      7  C   UNL     1       1.274   4.290   5.158  0.00  0.00    +0.000 A 
ATOM      8  C   UNL     1       0.951   5.628   5.295  0.00  0.00    +0.002 A 
ATOM      9  C   UNL     1      -0.116   6.162   4.604  0.00  0.00    +0.024 A 
ATOM     10  C   UNL     1      -0.878   5.356   3.760  0.00  0.00    +0.041 A 
ATOM     11  N   UNL     1      -1.986   5.657   2.967  0.00  0.00    -0.273 N 
ATOM     12  C   UNL     1      -2.436   4.583   2.293  0.00  0.00    +0.240 C 
ATOM     13  O   UNL     1      -3.380   4.552   1.532  0.00  0.00    -0.274 OA
ATOM     14  C   UNL     1      -2.590   6.989   2.878  0.00  0.00    +0.138 C 
ATOM     15  C   UNL     1      -2.341   2.340   3.328  0.00  0.00    +0.110 C 
ATOM     16  C   UNL     1      -2.126   1.038   3.015  0.00  0.00    +0.199 C 
ATOM     17  O   UNL     1      -1.198   0.669   2.115  0.00  0.00    -0.445 OA
ENDROOT
BRANCH  16  18
ATOM     18  N   UNL     1      -2.877   0.070   3.635  0.00  0.00    -0.328 N 
ATOM     19  H   UNL     1      -2.734  -0.866   3.421  0.00  0.00    +0.145 HD
ATOM     20  H   UNL     1      -3.550   0.321   4.287  0.00  0.00    +0.145 HD
ENDBRANCH  16  18
BRANCH  15  21
ATOM     21  C   UNL     1      -3.337   2.684   4.297  0.00  0.00    +0.102 C 
ATOM     22  N   UNL     1      -4.128   2.956   5.066  0.00  0.00    -0.191 NA
ENDBRANCH  15  21
BRANCH   3  23
ATOM     23  C   UNL     1      -0.301   3.796   0.500  0.00  0.00    +0.341 C 
ATOM     24  O   UNL     1       0.266   3.372  -0.490  0.00  0.00    -0.245 OA
BRANCH  23  25
ATOM     25  O   UNL     1      -0.418   5.126   0.693  0.00  0.00    -0.456 OA
BRANCH  25  26
ATOM     26  C   UNL     1       0.147   5.979  -0.304  0.00  0.00    +0.106 C 
ATOM     27  C   UNL     1      -0.520   5.699  -1.652  0.00  0.00    +0.055 C 
ATOM     28  C   UNL     1      -0.082   7.440   0.085  0.00  0.00    +0.055 C 
ATOM     29  C   UNL     1       1.649   5.710  -0.413  0.00  0.00    +0.055 C 
ENDBRANCH  25  26
ENDBRANCH  23  25
ENDBRANCH   3  23
TORSDOF 5
