REMARK  Name = ZINC01944983
REMARK  13 active torsions:
REMARK  status: ('A' for Active; 'I' for Inactive)
REMARK    1  A    between atoms: C_1  and  C_2
REMARK    2  A    between atoms: C_2  and  O_3
REMARK    3  A    between atoms: O_3  and  C_4
REMARK    4  A    between atoms: C_4  and  C_6
REMARK    5  A    between atoms: C_7  and  C_36
REMARK    6  A    between atoms: C_8  and  C_31
REMARK    7  A    between atoms: C_10  and  N_11
REMARK    8  A    between atoms: C_12  and  C_14
REMARK    9  A    between atoms: C_14  and  N_15
REMARK   10  A    between atoms: C_26  and  C_30
REMARK   11  A    between atoms: C_31  and  O_33
REMARK   12  A    between atoms: O_33  and  C_34
REMARK   13  A    between atoms: C_34  and  C_35
REMARK                            x       y       z     vdW  Elec       q    Type
REMARK                         _______ _______ _______ _____ _____    ______ ____
ROOT
ATOM      1  N   UNL     1       3.706  -0.203  -0.034  0.00  0.00    -0.278 N 
ATOM      2  C   UNL     1       4.677   0.732  -0.038  0.00  0.00    +0.239 C 
ATOM      3  O   UNL     1       4.385   1.909  -0.030  0.00  0.00    -0.273 OA
ATOM      4  H   UNL     1       3.939  -1.145  -0.041  0.00  0.00    +0.155 HD
ENDROOT
BRANCH   1   9
ATOM      5  C   UNL     1       1.238  -0.631  -0.013  0.00  0.00    +0.091 A 
ATOM      6  C   UNL     1       0.002  -0.004   0.002  0.00  0.00    -0.014 A 
ATOM      7  C   UNL     1      -0.017   1.365   0.009  0.00  0.00    +0.102 A 
ATOM      8  S   UNL     1       1.717   1.781  -0.005  0.00  0.00    -0.066 S 
ATOM      9  C   UNL     1       2.379   0.179  -0.020  0.00  0.00    +0.087 A 
ATOM     10  C   UNL     1      -1.277  -0.801   0.010  0.00  0.00    +0.046 C 
BRANCH   5  11
ATOM     11  C   UNL     1       1.347  -2.094  -0.022  0.00  0.00    +0.342 C 
ATOM     12  O   UNL     1       1.382  -2.695  -1.078  0.00  0.00    -0.245 OA
BRANCH  11  13
ATOM     13  O   UNL     1       1.408  -2.772   1.142  0.00  0.00    -0.461 OA
BRANCH  13  15
ATOM     14  C   UNL     1       1.572  -4.808   2.468  0.00  0.00    +0.048 C 
ATOM     15  C   UNL     1       1.515  -4.218   1.058  0.00  0.00    +0.229 C 
ENDBRANCH  13  15
ENDBRANCH  11  13
ENDBRANCH   5  11
BRANCH   7  16
ATOM     16  C   UNL     1      -1.171   2.263   0.020  0.00  0.00    +0.346 C 
ATOM     17  O   UNL     1      -2.298   1.804   0.023  0.00  0.00    -0.244 OA
BRANCH  16  18
ATOM     18  O   UNL     1      -0.986   3.599   0.026  0.00  0.00    -0.461 OA
BRANCH  18  19
ATOM     19  C   UNL     1      -2.159   4.416   0.037  0.00  0.00    +0.229 C 
ATOM     20  C   UNL     1      -1.753   5.891   0.043  0.00  0.00    +0.048 C 
ENDBRANCH  18  19
ENDBRANCH  16  18
ENDBRANCH   7  16
ENDBRANCH   1   9
BRANCH   2  21
ATOM     21  C   UNL     1       6.125   0.315  -0.054  0.00  0.00    +0.245 C 
BRANCH  21  22
ATOM     22  N   UNL     1       6.977   1.506  -0.056  0.00  0.00    -0.201 N 
ATOM     23  C   UNL     1       7.370   2.046   1.114  0.00  0.00    +0.279 A 
ATOM     24  O   UNL     1       7.025   1.550   2.173  0.00  0.00    -0.265 OA
ATOM     25  C   UNL     1       8.208   3.211   1.091  0.00  0.00    +0.079 A 
ATOM     26  C   UNL     1       8.751   3.953   2.225  0.00  0.00    -0.023 A 
ATOM     27  C   UNL     1       9.517   5.030   1.943  0.00  0.00    -0.004 A 
ATOM     28  S   UNL     1       9.555   5.114   0.173  0.00  0.00    -0.071 S 
ATOM     29  C   UNL     1       8.541   3.700  -0.182  0.00  0.00    +0.138 A 
ATOM     30  N   UNL     1       8.116   3.124  -1.302  0.00  0.00    -0.123 NA
ATOM     31  N   UNL     1       7.367   2.075  -1.273  0.00  0.00    -0.061 NA
ATOM     32  C   UNL     1      10.185   5.949   2.920  0.00  0.00    +0.046 C 
ATOM     33  C   UNL     1      10.181   5.275   4.300  0.00  0.00    -0.009 C 
ATOM     34  C   UNL     1       8.773   4.740   4.581  0.00  0.00    +0.008 C 
ATOM     35  C   UNL     1       8.479   3.547   3.671  0.00  0.00    +0.037 C 
ATOM     36  C   UNL     1      10.565   6.297   5.371  0.00  0.00    +0.008 C 
ENDBRANCH  21  22
ENDBRANCH   2  21
TORSDOF 9
