REMARK  Name = ZINC65458336
REMARK  4 active torsions:
REMARK  status: ('A' for Active; 'I' for Inactive)
REMARK    1  A    between atoms: C_1  and  C_2
REMARK    2  A    between atoms: C_5  and  C_8
REMARK    3  A    between atoms: C_12  and  C_14
REMARK    4  A    between atoms: C_24  and  C_27
REMARK                            x       y       z     vdW  Elec       q    Type
REMARK                         _______ _______ _______ _____ _____    ______ ____
ROOT
ATOM      1  C   UNL     1       0.378  -5.103  -0.324  0.00  0.00    +0.079 C 
ATOM      2  N   UNL     1       0.044  -6.282  -0.773  0.00  0.00    -0.153 NA
ATOM      3  N   UNL     1      -0.360  -7.137   0.247  0.00  0.00    -0.161 NA
ATOM      4  C   UNL     1      -0.315  -6.575   1.411  0.00  0.00    +0.117 C 
ATOM      5  C   UNL     1       0.184  -5.163   1.178  0.00  0.00    +0.087 C 
ENDROOT
BRANCH   5   6
ATOM      6  C   UNL     1       1.511  -4.931   1.903  0.00  0.00    +0.026 C 
ATOM      7  C   UNL     1       2.670  -5.096   0.916  0.00  0.00    +0.101 C 
ATOM      8  C   UNL     1       3.645  -6.166   1.301  0.00  0.00    +0.216 C 
ATOM      9  O   UNL     1       4.821  -6.000   1.052  0.00  0.00    -0.276 OA
ATOM     10  N   UNL     1       3.263  -7.318   1.920  0.00  0.00    -0.278 N 
ATOM     11  C   UNL     1       1.860  -7.334   2.325  0.00  0.00    +0.302 C 
ATOM     12  C   UNL     1       1.663  -5.942   3.017  0.00  0.00    +0.103 C 
ATOM     13  C   UNL     1       0.462  -6.214   3.872  0.00  0.00    +0.063 C 
ATOM     14  N   UNL     1       0.434  -7.488   4.083  0.00  0.00    -0.092 NA
ATOM     15  O   UNL     1       1.503  -8.184   3.413  0.00  0.00    -0.370 OA
ATOM     16  C   UNL     1      -0.523  -5.196   4.387  0.00  0.00    +0.064 C 
ATOM     17  H   UNL     1       3.867  -8.061   2.077  0.00  0.00    +0.152 HD
ENDBRANCH   5   6
BRANCH   1  22
ATOM     18  C   UNL     1       2.227  -0.617  -3.406  0.00  0.00    +0.044 C 
ATOM     19  C   UNL     1       1.742  -1.793  -2.598  0.00  0.00    -0.050 A 
ATOM     20  C   UNL     1       1.560  -3.020  -3.211  0.00  0.00    +0.004 A 
ATOM     21  C   UNL     1       1.117  -4.101  -2.478  0.00  0.00    +0.010 A 
ATOM     22  C   UNL     1       0.852  -3.955  -1.113  0.00  0.00    -0.001 A 
ATOM     23  C   UNL     1       1.039  -2.711  -0.501  0.00  0.00    +0.010 A 
ATOM     24  C   UNL     1       1.488  -1.641  -1.246  0.00  0.00    +0.004 A 
ENDBRANCH   1  22
TORSDOF 2
