REMARK  Name = ZINC09950810
REMARK  8 active torsions:
REMARK  status: ('A' for Active; 'I' for Inactive)
REMARK    1  A    between atoms: C_1  and  C_2
REMARK    2  A    between atoms: C_3  and  C_13
REMARK    3  A    between atoms: C_4  and  C_7
REMARK    4  A    between atoms: C_16  and  C_18
REMARK    5  A    between atoms: C_18  and  N_60
REMARK    6  A    between atoms: N_21  and  S_24
REMARK    7  A    between atoms: S_24  and  C_27
REMARK    8  A    between atoms: C_28  and  C_29
REMARK                            x       y       z     vdW  Elec       q    Type
REMARK                         _______ _______ _______ _____ _____    ______ ____
ROOT
ATOM      1  C   UNL     1       2.361   0.336  -5.192  0.00  0.00    +0.021 C 
ENDROOT
BRANCH   1   7
ATOM      2  C   UNL     1       2.605   0.110  -2.794  0.00  0.00    -0.061 C 
ATOM      3  C   UNL     1       2.114  -0.680  -1.576  0.00  0.00    +0.091 C 
ATOM      4  N   UNL     1       0.663  -0.477  -1.441  0.00  0.00    -0.181 NA
ATOM      5  C   UNL     1      -0.185  -0.711  -2.619  0.00  0.00    +0.091 C 
ATOM      6  C   UNL     1       0.397   0.086  -3.798  0.00  0.00    -0.061 C 
ATOM      7  N   UNL     1       1.814  -0.299  -3.975  0.00  0.00    +0.387 N 
ATOM      8  H   UNL     1       1.872  -1.319  -4.077  0.00  0.00    -0.081 HD
BRANCH   4   9
ATOM      9  S   UNL     1       0.002  -0.004   0.002  0.00  0.00    +0.054 S 
ATOM     10  O   UNL     1       0.913  -0.404   1.017  0.00  0.00    -0.153 OA
ATOM     11  O   UNL     1      -1.354  -0.428  -0.014  0.00  0.00    -0.153 OA
BRANCH   9  12
ATOM     12  C   UNL     1      -0.022   1.758   0.012  0.00  0.00    +0.153 C 
ATOM     13  C   UNL     1      -1.179   2.405   0.021  0.00  0.00    +0.028 C 
BRANCH  13  14
ATOM     14  C   UNL     1      -1.199   3.883   0.029  0.00  0.00    -0.024 A 
ATOM     15  C   UNL     1      -0.002   4.600   0.033  0.00  0.00    +0.008 A 
ATOM     16  C   UNL     1      -0.027   5.979   0.035  0.00  0.00    +0.001 A 
ATOM     17  C   UNL     1      -1.236   6.652   0.044  0.00  0.00    +0.000 A 
ATOM     18  C   UNL     1      -2.427   5.947   0.046  0.00  0.00    +0.001 A 
ATOM     19  C   UNL     1      -2.415   4.567   0.038  0.00  0.00    +0.008 A 
ENDBRANCH  13  14
ENDBRANCH   9  12
ENDBRANCH   4   9
ENDBRANCH   1   7
BRANCH   1  23
ATOM     20  C   UNL     1       0.356  -0.689  -8.031  0.00  0.00    +0.254 A 
ATOM     21  N   UNL     1      -0.195   0.452  -7.689  0.00  0.00    -0.107 NA
ATOM     22  N   UNL     1       0.427   0.935  -6.671  0.00  0.00    -0.114 NA
ATOM     23  C   UNL     1       1.395   0.133  -6.331  0.00  0.00    +0.202 A 
ATOM     24  O   UNL     1       1.374  -0.913  -7.177  0.00  0.00    -0.422 OA
BRANCH  20  27
ATOM     25  C   UNL     1       1.660  -3.461  -8.923  0.00  0.00    +0.090 C 
ATOM     26  C   UNL     1       0.482  -2.756  -9.544  0.00  0.00    +0.147 A 
ATOM     27  C   UNL     1      -0.062  -1.565  -9.145  0.00  0.00    +0.108 A 
ATOM     28  C   UNL     1      -1.165  -1.367 -10.107  0.00  0.00    +0.126 A 
ATOM     29  N   UNL     1      -1.127  -2.413 -10.893  0.00  0.00    -0.077 NA
ATOM     30  O   UNL     1      -0.238  -3.172 -10.592  0.00  0.00    -0.359 OA
BRANCH  28  31
ATOM     31  C   UNL     1      -2.114  -0.228 -10.168  0.00  0.00    +0.004 A 
ATOM     32  C   UNL     1      -2.550   0.383  -8.994  0.00  0.00    +0.010 A 
ATOM     33  C   UNL     1      -3.428   1.446  -9.057  0.00  0.00    +0.001 A 
ATOM     34  C   UNL     1      -3.885   1.897 -10.283  0.00  0.00    +0.000 A 
ATOM     35  C   UNL     1      -3.460   1.290 -11.451  0.00  0.00    +0.001 A 
ATOM     36  C   UNL     1      -2.577   0.231 -11.400  0.00  0.00    +0.010 A 
ENDBRANCH  28  31
ENDBRANCH  20  27
ENDBRANCH   1  23
TORSDOF 7
