REMARK  Name = ZINC12710925
REMARK  10 active torsions:
REMARK  status: ('A' for Active; 'I' for Inactive)
REMARK    1  A    between atoms: C_1  and  O_2
REMARK    2  A    between atoms: O_2  and  C_3
REMARK    3  A    between atoms: C_7  and  N_9
REMARK    4  A    between atoms: N_9  and  C_10
REMARK    5  A    between atoms: C_10  and  C_12
REMARK    6  A    between atoms: C_10  and  C_17
REMARK    7  A    between atoms: N_19  and  C_20
REMARK    8  A    between atoms: C_26  and  C_28
REMARK    9  A    between atoms: C_29  and  N_36
REMARK   10  A    between atoms: C_30  and  C_33
REMARK                            x       y       z     vdW  Elec       q    Type
REMARK                         _______ _______ _______ _____ _____    ______ ____
ROOT
ATOM      1  N   UNL     1      -4.819   1.549   4.225  0.00  0.00    -0.250 N 
ATOM      2  C   UNL     1      -4.705   2.709   4.902  0.00  0.00    +0.262 C 
ATOM      3  O   UNL     1      -5.693   3.232   5.383  0.00  0.00    -0.269 OA
ENDROOT
BRANCH   1   8
ATOM      4  C   UNL     1      -2.062   0.581   1.989  0.00  0.00    +0.122 A 
ATOM      5  C   UNL     1      -1.412  -0.364   2.771  0.00  0.00    +0.046 A 
ATOM      6  C   UNL     1      -1.888  -0.664   4.032  0.00  0.00    +0.005 A 
ATOM      7  C   UNL     1      -3.018  -0.033   4.516  0.00  0.00    +0.024 A 
ATOM      8  C   UNL     1      -3.675   0.910   3.736  0.00  0.00    +0.041 A 
ATOM      9  C   UNL     1      -3.195   1.216   2.470  0.00  0.00    +0.069 A 
BRANCH   4  11
ATOM     10  C   UNL     1      -0.416   0.186   0.319  0.00  0.00    +0.277 C 
ATOM     11  O   UNL     1      -1.589   0.879   0.750  0.00  0.00    -0.495 OA
ENDBRANCH   4  11
ENDBRANCH   1   8
BRANCH   2  12
ATOM     12  C   UNL     1      -3.393   3.339   5.059  0.00  0.00    +0.116 A 
ATOM     13  C   UNL     1      -3.033   4.459   5.810  0.00  0.00    +0.076 A 
ATOM     14  C   UNL     1      -1.673   4.755   5.711  0.00  0.00    +0.155 A 
ATOM     15  N   UNL     1      -0.905   4.002   4.955  0.00  0.00    -0.203 NA
ATOM     16  S   UNL     1      -1.829   2.885   4.337  0.00  0.00    +0.019 S 
BRANCH  14  17
ATOM     17  C   UNL     1      -1.106   5.904   6.440  0.00  0.00    +0.262 C 
ATOM     18  O   UNL     1      -1.823   6.596   7.137  0.00  0.00    -0.269 OA
ATOM     19  N   UNL     1       0.208   6.186   6.335  0.00  0.00    -0.324 N 
ATOM     20  H   UNL     1       0.780   5.634   5.779  0.00  0.00    +0.145 HD
ATOM     21  H   UNL     1       0.581   6.942   6.814  0.00  0.00    +0.145 HD
ENDBRANCH  14  17
BRANCH  13  22
ATOM     22  N   UNL     1      -3.929   5.195   6.574  0.00  0.00    -0.355 N 
ATOM     23  H   UNL     1      -4.864   4.939   6.606  0.00  0.00    +0.142 HD
ATOM     24  H   UNL     1      -3.619   5.966   7.076  0.00  0.00    +0.142 HD
ENDBRANCH  13  22
ENDBRANCH   2  12
BRANCH   1  25
ATOM     25  C   UNL     1      -6.141   0.958   4.001  0.00  0.00    +0.204 C 
BRANCH  25  26
ATOM     26  C   UNL     1      -6.143  -0.467   4.490  0.00  0.00    +0.019 A 
ATOM     27  C   UNL     1      -6.945  -1.051   5.414  0.00  0.00    +0.013 A 
ATOM     28  C   UNL     1      -6.765  -2.390   5.708  0.00  0.00    +0.008 A 
ATOM     29  C   UNL     1      -5.792  -3.079   5.064  0.00  0.00    +0.045 A 
ATOM     30  S   UNL     1      -5.096  -1.827   3.998  0.00  0.00    -0.099 S 
ENDBRANCH  25  26
BRANCH  25  31
ATOM     31  C   UNL     1      -6.460   0.984   2.529  0.00  0.00    +0.239 C 
ATOM     32  O   UNL     1      -5.683   1.492   1.748  0.00  0.00    -0.273 OA
ATOM     33  N   UNL     1      -7.609   0.443   2.079  0.00  0.00    -0.311 N 
ATOM     34  H   UNL     1      -8.231   0.037   2.703  0.00  0.00    +0.149 HD
BRANCH  33  35
ATOM     35  C   UNL     1      -7.920   0.469   0.647  0.00  0.00    +0.073 C 
ATOM     36  C   UNL     1      -8.580   1.802   0.292  0.00  0.00    +0.022 C 
ATOM     37  C   UNL     1      -8.904   1.829  -1.203  0.00  0.00    +0.002 C 
ATOM     38  C   UNL     1      -9.860   0.681  -1.538  0.00  0.00    +0.000 C 
ATOM     39  C   UNL     1      -9.199  -0.652  -1.183  0.00  0.00    +0.002 C 
ATOM     40  C   UNL     1      -8.875  -0.679   0.312  0.00  0.00    +0.022 C 
ENDBRANCH  33  35
ENDBRANCH  25  31
ENDBRANCH   1  25
TORSDOF 9
