REMARK  Name = ZINC36027332
REMARK  7 active torsions:
REMARK  status: ('A' for Active; 'I' for Inactive)
REMARK    1  A    between atoms: C_1  and  C_2
REMARK    2  A    between atoms: C_2  and  C_3
REMARK    3  A    between atoms: C_3  and  N_4
REMARK    4  A    between atoms: C_7  and  C_27
REMARK    5  A    between atoms: N_13  and  S_16
REMARK    6  A    between atoms: S_16  and  C_19
REMARK    7  A    between atoms: C_27  and  C_28
REMARK                            x       y       z     vdW  Elec       q    Type
REMARK                         _______ _______ _______ _____ _____    ______ ____
ROOT
ATOM      1  N   UNL     1       0.484  -1.909   1.387  0.00  0.00    -0.314 N 
ATOM      2  C   UNL     1      -0.495  -2.712   1.853  0.00  0.00    +0.201 C 
ATOM      3  O   UNL     1      -1.545  -2.342   2.336  0.00  0.00    -0.277 OA
ATOM      4  C   UNL     1      -0.063  -4.151   1.673  0.00  0.00    +0.023 C 
ATOM      5  N   UNL     1       1.054  -4.090   0.700  0.00  0.00    +0.401 N 
ATOM      6  C   UNL     1       1.591  -2.728   0.886  0.00  0.00    +0.006 C 
ATOM      7  C   UNL     1       2.091  -2.180  -0.450  0.00  0.00    +0.023 C 
ATOM      8  C   UNL     1       2.613  -0.754  -0.251  0.00  0.00    +0.109 C 
ATOM      9  N   UNL     1       3.617  -0.763   0.821  0.00  0.00    -0.177 NA
ATOM     10  C   UNL     1       3.255  -1.338   2.124  0.00  0.00    +0.109 C 
ATOM     11  C   UNL     1       2.728  -2.760   1.906  0.00  0.00    +0.023 C 
ATOM     12  H   UNL     1       1.754  -4.784   0.917  0.00  0.00    -0.082 HD
ATOM     13  H   UNL     1       0.713  -4.209  -0.242  0.00  0.00    -0.082 HD
ENDROOT
BRANCH   9  14
ATOM     14  S   UNL     1       5.129  -0.138   0.566  0.00  0.00    +0.061 S 
ATOM     15  O   UNL     1       5.992  -0.765   1.504  0.00  0.00    -0.153 OA
ATOM     16  O   UNL     1       5.359  -0.191  -0.835  0.00  0.00    -0.153 OA
BRANCH  14  17
ATOM     17  C   UNL     1       5.067   1.569   1.002  0.00  0.00    +0.107 A 
ATOM     18  C   UNL     1       4.734   2.514   0.050  0.00  0.00    +0.030 A 
ATOM     19  C   UNL     1       4.685   3.852   0.390  0.00  0.00    +0.023 A 
ATOM     20  C   UNL     1       4.971   4.247   1.685  0.00  0.00    +0.059 A 
ATOM     21  C   UNL     1       5.305   3.301   2.639  0.00  0.00    +0.061 A 
ATOM     22  C   UNL     1       5.347   1.961   2.298  0.00  0.00    +0.050 A 
ATOM     23 CL   UNL     1       5.664   3.795   4.264  0.00  0.00    -0.082 Cl
ATOM     24 CL   UNL     1       4.911   5.928   2.113  0.00  0.00    -0.082 Cl
ENDBRANCH  14  17
ENDBRANCH   9  14
BRANCH   1  25
ATOM     25  C   UNL     1       0.444  -0.444   1.379  0.00  0.00    +0.106 C 
BRANCH  25  27
ATOM     26  C   UNL     1      -0.139   1.566   0.014  0.00  0.00    +0.005 C 
ATOM     27  C   UNL     1      -0.221   0.040   0.088  0.00  0.00    +0.015 C 
ENDBRANCH  25  27
ENDBRANCH   1  25
BRANCH   4  28
ATOM     28  C   UNL     1       0.418  -4.733   3.004  0.00  0.00    +0.028 C 
BRANCH  28  29
ATOM     29  C   UNL     1       0.713  -6.201   2.832  0.00  0.00    -0.048 A 
ATOM     30  C   UNL     1      -0.283  -7.136   3.042  0.00  0.00    +0.003 A 
ATOM     31  C   UNL     1      -0.012  -8.482   2.884  0.00  0.00    +0.000 A 
ATOM     32  C   UNL     1       1.255  -8.893   2.517  0.00  0.00    +0.000 A 
ATOM     33  C   UNL     1       2.252  -7.959   2.306  0.00  0.00    +0.000 A 
ATOM     34  C   UNL     1       1.980  -6.612   2.459  0.00  0.00    +0.003 A 
ENDBRANCH  28  29
ENDBRANCH   4  28
TORSDOF 6
