REMARK  Name = ZINC08780713
REMARK  8 active torsions:
REMARK  status: ('A' for Active; 'I' for Inactive)
REMARK    1  A    between atoms: C_1  and  C_2
REMARK    2  A    between atoms: C_2  and  C_23
REMARK    3  A    between atoms: N_3  and  N_4
REMARK    4  A    between atoms: C_5  and  C_7
REMARK    5  A    between atoms: C_8  and  N_20
REMARK    6  A    between atoms: N_10  and  C_12
REMARK    7  A    between atoms: C_12  and  C_13
REMARK    8  A    between atoms: C_24  and  C_25
REMARK                            x       y       z     vdW  Elec       q    Type
REMARK                         _______ _______ _______ _____ _____    ______ ____
ROOT
ATOM      1  C   UNL     1       1.090   2.119  -0.067  0.00  0.00    +0.179 A 
ATOM      2  C   UNL     1       1.770   0.882  -0.173  0.00  0.00    +0.176 A 
ATOM      3  C   UNL     1       0.800  -0.060  -0.232  0.00  0.00    +0.142 A 
ATOM      4  N   UNL     1      -0.386   0.581  -0.165  0.00  0.00    -0.264 N 
ATOM      5  N   UNL     1      -0.201   1.849  -0.069  0.00  0.00    -0.164 NA
ENDROOT
BRANCH   1   7
ATOM      6  N   UNL     1       0.936   4.542   0.234  0.00  0.00    -0.201 N 
ATOM      7  C   UNL     1       1.708   3.456   0.028  0.00  0.00    +0.286 C 
ATOM      8  O   UNL     1       2.913   3.578  -0.081  0.00  0.00    -0.267 OA
ATOM      9  H   UNL     1      -0.029   4.455   0.247  0.00  0.00    +0.178 HD
BRANCH   6  12
ATOM     10  C   UNL     1       1.410   8.198   0.809  0.00  0.00    +0.067 C 
ATOM     11  C   UNL     1       0.792   6.826   0.730  0.00  0.00    +0.056 C 
ATOM     12  N   UNL     1       1.530   5.796   0.428  0.00  0.00    -0.185 NA
BRANCH  11  13
ATOM     13  C   UNL     1      -0.593   6.656   0.983  0.00  0.00    +0.025 C 
ATOM     14  C   UNL     1      -1.378   7.734   1.190  0.00  0.00    +0.010 C 
BRANCH  14  15
ATOM     15  C   UNL     1      -2.787   7.554   1.573  0.00  0.00    -0.025 A 
ATOM     16  C   UNL     1      -3.289   6.274   1.829  0.00  0.00    +0.008 A 
ATOM     17  C   UNL     1      -4.609   6.115   2.192  0.00  0.00    +0.001 A 
ATOM     18  C   UNL     1      -5.441   7.217   2.293  0.00  0.00    +0.000 A 
ATOM     19  C   UNL     1      -4.953   8.487   2.037  0.00  0.00    +0.001 A 
ATOM     20  C   UNL     1      -3.634   8.663   1.678  0.00  0.00    +0.008 A 
ENDBRANCH  14  15
ENDBRANCH  11  13
ENDBRANCH   6  12
ENDBRANCH   1   7
BRANCH   2  21
ATOM     21  N   UNL     1       3.233   0.665  -0.211  0.00  0.00    +0.060 N 
ATOM     22  O   UNL     1       3.679  -0.465  -0.305  0.00  0.00    -0.126 OA
ATOM     23  O   UNL     1       3.992   1.616  -0.148  0.00  0.00    -0.126 OA
ENDBRANCH   2  21
BRANCH   4  24
ATOM     24  C   UNL     1      -1.696  -0.073  -0.197  0.00  0.00    +0.178 C 
BRANCH  24  25
ATOM     25  C   UNL     1      -2.482   0.313   1.030  0.00  0.00    -0.025 A 
ATOM     26  C   UNL     1      -3.375   1.366   0.976  0.00  0.00    +0.005 A 
ATOM     27  C   UNL     1      -4.096   1.721   2.100  0.00  0.00    +0.001 A 
ATOM     28  C   UNL     1      -3.923   1.023   3.281  0.00  0.00    +0.015 A 
ATOM     29  C   UNL     1      -3.029  -0.031   3.336  0.00  0.00    +0.018 A 
ATOM     30  C   UNL     1      -2.312  -0.389   2.208  0.00  0.00    +0.020 A 
ATOM     31 BR   UNL     1      -2.792  -0.987   4.950  0.00  0.00    -0.050 Br
ENDBRANCH  24  25
ENDBRANCH   4  24
TORSDOF 7
