REMARK  Name = ZINC12447660
REMARK  6 active torsions:
REMARK  status: ('A' for Active; 'I' for Inactive)
REMARK    1  A    between atoms: C_1  and  C_2
REMARK    2  A    between atoms: C_5  and  C_8
REMARK    3  A    between atoms: N_10  and  C_27
REMARK    4  A    between atoms: C_16  and  C_18
REMARK    5  A    between atoms: N_21  and  C_26
REMARK    6  A    between atoms: N_24  and  C_25
REMARK                            x       y       z     vdW  Elec       q    Type
REMARK                         _______ _______ _______ _____ _____    ______ ____
ROOT
ATOM      1  C   UNL     1      -0.003   1.078   2.484  0.00  0.00    +0.089 C 
ATOM      2  N   UNL     1       0.706   1.826   3.257  0.00  0.00    -0.179 NA
ATOM      3  N   UNL     1       0.862   3.205   3.037  0.00  0.00    -0.188 N 
ATOM      4  C   UNL     1       0.017   3.797   2.120  0.00  0.00    +0.222 A 
ATOM      5  N   UNL     1      -0.201   5.072   1.895  0.00  0.00    -0.195 NA
ATOM      6  C   UNL     1      -1.093   5.206   0.930  0.00  0.00    +0.170 A 
ATOM      7  C   UNL     1      -1.468   3.920   0.509  0.00  0.00    +0.153 A 
ATOM      8  N   UNL     1      -0.751   3.041   1.272  0.00  0.00    -0.296 N 
ATOM      9  C   UNL     1      -0.729   1.579   1.267  0.00  0.00    +0.138 C 
ATOM     10  C   UNL     1      -0.013   1.086   0.008  0.00  0.00    +0.038 C 
ATOM     11  C   UNL     1      -2.418   3.755  -0.519  0.00  0.00    +0.282 A 
ATOM     12  O   UNL     1      -2.762   2.651  -0.903  0.00  0.00    -0.265 OA
ATOM     13  N   UNL     1      -2.929   4.889  -1.059  0.00  0.00    -0.262 N 
ATOM     14  C   UNL     1      -2.563   6.112  -0.649  0.00  0.00    +0.333 A 
ATOM     15  O   UNL     1      -3.070   7.078  -1.186  0.00  0.00    -0.246 OA
ATOM     16  N   UNL     1      -1.657   6.325   0.334  0.00  0.00    -0.280 N 
ATOM     17  C   UNL     1      -1.286   7.680   0.749  0.00  0.00    +0.155 C 
ATOM     18  C   UNL     1      -3.920   4.773  -2.132  0.00  0.00    +0.157 C 
ENDROOT
BRANCH   1  23
ATOM     19  C   UNL     1      -0.410  -4.514   3.764  0.00  0.00    +0.044 C 
ATOM     20  C   UNL     1      -0.303  -3.049   3.429  0.00  0.00    -0.050 A 
ATOM     21  C   UNL     1       0.448  -2.211   4.234  0.00  0.00    +0.004 A 
ATOM     22  C   UNL     1       0.550  -0.869   3.933  0.00  0.00    +0.010 A 
ATOM     23  C   UNL     1      -0.107  -0.356   2.812  0.00  0.00    -0.000 A 
ATOM     24  C   UNL     1      -0.868  -1.207   2.007  0.00  0.00    +0.010 A 
ATOM     25  C   UNL     1      -0.957  -2.548   2.317  0.00  0.00    +0.004 A 
ENDBRANCH   1  23
BRANCH   3  26
ATOM     26  C   UNL     1       1.879   3.981   3.751  0.00  0.00    +0.124 C 
ATOM     27  C   UNL     1       3.272   3.412   3.432  0.00  0.00    +0.049 C 
ATOM     28  C   UNL     1       4.289   4.037   4.429  0.00  0.00    +0.168 C 
ATOM     29  S   UNL     1       3.304   3.997   5.986  0.00  0.00    -0.029 S 
ATOM     30  O   UNL     1       3.584   2.788   6.678  0.00  0.00    -0.174 OA
ATOM     31  O   UNL     1       3.454   5.239   6.659  0.00  0.00    -0.174 OA
ATOM     32  C   UNL     1       1.612   3.901   5.273  0.00  0.00    +0.190 C 
ENDBRANCH   3  26
TORSDOF 2
