REMARK  Name = ZINC02801584
REMARK  8 active torsions:
REMARK  status: ('A' for Active; 'I' for Inactive)
REMARK    1  A    between atoms: C_1  and  C_2
REMARK    2  A    between atoms: C_9  and  N_13
REMARK    3  A    between atoms: C_10  and  C_11
REMARK    4  A    between atoms: N_13  and  C_14
REMARK    5  A    between atoms: C_14  and  N_16
REMARK    6  A    between atoms: C_17  and  C_19
REMARK    7  A    between atoms: C_22  and  C_24
REMARK    8  A    between atoms: C_24  and  N_25
REMARK                            x       y       z     vdW  Elec       q    Type
REMARK                         _______ _______ _______ _____ _____    ______ ____
ROOT
ATOM      1  C   UNL     1       2.553   5.899   6.514  0.00  0.00    +0.142 C 
ATOM      2  S   UNL     1       3.997   5.519   7.352  0.00  0.00    -0.018 S 
ENDROOT
BRANCH   1   3
ATOM      3  N   UNL     1       2.417   5.559   5.217  0.00  0.00    -0.261 N 
ATOM      4  C   UNL     1       3.417   4.919   4.580  0.00  0.00    +0.285 C 
ATOM      5  O   UNL     1       4.443   4.649   5.175  0.00  0.00    -0.266 OA
ATOM      6  H   UNL     1       1.599   5.775   4.742  0.00  0.00    +0.157 HD
BRANCH   4   7
ATOM      7  C   UNL     1       3.269   4.549   3.170  0.00  0.00    +0.190 A 
ATOM      8  C   UNL     1       4.200   3.901   2.408  0.00  0.00    +0.055 A 
ATOM      9  C   UNL     1       3.640   3.748   1.130  0.00  0.00    +0.047 A 
ATOM     10  C   UNL     1       2.410   4.309   1.165  0.00  0.00    +0.127 A 
ATOM     11  O   UNL     1       2.190   4.788   2.396  0.00  0.00    -0.453 OA
BRANCH  10  12
ATOM     12  C   UNL     1       1.445   4.379   0.010  0.00  0.00    +0.217 C 
BRANCH  12  13
ATOM     13  N   UNL     1       0.594   3.186   0.013  0.00  0.00    -0.263 N 
ATOM     14  C   UNL     1      -0.757   3.174   0.025  0.00  0.00    +0.128 A 
ATOM     15  C   UNL     1      -1.157   1.881   0.017  0.00  0.00    +0.078 A 
ATOM     16  C   UNL     1      -0.013   1.076   0.008  0.00  0.00    +0.154 A 
ATOM     17  N   UNL     1       1.037   1.857   0.002  0.00  0.00    -0.178 NA
ATOM     18 CL   UNL     1      -2.800   1.320   0.022  0.00  0.00    -0.080 Cl
ENDBRANCH  12  13
ENDBRANCH  10  12
ENDBRANCH   4   7
ENDBRANCH   1   3
BRANCH   1  19
ATOM     19  N   UNL     1       1.553   6.539   7.151  0.00  0.00    -0.290 N 
ATOM     20  H   UNL     1       0.735   6.755   6.676  0.00  0.00    +0.154 HD
BRANCH  19  28
ATOM     21  C   UNL     1       2.700   8.253  14.697  0.00  0.00    +0.008 C 
ATOM     22  C   UNL     1       2.017   7.831  13.395  0.00  0.00    -0.009 C 
ATOM     23  C   UNL     1       1.172   8.990  12.856  0.00  0.00    +0.008 C 
ATOM     24  C   UNL     1       0.296   8.502  11.701  0.00  0.00    +0.037 C 
ATOM     25  C   UNL     1       1.179   7.795  10.681  0.00  0.00    -0.018 A 
ATOM     26  C   UNL     1       2.412   7.353  11.015  0.00  0.00    -0.004 A 
ATOM     27  S   UNL     1       3.045   6.616   9.535  0.00  0.00    -0.077 S 
ATOM     28  C   UNL     1       1.693   6.890   8.486  0.00  0.00    +0.089 A 
ATOM     29  C   UNL     1       0.787   7.550   9.303  0.00  0.00    +0.084 A 
ATOM     30  C   UNL     1       3.081   7.468  12.350  0.00  0.00    +0.046 C 
BRANCH  29  31
ATOM     31  C   UNL     1      -0.489   7.971   8.809  0.00  0.00    +0.102 C 
ATOM     32  N   UNL     1      -1.502   8.305   8.417  0.00  0.00    -0.191 NA
ENDBRANCH  29  31
ENDBRANCH  19  28
ENDBRANCH   1  19
TORSDOF 7
