REMARK  Name = ZINC04978532
REMARK  8 active torsions:
REMARK  status: ('A' for Active; 'I' for Inactive)
REMARK    1  A    between atoms: C_1  and  C_2
REMARK    2  A    between atoms: C_4  and  C_30
REMARK    3  A    between atoms: C_6  and  N_8
REMARK    4  A    between atoms: C_18  and  S_19
REMARK    5  A    between atoms: S_19  and  C_20
REMARK    6  A    between atoms: C_20  and  C_22
REMARK    7  A    between atoms: C_20  and  C_23
REMARK    8  A    between atoms: N_28  and  C_29
REMARK                            x       y       z     vdW  Elec       q    Type
REMARK                         _______ _______ _______ _____ _____    ______ ____
ROOT
ATOM      1  N   UNL     1      -3.388   1.017  -2.218  0.00  0.00    -0.255 N 
ATOM      2  C   UNL     1      -4.658   0.777  -1.816  0.00  0.00    +0.267 A 
ATOM      3  O   UNL     1      -5.606   1.298  -2.376  0.00  0.00    -0.267 OA
ATOM      4  C   UNL     1      -4.851  -0.134  -0.681  0.00  0.00    +0.065 A 
ATOM      5  C   UNL     1      -6.120  -0.445  -0.193  0.00  0.00    +0.015 A 
ATOM      6  C   UNL     1      -6.244  -1.300   0.867  0.00  0.00    +0.001 A 
ATOM      7  C   UNL     1      -5.121  -1.861   1.461  0.00  0.00    +0.002 A 
ATOM      8  C   UNL     1      -3.865  -1.574   1.003  0.00  0.00    +0.028 A 
ATOM      9  C   UNL     1      -3.706  -0.703  -0.079  0.00  0.00    +0.079 A 
ATOM     10  N   UNL     1      -2.482  -0.396  -0.568  0.00  0.00    -0.223 NA
ATOM     11  C   UNL     1      -2.334   0.424  -1.579  0.00  0.00    +0.177 A 
ENDROOT
BRANCH   1  17
ATOM     12  C   UNL     1      -2.532   5.558  -3.900  0.00  0.00    +0.044 C 
ATOM     13  C   UNL     1      -2.733   4.084  -4.140  0.00  0.00    -0.048 A 
ATOM     14  C   UNL     1      -2.683   3.581  -5.427  0.00  0.00    +0.006 A 
ATOM     15  C   UNL     1      -2.867   2.229  -5.652  0.00  0.00    -0.048 A 
ATOM     16  C   UNL     1      -3.100   1.377  -4.590  0.00  0.00    +0.029 A 
ATOM     17  C   UNL     1      -3.151   1.879  -3.296  0.00  0.00    +0.052 A 
ATOM     18  C   UNL     1      -2.972   3.238  -3.075  0.00  0.00    +0.029 A 
ATOM     19  C   UNL     1      -2.811   1.685  -7.056  0.00  0.00    +0.044 C 
ENDBRANCH   1  17
BRANCH  11  20
ATOM     20  S   UNL     1      -0.703   0.774  -2.146  0.00  0.00    -0.075 S 
BRANCH  20  21
ATOM     21  C   UNL     1       0.255  -0.235  -0.989  0.00  0.00    +0.137 C 
ATOM     22  C   UNL     1       0.079   0.310   0.430  0.00  0.00    +0.029 C 
BRANCH  21  23
ATOM     23  C   UNL     1       1.713  -0.187  -1.368  0.00  0.00    +0.233 C 
ATOM     24  O   UNL     1       2.147   0.760  -1.988  0.00  0.00    -0.274 OA
ATOM     25  N   UNL     1       2.534  -1.196  -1.016  0.00  0.00    -0.239 N 
ATOM     26  C   UNL     1       3.838  -1.152  -1.355  0.00  0.00    +0.306 C 
ATOM     27  O   UNL     1       4.273  -0.203  -1.978  0.00  0.00    -0.252 OA
ATOM     28  N   UNL     1       4.660  -2.162  -1.004  0.00  0.00    -0.302 N 
ATOM     29  C   UNL     1       6.077  -2.114  -1.373  0.00  0.00    +0.129 C 
ATOM     30  H   UNL     1       2.187  -1.953  -0.520  0.00  0.00    +0.159 HD
ATOM     31  H   UNL     1       4.312  -2.919  -0.508  0.00  0.00    +0.150 HD
ENDBRANCH  21  23
ENDBRANCH  20  21
ENDBRANCH  11  20
TORSDOF 4
