REMARK  Name = ZINC06508953
REMARK  6 active torsions:
REMARK  status: ('A' for Active; 'I' for Inactive)
REMARK    1  A    between atoms: C_1  and  C_2
REMARK    2  A    between atoms: C_2  and  C_16
REMARK    3  A    between atoms: N_3  and  N_4
REMARK    4  A    between atoms: C_5  and  C_7
REMARK    5  A    between atoms: C_16  and  C_18
REMARK    6  A    between atoms: C_16  and  N_55
REMARK                            x       y       z     vdW  Elec       q    Type
REMARK                         _______ _______ _______ _____ _____    ______ ____
ROOT
ATOM      1  C   UNL     1       2.416   1.136  -0.946  0.00  0.00    +0.061 C 
ATOM      2  C   UNL     1       1.279   1.823  -0.235  0.00  0.00    +0.025 C 
ATOM      3  N   UNL     1       1.410   3.033   0.162  0.00  0.00    -0.191 NA
ENDROOT
BRANCH   3   4
ATOM      4  N   UNL     1       2.610   3.719  -0.064  0.00  0.00    -0.203 N 
ATOM      5  C   UNL     1       2.748   4.992   0.354  0.00  0.00    +0.270 C 
ATOM      6  O   UNL     1       1.829   5.548   0.928  0.00  0.00    -0.268 OA
ATOM      7  H   UNL     1       3.343   3.276  -0.522  0.00  0.00    +0.178 HD
BRANCH   5   8
ATOM      8  C   UNL     1       4.004   5.710   0.117  0.00  0.00    +0.076 A 
ATOM      9  C   UNL     1       4.347   7.004   0.461  0.00  0.00    +0.024 A 
ATOM     10  C   UNL     1       5.612   7.458   0.123  0.00  0.00    -0.036 A 
ATOM     11  C   UNL     1       6.426   6.577  -0.531  0.00  0.00    -0.006 A 
ATOM     12  S   UNL     1       5.494   5.137  -0.683  0.00  0.00    -0.088 S 
ATOM     13  C   UNL     1       7.827   6.822  -1.002  0.00  0.00    +0.043 C 
ATOM     14  C   UNL     1       8.090   8.334  -0.973  0.00  0.00    +0.005 C 
ATOM     15  C   UNL     1       7.626   8.889   0.376  0.00  0.00    +0.005 C 
ATOM     16  C   UNL     1       6.099   8.866   0.452  0.00  0.00    +0.036 C 
ENDBRANCH   5   8
ENDBRANCH   3   4
BRANCH   2  17
ATOM     17  C   UNL     1      -0.013   1.086   0.008  0.00  0.00    +0.009 C 
BRANCH  17  23
ATOM     18  C   UNL     1       0.182   1.466   2.392  0.00  0.00    -0.049 C 
ATOM     19  C   UNL     1      -0.512   2.098   3.602  0.00  0.00    +0.141 C 
ATOM     20  O   UNL     1      -1.800   1.499   3.772  0.00  0.00    -0.383 OA
ATOM     21  C   UNL     1      -2.655   1.639   2.635  0.00  0.00    +0.141 C 
ATOM     22  C   UNL     1      -1.982   1.003   1.415  0.00  0.00    -0.049 C 
ATOM     23  N   UNL     1      -0.673   1.656   1.202  0.00  0.00    +0.391 N 
ATOM     24  H   UNL     1      -0.821   2.661   1.054  0.00  0.00    -0.080 HD
ENDBRANCH  17  23
BRANCH  17  25
ATOM     25  C   UNL     1      -0.920   1.255  -1.183  0.00  0.00    -0.055 A 
ATOM     26  C   UNL     1      -1.553   2.465  -1.403  0.00  0.00    +0.002 A 
ATOM     27  C   UNL     1      -2.381   2.622  -2.499  0.00  0.00    +0.000 A 
ATOM     28  C   UNL     1      -2.585   1.567  -3.369  0.00  0.00    +0.000 A 
ATOM     29  C   UNL     1      -1.956   0.356  -3.145  0.00  0.00    +0.000 A 
ATOM     30  C   UNL     1      -1.124   0.200  -2.053  0.00  0.00    +0.002 A 
ENDBRANCH  17  25
ENDBRANCH   2  17
TORSDOF 5
