REMARK  Name = ZINC54622296
REMARK  9 active torsions:
REMARK  status: ('A' for Active; 'I' for Inactive)
REMARK    1  A    between atoms: C_1  and  C_2
REMARK    2  A    between atoms: C_2  and  O_3
REMARK    3  A    between atoms: O_3  and  C_4
REMARK    4  A    between atoms: C_4  and  C_6
REMARK    5  A    between atoms: C_7  and  C_33
REMARK    6  A    between atoms: C_11  and  S_24
REMARK    7  A    between atoms: C_14  and  C_16
REMARK    8  A    between atoms: S_24  and  C_25
REMARK    9  A    between atoms: C_25  and  C_26
REMARK                            x       y       z     vdW  Elec       q    Type
REMARK                         _______ _______ _______ _____ _____    ______ ____
ROOT
ATOM      1  C   UNL     1       1.248  -2.358  -2.582  0.00  0.00    +0.082 C 
ATOM      2  C   UNL     1       1.598  -3.654  -2.557  0.00  0.00    +0.020 C 
ATOM      3  N   UNL     1       2.408  -4.211  -3.514  0.00  0.00    -0.287 N 
ATOM      4  C   UNL     1       3.076  -3.345  -4.370  0.00  0.00    +0.219 A 
ATOM      5  N   UNL     1       4.054  -3.575  -5.203  0.00  0.00    -0.187 NA
ATOM      6  C   UNL     1       4.392  -2.435  -5.823  0.00  0.00    +0.211 A 
ATOM      7  N   UNL     1       3.621  -1.464  -5.384  0.00  0.00    -0.141 NA
ATOM      8  N   UNL     1       2.759  -2.029  -4.445  0.00  0.00    -0.220 N 
ATOM      9  C   UNL     1       1.694  -1.408  -3.661  0.00  0.00    +0.182 C 
ATOM     10  C   UNL     1       1.083  -4.526  -1.441  0.00  0.00    +0.061 C 
ATOM     11  H   UNL     1       2.511  -5.173  -3.590  0.00  0.00    +0.155 HD
ENDROOT
BRANCH   9  12
ATOM     12  C   UNL     1       0.527  -1.084  -4.558  0.00  0.00    +0.018 A 
ATOM     13  C   UNL     1      -0.120  -2.096  -5.244  0.00  0.00    +0.048 A 
ATOM     14  C   UNL     1      -1.191  -1.798  -6.068  0.00  0.00    +0.020 A 
ATOM     15  C   UNL     1      -1.615  -0.489  -6.205  0.00  0.00    +0.003 A 
ATOM     16  C   UNL     1      -0.969   0.522  -5.520  0.00  0.00    +0.020 A 
ATOM     17  C   UNL     1       0.099   0.225  -4.691  0.00  0.00    +0.048 A 
ATOM     18 CL   UNL     1       0.905   1.494  -3.824  0.00  0.00    -0.083 Cl
ATOM     19 CL   UNL     1       0.412  -3.739  -5.073  0.00  0.00    -0.083 Cl
ENDBRANCH   9  12
BRANCH   1  20
ATOM     20  C   UNL     1       0.419  -1.865  -1.550  0.00  0.00    +0.339 C 
ATOM     21  O   UNL     1       0.889  -1.161  -0.676  0.00  0.00    -0.245 OA
BRANCH  20  22
ATOM     22  O   UNL     1      -0.894  -2.175  -1.534  0.00  0.00    -0.462 OA
BRANCH  22  24
ATOM     23  C   UNL     1      -3.126  -2.098  -0.610  0.00  0.00    +0.048 C 
ATOM     24  C   UNL     1      -1.673  -1.642  -0.461  0.00  0.00    +0.229 C 
ENDBRANCH  22  24
ENDBRANCH  20  22
ENDBRANCH   1  20
BRANCH   6  25
ATOM     25  S   UNL     1       5.663  -2.266  -7.031  0.00  0.00    -0.080 S 
BRANCH  25  26
ATOM     26  C   UNL     1       6.341  -3.941  -7.193  0.00  0.00    +0.114 C 
BRANCH  26  27
ATOM     27  C   UNL     1       7.453  -3.937  -8.210  0.00  0.00    -0.019 A 
ATOM     28  C   UNL     1       7.171  -4.165  -9.544  0.00  0.00    +0.006 A 
ATOM     29  C   UNL     1       8.191  -4.162 -10.477  0.00  0.00    +0.000 A 
ATOM     30  C   UNL     1       9.494  -3.929 -10.077  0.00  0.00    +0.001 A 
ATOM     31  C   UNL     1       9.777  -3.700  -8.743  0.00  0.00    +0.020 A 
ATOM     32  C   UNL     1       8.755  -3.698  -7.810  0.00  0.00    +0.045 A 
ATOM     33 CL   UNL     1       9.109  -3.405  -6.136  0.00  0.00    -0.083 Cl
ENDBRANCH  26  27
ENDBRANCH  25  26
ENDBRANCH   6  25
TORSDOF 7
