REMARK  Name = ZINC08457126
REMARK  14 active torsions:
REMARK  status: ('A' for Active; 'I' for Inactive)
REMARK    1  A    between atoms: C_1  and  C_2
REMARK    2  A    between atoms: C_2  and  N_3
REMARK    3  A    between atoms: N_3  and  C_4
REMARK    4  A    between atoms: N_3  and  C_6
REMARK    5  A    between atoms: C_4  and  C_5
REMARK    6  A    between atoms: C_9  and  C_12
REMARK    7  A    between atoms: C_13  and  C_14
REMARK    8  A    between atoms: C_13  and  N_28
REMARK    9  A    between atoms: N_16  and  N_17
REMARK   10  A    between atoms: C_18  and  C_19
REMARK   11  A    between atoms: C_22  and  C_25
REMARK   12  A    between atoms: C_25  and  C_26
REMARK   13  A    between atoms: C_25  and  C_27
REMARK   14  A    between atoms: C_29  and  C_31
REMARK                            x       y       z     vdW  Elec       q    Type
REMARK                         _______ _______ _______ _____ _____    ______ ____
ROOT
ATOM      1  C   UNL     1      -4.617   7.740   7.860  0.00  0.00    +0.036 C 
ATOM      2  C   UNL     1      -4.311   6.477   7.477  0.00  0.00    +0.098 C 
ENDROOT
BRANCH   1   6
ATOM      3  C   UNL     1      -3.258  11.040   5.568  0.00  0.00    +0.030 A 
ATOM      4  C   UNL     1      -4.452  11.132   6.276  0.00  0.00    +0.024 A 
ATOM      5  C   UNL     1      -4.898  10.064   7.021  0.00  0.00    +0.010 A 
ATOM      6  C   UNL     1      -4.147   8.883   7.066  0.00  0.00    -0.023 A 
ATOM      7  C   UNL     1      -2.943   8.796   6.356  0.00  0.00    +0.010 A 
ATOM      8  C   UNL     1      -2.508   9.868   5.610  0.00  0.00    +0.024 A 
BRANCH   3   9
ATOM      9  N   UNL     1      -2.811  12.123   4.815  0.00  0.00    -0.330 N 
BRANCH   9  11
ATOM     10  C   UNL     1      -1.835  11.495   2.663  0.00  0.00    +0.024 C 
ATOM     11  C   UNL     1      -1.554  12.028   4.069  0.00  0.00    +0.102 C 
ENDBRANCH   9  11
BRANCH   9  12
ATOM     12  C   UNL     1      -3.599  13.358   4.770  0.00  0.00    +0.102 C 
ATOM     13  C   UNL     1      -3.154  14.288   5.901  0.00  0.00    +0.024 C 
ENDBRANCH   9  12
ENDBRANCH   3   9
ENDBRANCH   1   6
BRANCH   2  14
ATOM     14  C   UNL     1      -3.628   6.243   6.200  0.00  0.00    +0.277 C 
ATOM     15  O   UNL     1      -2.476   5.849   6.189  0.00  0.00    -0.267 OA
ATOM     16  N   UNL     1      -4.275   6.463   5.038  0.00  0.00    -0.202 N 
ATOM     17  H   UNL     1      -5.214   6.707   5.045  0.00  0.00    +0.178 HD
BRANCH  16  18
ATOM     18  N   UNL     1      -3.592   6.341   3.821  0.00  0.00    -0.187 NA
ATOM     19  C   UNL     1      -4.216   6.554   2.703  0.00  0.00    +0.138 C 
BRANCH  19  20
ATOM     20  C   UNL     1      -3.497   6.425   1.422  0.00  0.00    -0.005 A 
ATOM     21  C   UNL     1      -4.165   6.653   0.216  0.00  0.00    +0.010 A 
ATOM     22  C   UNL     1      -3.486   6.532  -0.978  0.00  0.00    +0.004 A 
ATOM     23  C   UNL     1      -2.147   6.186  -0.984  0.00  0.00    -0.045 A 
ATOM     24  C   UNL     1      -1.480   5.953   0.206  0.00  0.00    +0.004 A 
ATOM     25  C   UNL     1      -2.145   6.076   1.408  0.00  0.00    +0.010 A 
BRANCH  23  26
ATOM     26  C   UNL     1      -1.412   6.055  -2.293  0.00  0.00    +0.013 C 
ATOM     27  C   UNL     1      -0.872   4.631  -2.436  0.00  0.00    +0.012 C 
ATOM     28  C   UNL     1      -0.247   7.047  -2.325  0.00  0.00    +0.012 C 
ENDBRANCH  23  26
ENDBRANCH  19  20
ENDBRANCH  16  18
ENDBRANCH   2  14
BRANCH   2  29
ATOM     29  N   UNL     1      -4.647   5.396   8.299  0.00  0.00    -0.277 N 
ATOM     30  C   UNL     1      -4.415   4.135   7.883  0.00  0.00    +0.250 C 
ATOM     31  O   UNL     1      -3.833   3.939   6.834  0.00  0.00    -0.270 OA
ATOM     32  H   UNL     1      -5.046   5.554   9.169  0.00  0.00    +0.155 HD
BRANCH  30  33
ATOM     33  C   UNL     1      -4.867   2.992   8.703  0.00  0.00    +0.055 A 
ATOM     34  C   UNL     1      -5.530   3.214   9.911  0.00  0.00    +0.014 A 
ATOM     35  C   UNL     1      -5.954   2.143  10.668  0.00  0.00    +0.001 A 
ATOM     36  C   UNL     1      -5.715   0.849  10.239  0.00  0.00    +0.001 A 
ATOM     37  C   UNL     1      -5.054   0.620   9.046  0.00  0.00    +0.021 A 
ATOM     38  C   UNL     1      -4.628   1.684   8.275  0.00  0.00    +0.053 A 
ATOM     39 CL   UNL     1      -3.798   1.396   6.777  0.00  0.00    -0.083 Cl
ENDBRANCH  30  33
ENDBRANCH   2  29
TORSDOF 10
