REMARK  Name = ZINC40815347
REMARK  11 active torsions:
REMARK  status: ('A' for Active; 'I' for Inactive)
REMARK    1  A    between atoms: C_1  and  C_2
REMARK    2  A    between atoms: C_2  and  O_3
REMARK    3  A    between atoms: O_3  and  C_4
REMARK    4  A    between atoms: C_4  and  C_6
REMARK    5  A    between atoms: C_11  and  N_12
REMARK    6  A    between atoms: C_13  and  C_15
REMARK    7  A    between atoms: C_16  and  C_36
REMARK    8  A    between atoms: N_24  and  N_25
REMARK    9  A    between atoms: N_25  and  S_26
REMARK   10  A    between atoms: S_26  and  C_29
REMARK   11  A    between atoms: C_32  and  C_35
REMARK                            x       y       z     vdW  Elec       q    Type
REMARK                         _______ _______ _______ _____ _____    ______ ____
ROOT
ATOM      1  C   UNL     1       0.223  -6.730   0.897  0.00  0.00    +0.193 A 
ATOM      2  C   UNL     1       0.078  -8.087   0.987  0.00  0.00    +0.009 A 
ATOM      3  C   UNL     1      -0.512  -8.499  -0.213  0.00  0.00    +0.042 A 
ATOM      4  C   UNL     1      -0.700  -7.378  -0.987  0.00  0.00    +0.115 A 
ATOM      5  O   UNL     1      -0.259  -6.325  -0.300  0.00  0.00    -0.454 OA
ATOM      6  C   UNL     1      -1.311  -7.424  -2.364  0.00  0.00    +0.075 C 
ATOM      7  C   UNL     1      -1.190  -8.843  -2.927  0.00  0.00    +0.014 C 
ATOM      8  C   UNL     1      -1.763  -9.867  -1.941  0.00  0.00    +0.058 C 
ATOM      9  C   UNL     1      -0.908  -9.846  -0.682  0.00  0.00    +0.071 C 
ATOM     10  N   UNL     1      -0.551 -10.930  -0.066  0.00  0.00    -0.170 NA
ATOM     11  C   UNL     1       0.474  -8.964   2.147  0.00  0.00    +0.048 C 
ENDROOT
BRANCH   1  13
ATOM     12  N   UNL     1       0.882  -4.531   1.718  0.00  0.00    -0.278 N 
ATOM     13  C   UNL     1       0.799  -5.860   1.927  0.00  0.00    +0.284 C 
ATOM     14  O   UNL     1       1.203  -6.338   2.971  0.00  0.00    -0.266 OA
ATOM     15  H   UNL     1       0.505  -4.143   0.913  0.00  0.00    +0.155 HD
BRANCH  12  21
ATOM     16  C   UNL     1       2.376  -2.697   2.239  0.00  0.00    +0.080 A 
ATOM     17  C   UNL     1       2.993  -1.882   3.192  0.00  0.00    +0.017 A 
ATOM     18  C   UNL     1       2.749  -2.087   4.532  0.00  0.00    +0.001 A 
ATOM     19  C   UNL     1       1.895  -3.099   4.942  0.00  0.00    +0.002 A 
ATOM     20  C   UNL     1       1.279  -3.912   4.013  0.00  0.00    +0.024 A 
ATOM     21  C   UNL     1       1.507  -3.716   2.657  0.00  0.00    +0.048 A 
BRANCH  16  22
ATOM     22  C   UNL     1       2.632  -2.483   0.803  0.00  0.00    +0.341 C 
ATOM     23  O   UNL     1       2.173  -3.253  -0.017  0.00  0.00    -0.245 OA
BRANCH  22  24
ATOM     24  O   UNL     1       3.374  -1.433   0.401  0.00  0.00    -0.461 OA
BRANCH  24  26
ATOM     25  C   UNL     1       4.442  -0.049  -1.268  0.00  0.00    +0.048 C 
ATOM     26  C   UNL     1       3.582  -1.287  -1.006  0.00  0.00    +0.229 C 
ENDBRANCH  24  26
ENDBRANCH  22  24
ENDBRANCH  16  22
ENDBRANCH  12  21
ENDBRANCH   1  13
BRANCH  10  27
ATOM     27  N   UNL     1      -0.955 -12.179  -0.555  0.00  0.00    -0.136 N 
ATOM     28  H   UNL     1      -1.502 -12.233  -1.355  0.00  0.00    +0.197 HD
BRANCH  27  29
ATOM     29  S   UNL     1      -0.500 -13.563   0.232  0.00  0.00    +0.086 S 
ATOM     30  O   UNL     1      -1.175 -14.636  -0.411  0.00  0.00    -0.149 OA
ATOM     31  O   UNL     1       0.915 -13.516   0.351  0.00  0.00    -0.149 OA
BRANCH  29  32
ATOM     32  C   UNL     1      -1.147 -13.469   1.868  0.00  0.00    +0.110 A 
ATOM     33  C   UNL     1      -0.399 -12.888   2.875  0.00  0.00    +0.029 A 
ATOM     34  C   UNL     1      -0.906 -12.815   4.158  0.00  0.00    +0.005 A 
ATOM     35  C   UNL     1      -2.162 -13.321   4.435  0.00  0.00    -0.050 A 
ATOM     36  C   UNL     1      -2.911 -13.901   3.428  0.00  0.00    +0.005 A 
ATOM     37  C   UNL     1      -2.405 -13.971   2.144  0.00  0.00    +0.029 A 
ATOM     38  C   UNL     1      -2.715 -13.241   5.835  0.00  0.00    +0.044 C 
ENDBRANCH  29  32
ENDBRANCH  27  29
ENDBRANCH  10  27
TORSDOF 8
