REMARK  Name = ZINC36660350
REMARK  11 active torsions:
REMARK  status: ('A' for Active; 'I' for Inactive)
REMARK    1  A    between atoms: C_1  and  C_2
REMARK    2  A    between atoms: C_2  and  N_3
REMARK    3  A    between atoms: N_3  and  C_4
REMARK    4  A    between atoms: N_3  and  C_6
REMARK    5  A    between atoms: C_4  and  C_5
REMARK    6  A    between atoms: C_6  and  C_7
REMARK    7  A    between atoms: C_7  and  N_8
REMARK    8  A    between atoms: C_12  and  C_18
REMARK    9  A    between atoms: C_19  and  C_21
REMARK   10  A    between atoms: N_26  and  S_27
REMARK   11  A    between atoms: S_27  and  C_30
REMARK                            x       y       z     vdW  Elec       q    Type
REMARK                         _______ _______ _______ _____ _____    ______ ____
ROOT
ATOM      1  N   UNL     1       1.521  -5.803  -2.223  0.00  0.00    -0.251 N 
ATOM      2  C   UNL     1       0.431  -6.487  -2.736  0.00  0.00    +0.168 A 
ATOM      3  N   UNL     1       0.176  -7.774  -2.701  0.00  0.00    -0.224 NA
ATOM      4  C   UNL     1      -0.937  -8.309  -3.248  0.00  0.00    +0.083 A 
ATOM      5  C   UNL     1      -1.329  -9.667  -3.280  0.00  0.00    -0.024 A 
ATOM      6  C   UNL     1      -2.501 -10.044  -3.881  0.00  0.00    +0.005 A 
ATOM      7  C   UNL     1      -3.341  -9.115  -4.478  0.00  0.00    +0.001 A 
ATOM      8  C   UNL     1      -2.989  -7.778  -4.466  0.00  0.00    +0.017 A 
ATOM      9  C   UNL     1      -1.817  -7.391  -3.866  0.00  0.00    +0.041 A 
ATOM     10  S   UNL     1      -0.988  -5.841  -3.608  0.00  0.00    -0.052 S 
ATOM     11  C   UNL     1      -0.448 -10.712  -2.644  0.00  0.00    +0.046 C 
ATOM     12  C   UNL     1       2.557  -6.485  -1.694  0.00  0.00    +0.240 C 
ATOM     13  O   UNL     1       3.463  -5.888  -1.154  0.00  0.00    -0.273 OA
ENDROOT
BRANCH  12  14
ATOM     14  C   UNL     1       2.588  -7.990  -1.775  0.00  0.00    +0.166 C 
ATOM     15  C   UNL     1       1.874  -8.596  -0.548  0.00  0.00    +0.031 C 
ATOM     16  C   UNL     1       2.751  -9.831  -0.211  0.00  0.00    +0.019 C 
ATOM     17  C   UNL     1       4.168  -9.309  -0.555  0.00  0.00    +0.110 C 
ATOM     18  N   UNL     1       3.980  -8.463  -1.752  0.00  0.00    -0.165 NA
BRANCH  18  19
ATOM     19  S   UNL     1       5.139  -8.106  -2.879  0.00  0.00    +0.062 S 
ATOM     20  O   UNL     1       6.033  -9.210  -2.905  0.00  0.00    -0.153 OA
ATOM     21  O   UNL     1       4.453  -7.653  -4.038  0.00  0.00    -0.153 OA
BRANCH  19  22
ATOM     22  C   UNL     1       6.056  -6.731  -2.266  0.00  0.00    +0.106 A 
ATOM     23  C   UNL     1       5.713  -5.448  -2.649  0.00  0.00    +0.031 A 
ATOM     24  C   UNL     1       6.431  -4.369  -2.168  0.00  0.00    +0.040 A 
ATOM     25  C   UNL     1       7.493  -4.574  -1.304  0.00  0.00    +0.124 A 
ATOM     26  C   UNL     1       7.835  -5.860  -0.922  0.00  0.00    +0.040 A 
ATOM     27  C   UNL     1       7.113  -6.937  -1.399  0.00  0.00    +0.031 A 
ATOM     28  F   UNL     1       8.196  -3.519  -0.835  0.00  0.00    -0.205 F 
ENDBRANCH  19  22
ENDBRANCH  18  19
ENDBRANCH  12  14
BRANCH   1  29
ATOM     29  C   UNL     1       1.548  -4.339  -2.255  0.00  0.00    +0.097 C 
BRANCH  29  30
ATOM     30  C   UNL     1       0.923  -3.789  -0.971  0.00  0.00    -0.059 C 
BRANCH  30  31
ATOM     31  N   UNL     1       1.059  -2.327  -0.947  0.00  0.00    +0.380 N 
ATOM     32  H   UNL     1       2.027  -2.077  -1.087  0.00  0.00    -0.082 HD
BRANCH  31  34
ATOM     33  C   UNL     1       0.481  -0.231  -2.074  0.00  0.00    -0.017 C 
ATOM     34  C   UNL     1       0.243  -1.741  -2.019  0.00  0.00    -0.082 C 
ENDBRANCH  31  34
BRANCH  31  35
ATOM     35  C   UNL     1       0.604  -1.814   0.352  0.00  0.00    -0.082 C 
ATOM     36  C   UNL     1       1.540  -2.313   1.454  0.00  0.00    -0.017 C 
ENDBRANCH  31  35
ENDBRANCH  30  31
ENDBRANCH  29  30
ENDBRANCH   1  29
TORSDOF 8
