REMARK  Name = ZINC40149365
REMARK  6 active torsions:
REMARK  status: ('A' for Active; 'I' for Inactive)
REMARK    1  A    between atoms: N_9  and  C_12
REMARK    2  A    between atoms: C_12  and  C_13
REMARK    3  A    between atoms: N_16  and  C_19
REMARK    4  A    between atoms: C_22  and  N_33
REMARK    5  A    between atoms: C_24  and  S_25
REMARK    6  A    between atoms: S_25  and  N_28
REMARK                            x       y       z     vdW  Elec       q    Type
REMARK                         _______ _______ _______ _____ _____    ______ ____
ROOT
ATOM      1  C   UNL     1       4.336  -3.994  -1.433  0.00  0.00    +0.010 C 
ATOM      2  C   UNL     1       2.951  -4.249  -2.032  0.00  0.00    +0.024 C 
ATOM      3  C   UNL     1       3.098  -4.609  -3.513  0.00  0.00    +0.105 C 
ATOM      4  N   UNL     1       4.026  -5.742  -3.635  0.00  0.00    -0.328 N 
ATOM      5  C   UNL     1       5.354  -5.637  -3.015  0.00  0.00    +0.105 C 
ATOM      6  C   UNL     1       5.181  -5.266  -1.539  0.00  0.00    +0.024 C 
ENDROOT
BRANCH   4   7
ATOM      7  C   UNL     1       3.652  -6.897  -4.326  0.00  0.00    +0.056 A 
ATOM      8  C   UNL     1       3.124  -7.981  -3.635  0.00  0.00    +0.027 A 
ATOM      9  C   UNL     1       2.755  -9.121  -4.322  0.00  0.00    +0.034 A 
ATOM     10  C   UNL     1       2.911  -9.184  -5.694  0.00  0.00    +0.128 A 
ATOM     11  C   UNL     1       3.436  -8.107  -6.384  0.00  0.00    +0.063 A 
ATOM     12  C   UNL     1       3.801  -6.962  -5.705  0.00  0.00    +0.129 A 
BRANCH  12  13
ATOM     13  S   UNL     1       4.464  -5.587  -6.586  0.00  0.00    +0.063 S 
ATOM     14  O   UNL     1       3.397  -4.665  -6.762  0.00  0.00    -0.153 OA
ATOM     15  O   UNL     1       5.676  -5.234  -5.935  0.00  0.00    -0.153 OA
BRANCH  13  16
ATOM     16  N   UNL     1       4.877  -6.127  -8.096  0.00  0.00    -0.177 NA
ATOM     17  C   UNL     1       6.145  -6.779  -8.456  0.00  0.00    +0.109 C 
ATOM     18  C   UNL     1       6.092  -7.081  -9.968  0.00  0.00    +0.018 C 
ATOM     19  C   UNL     1       5.033  -6.073 -10.487  0.00  0.00    +0.018 C 
ATOM     20  C   UNL     1       4.033  -6.038  -9.301  0.00  0.00    +0.109 C 
ENDBRANCH  13  16
ENDBRANCH  12  13
BRANCH  10  21
ATOM     21  N   UNL     1       2.514 -10.408  -6.426  0.00  0.00    +0.056 N 
ATOM     22  O   UNL     1       2.055 -11.351  -5.824  0.00  0.00    -0.126 OA
ATOM     23  O   UNL     1       2.649 -10.465  -7.627  0.00  0.00    -0.126 OA
ENDBRANCH  10  21
ENDBRANCH   4   7
BRANCH   1  24
ATOM     24  C   UNL     1       4.190  -3.600   0.039  0.00  0.00    +0.120 C 
BRANCH  24  33
ATOM     25  C   UNL     1       0.671   1.345   0.463  0.00  0.00    +0.001 A 
ATOM     26  C   UNL     1       1.879   2.016   0.403  0.00  0.00    +0.001 A 
ATOM     27  C   UNL     1       3.068   1.313   0.295  0.00  0.00    +0.014 A 
ATOM     28  C   UNL     1       3.046  -0.072   0.246  0.00  0.00    +0.049 A 
ATOM     29  C   UNL     1       1.816  -0.756   0.308  0.00  0.00    +0.049 A 
ATOM     30  C   UNL     1       0.634  -0.040   0.415  0.00  0.00    +0.014 A 
ATOM     31  C   UNL     1       2.148  -2.194   0.232  0.00  0.00    +0.254 C 
ATOM     32  O   UNL     1       1.349  -3.108   0.254  0.00  0.00    -0.270 OA
ATOM     33  N   UNL     1       3.484  -2.321   0.134  0.00  0.00    -0.234 N 
ATOM     34  C   UNL     1       4.085  -1.117   0.136  0.00  0.00    +0.254 C 
ATOM     35  O   UNL     1       5.282  -0.923   0.059  0.00  0.00    -0.270 OA
ENDBRANCH  24  33
ENDBRANCH   1  24
TORSDOF 6
