REMARK  Name = ZINC04028247
REMARK  10 active torsions:
REMARK  status: ('A' for Active; 'I' for Inactive)
REMARK    1  A    between atoms: C_1  and  N_55
REMARK    2  A    between atoms: C_8  and  O_25
REMARK    3  A    between atoms: C_10  and  C_12
REMARK    4  A    between atoms: C_12  and  C_13
REMARK    5  A    between atoms: C_13  and  C_16
REMARK    6  A    between atoms: N_14  and  O_15
REMARK    7  A    between atoms: C_16  and  C_17
REMARK    8  A    between atoms: C_21  and  O_23
REMARK    9  A    between atoms: O_23  and  C_24
REMARK   10  A    between atoms: O_25  and  C_26
REMARK                            x       y       z     vdW  Elec       q    Type
REMARK                         _______ _______ _______ _____ _____    ______ ____
ROOT
ATOM      1  C   UNL     1      -2.734   6.884   0.417  0.00  0.00    -0.095 C 
ATOM      2  C   UNL     1      -0.485   6.436  -0.367  0.00  0.00    -0.074 C 
ATOM      3  C   UNL     1       0.774   5.652   0.003  0.00  0.00    +0.017 C 
ATOM      4  C   UNL     1       0.484   4.173  -0.015  0.00  0.00    -0.040 A 
ATOM      5  C   UNL     1       1.554   3.292  -0.056  0.00  0.00    +0.053 A 
ATOM      6  C   UNL     1       1.338   1.924  -0.064  0.00  0.00    +0.170 A 
ATOM      7  C   UNL     1       0.037   1.432  -0.031  0.00  0.00    +0.208 A 
ATOM      8  C   UNL     1      -1.031   2.316   0.002  0.00  0.00    +0.167 A 
ATOM      9  C   UNL     1      -0.807   3.689   0.013  0.00  0.00    -0.012 A 
ATOM     10  C   UNL     1      -2.000   4.609   0.050  0.00  0.00    -0.028 C 
ATOM     11  O   UNL     1       0.086   0.067  -0.045  0.00  0.00    -0.449 OA
ATOM     12  C   UNL     1       1.436  -0.273   0.325  0.00  0.00    +0.467 C 
ATOM     13  O   UNL     1       2.204   0.869  -0.099  0.00  0.00    -0.452 OA
ATOM     14  N   UNL     1      -1.587   5.952   0.489  0.00  0.00    +0.383 N 
ATOM     15  H   UNL     1      -1.258   5.901   1.461  0.00  0.00    -0.081 HD
ENDROOT
BRANCH   8  16
ATOM     16  O   UNL     1      -2.304   1.838   0.028  0.00  0.00    -0.491 OA
ATOM     17  C   UNL     1      -2.901   1.515  -1.230  0.00  0.00    +0.277 C 
ENDBRANCH   8  16
BRANCH  10  18
ATOM     18  C   UNL     1      -3.031   4.059   1.038  0.00  0.00    +0.044 C 
BRANCH  18  19
ATOM     19  C   UNL     1      -2.375   3.834   2.376  0.00  0.00    +0.061 C 
ATOM     20  N   UNL     1      -1.163   4.199   2.563  0.00  0.00    -0.096 NA
BRANCH  20  21
ATOM     21  O   UNL     1      -0.512   3.891   3.782  0.00  0.00    -0.409 OA
ATOM     22  H   UNL     1       0.401   4.207   3.831  0.00  0.00    +0.328 HD
ENDBRANCH  20  21
BRANCH  19  23
ATOM     23  C   UNL     1      -3.147   3.181   3.493  0.00  0.00    +0.089 C 
BRANCH  23  24
ATOM     24  C   UNL     1      -3.757   4.244   4.370  0.00  0.00    -0.038 A 
ATOM     25  C   UNL     1      -3.054   4.729   5.458  0.00  0.00    +0.004 A 
ATOM     26  C   UNL     1      -3.609   5.708   6.261  0.00  0.00    +0.004 A 
ATOM     27  C   UNL     1      -4.872   6.195   5.986  0.00  0.00    +0.045 A 
ATOM     28  C   UNL     1      -5.582   5.706   4.899  0.00  0.00    +0.120 A 
ATOM     29  C   UNL     1      -5.020   4.728   4.091  0.00  0.00    +0.049 A 
BRANCH  28  30
ATOM     30  O   UNL     1      -6.824   6.184   4.627  0.00  0.00    -0.495 OA
ATOM     31  C   UNL     1      -7.339   7.190   5.501  0.00  0.00    +0.277 C 
ENDBRANCH  28  30
ENDBRANCH  23  24
ENDBRANCH  19  23
ENDBRANCH  18  19
ENDBRANCH  10  18
TORSDOF 7
