REMARK  Name = ZINC39929645
REMARK  6 active torsions:
REMARK  status: ('A' for Active; 'I' for Inactive)
REMARK    1  A    between atoms: C_1  and  C_2
REMARK    2  A    between atoms: C_2  and  O_3
REMARK    3  A    between atoms: O_3  and  C_4
REMARK    4  A    between atoms: C_4  and  C_6
REMARK    5  A    between atoms: C_16  and  O_20
REMARK    6  A    between atoms: O_20  and  C_21
REMARK                            x       y       z     vdW  Elec       q    Type
REMARK                         _______ _______ _______ _____ _____    ______ ____
ROOT
ATOM      1  C   UNL     1       1.425  -2.325  -2.473  0.00  0.00    +0.055 C 
ATOM      2  C   UNL     1       1.512  -3.657  -2.616  0.00  0.00    +0.032 C 
ATOM      3  C   UNL     1       2.144  -4.332  -3.805  0.00  0.00    +0.098 C 
ATOM      4  C   UNL     1       2.646  -3.347  -4.848  0.00  0.00    +0.021 C 
ATOM      5  C   UNL     1       3.148  -2.058  -4.203  0.00  0.00    +0.006 C 
ATOM      6  C   UNL     1       1.990  -1.374  -3.492  0.00  0.00    +0.044 C 
ATOM      7  S   UNL     1       0.873  -5.390  -4.569  0.00  0.00    -0.094 S 
ATOM      8  C   UNL     1       0.079  -6.125  -3.177  0.00  0.00    +0.126 A 
ATOM      9  C   UNL     1       0.221  -5.583  -1.903  0.00  0.00    +0.126 A 
ATOM     10  C   UNL     1      -0.449  -6.214  -0.848  0.00  0.00    +0.240 A 
ATOM     11  N   UNL     1      -1.177  -7.295  -1.100  0.00  0.00    -0.200 NA
ATOM     12  C   UNL     1      -1.278  -7.779  -2.322  0.00  0.00    +0.226 A 
ATOM     13  N   UNL     1      -0.669  -7.214  -3.345  0.00  0.00    -0.227 NA
ATOM     14  N   UNL     1       1.005  -4.463  -1.629  0.00  0.00    -0.310 N 
ATOM     15  H   UNL     1       1.199  -4.245  -0.704  0.00  0.00    +0.152 HD
ENDROOT
BRANCH   1  16
ATOM     16  C   UNL     1       0.776  -1.801  -1.335  0.00  0.00    +0.337 C 
ATOM     17  O   UNL     1       0.311  -2.554  -0.499  0.00  0.00    -0.245 OA
BRANCH  16  18
ATOM     18  O   UNL     1       0.671  -0.465  -1.174  0.00  0.00    -0.462 OA
BRANCH  18  20
ATOM     19  C   UNL     1      -0.019   1.526   0.010  0.00  0.00    +0.048 C 
ATOM     20  C   UNL     1       0.002  -0.004   0.002  0.00  0.00    +0.229 C 
ENDBRANCH  18  20
ENDBRANCH  16  18
ENDBRANCH   1  16
BRANCH  10  21
ATOM     21  O   UNL     1      -0.354  -5.727   0.414  0.00  0.00    -0.478 OA
ATOM     22  C   UNL     1      -1.068  -6.428   1.435  0.00  0.00    +0.279 C 
ENDBRANCH  10  21
TORSDOF 4
