REMARK  Name = ZINC20898682
REMARK  5 active torsions:
REMARK  status: ('A' for Active; 'I' for Inactive)
REMARK    1  A    between atoms: C_1  and  C_2
REMARK    2  A    between atoms: C_2  and  C_3
REMARK    3  A    between atoms: C_6  and  N_9
REMARK    4  A    between atoms: C_12  and  C_14
REMARK    5  A    between atoms: C_15  and  C_22
REMARK                            x       y       z     vdW  Elec       q    Type
REMARK                         _______ _______ _______ _____ _____    ______ ____
ROOT
ATOM      1  N   UNL     1      -0.725   5.168   2.722  0.00  0.00    -0.218 N 
ATOM      2  C   UNL     1      -0.268   5.164   1.423  0.00  0.00    +0.133 A 
ATOM      3  C   UNL     1       0.377   3.992   1.234  0.00  0.00    +0.033 A 
ATOM      4  C   UNL     1       0.313   3.266   2.443  0.00  0.00    +0.067 A 
ATOM      5  N   UNL     1      -0.342   3.968   3.322  0.00  0.00    -0.170 NA
ATOM      6  C   UNL     1       0.906   1.900   2.677  0.00  0.00    +0.068 C 
ATOM      7  C   UNL     1       1.067   3.453   0.021  0.00  0.00    +0.112 C 
ATOM      8  S   UNL     1       0.285   3.945  -1.518  0.00  0.00    -0.138 S 
ATOM      9  C   UNL     1       0.535   5.720  -1.656  0.00  0.00    +0.166 C 
ATOM     10  C   UNL     1      -0.238   6.491  -0.660  0.00  0.00    +0.228 C 
ATOM     11  O   UNL     1      -0.705   7.532  -1.071  0.00  0.00    -0.275 OA
ATOM     12  N   UNL     1      -0.497   6.230   0.587  0.00  0.00    -0.269 N 
ATOM     13  H   UNL     1      -1.014   7.124   0.964  0.00  0.00    +0.156 HD
ENDROOT
BRANCH   7  14
ATOM     14  C   UNL     1       1.077   1.948   0.099  0.00  0.00    -0.026 A 
ATOM     15  C   UNL     1      -0.116   1.250   0.120  0.00  0.00    +0.009 A 
ATOM     16  C   UNL     1      -0.112  -0.130   0.191  0.00  0.00    +0.050 A 
ATOM     17  C   UNL     1       1.089  -0.818   0.241  0.00  0.00    +0.166 A 
ATOM     18  C   UNL     1       2.292  -0.116   0.219  0.00  0.00    +0.167 A 
ATOM     19  C   UNL     1       2.280   1.268   0.149  0.00  0.00    +0.054 A 
ATOM     20  O   UNL     1       3.321  -1.010   0.277  0.00  0.00    -0.453 OA
ATOM     21  C   UNL     1       2.746  -2.282  -0.077  0.00  0.00    +0.466 C 
ATOM     22  O   UNL     1       1.365  -2.153   0.312  0.00  0.00    -0.453 OA
ENDBRANCH   7  14
BRANCH   1  26
ATOM     23  C   UNL     1      -2.880   8.234   4.548  0.00  0.00    -0.047 A 
ATOM     24  C   UNL     1      -3.197   7.840   3.261  0.00  0.00    +0.006 A 
ATOM     25  C   UNL     1      -2.485   6.824   2.653  0.00  0.00    +0.028 A 
ATOM     26  C   UNL     1      -1.450   6.199   3.336  0.00  0.00    +0.067 A 
ATOM     27  C   UNL     1      -1.137   6.594   4.630  0.00  0.00    +0.028 A 
ATOM     28  C   UNL     1      -1.849   7.614   5.230  0.00  0.00    +0.006 A 
BRANCH  23  30
ATOM     29  C   UNL     1      -4.854   8.751   5.957  0.00  0.00    +0.009 C 
ATOM     30  C   UNL     1      -3.658   9.343   5.207  0.00  0.00    +0.032 C 
ENDBRANCH  23  30
ENDBRANCH   1  26
TORSDOF 3
