REMARK  Name = ZINC02108866
REMARK  6 active torsions:
REMARK  status: ('A' for Active; 'I' for Inactive)
REMARK    1  A    between atoms: C_1  and  C_2
REMARK    2  A    between atoms: C_2  and  C_4
REMARK    3  A    between atoms: C_2  and  N_13
REMARK    4  A    between atoms: N_6  and  C_7
REMARK    5  A    between atoms: C_7  and  C_8
REMARK    6  A    between atoms: C_16  and  C_32
REMARK                            x       y       z     vdW  Elec       q    Type
REMARK                         _______ _______ _______ _____ _____    ______ ____
ROOT
ATOM      1  N   UNL     1       4.512  -4.471  -1.833  0.00  0.00    -0.212 N 
ATOM      2  C   UNL     1       4.810  -3.339  -1.159  0.00  0.00    +0.253 C 
ATOM      3  O   UNL     1       5.678  -2.535  -1.424  0.00  0.00    -0.272 OA
ATOM      4  C   UNL     1       3.836  -3.285  -0.007  0.00  0.00    +0.153 C 
ATOM      5  C   UNL     1       3.019  -2.016  -0.028  0.00  0.00    +0.053 A 
ATOM      6  C   UNL     1       1.667  -2.011  -0.027  0.00  0.00    -0.015 A 
ATOM      7  C   UNL     1       1.258  -0.618  -0.013  0.00  0.00    +0.003 A 
ATOM      8  C   UNL     1       0.002  -0.004   0.002  0.00  0.00    +0.010 A 
ATOM      9  C   UNL     1      -0.017   1.369   0.010  0.00  0.00    +0.001 A 
ATOM     10  C   UNL     1       1.147   2.121   0.003  0.00  0.00    +0.002 A 
ATOM     11  C   UNL     1       2.403   1.539  -0.011  0.00  0.00    +0.026 A 
ATOM     12  C   UNL     1       2.452   0.146  -0.019  0.00  0.00    +0.047 A 
ATOM     13  N   UNL     1       3.496  -0.733  -0.030  0.00  0.00    -0.356 N 
ATOM     14  H   UNL     1       4.434  -0.486  -0.039  0.00  0.00    +0.166 HD
ATOM     15  C   UNL     1       0.770  -3.222  -0.056  0.00  0.00    +0.056 C 
ATOM     16  C   UNL     1       1.568  -4.486   0.298  0.00  0.00    +0.115 C 
ATOM     17  N   UNL     1       2.884  -4.373  -0.334  0.00  0.00    -0.266 N 
ATOM     18  C   UNL     1       3.439  -5.089  -1.312  0.00  0.00    +0.313 C 
ATOM     19  O   UNL     1       3.025  -6.168  -1.686  0.00  0.00    -0.252 OA
ATOM     20  C   UNL     1       4.531  -3.495   1.340  0.00  0.00    +0.048 C 
ENDROOT
BRANCH   1  22
ATOM     21  C   UNL     1       5.827  -6.353  -2.676  0.00  0.00    +0.038 C 
ATOM     22  C   UNL     1       5.265  -4.965  -2.989  0.00  0.00    +0.168 C 
BRANCH  22  23
ATOM     23  C   UNL     1       4.351  -5.050  -4.184  0.00  0.00    +0.234 C 
ATOM     24  O   UNL     1       3.186  -4.731  -4.081  0.00  0.00    -0.274 OA
ATOM     25  N   UNL     1       4.829  -5.482  -5.368  0.00  0.00    -0.307 N 
ATOM     26  H   UNL     1       5.761  -5.737  -5.451  0.00  0.00    +0.149 HD
BRANCH  25  27
ATOM     27  C   UNL     1       3.941  -5.566  -6.530  0.00  0.00    +0.178 C 
BRANCH  27  28
ATOM     28  C   UNL     1       4.716  -6.073  -7.719  0.00  0.00    +0.122 A 
ATOM     29  C   UNL     1       4.867  -7.364  -8.067  0.00  0.00    +0.046 A 
ATOM     30  C   UNL     1       5.659  -7.382  -9.238  0.00  0.00    +0.041 A 
ATOM     31  C   UNL     1       5.950  -6.102  -9.532  0.00  0.00    +0.195 A 
ATOM     32  O   UNL     1       5.376  -5.314  -8.608  0.00  0.00    -0.466 OA
ENDBRANCH  27  28
ENDBRANCH  25  27
ENDBRANCH  22  23
ENDBRANCH   1  22
TORSDOF 4
