REMARK  Name = ZINC10037807
REMARK  7 active torsions:
REMARK  status: ('A' for Active; 'I' for Inactive)
REMARK    1  A    between atoms: C_1  and  C_2
REMARK    2  A    between atoms: C_2  and  C_3
REMARK    3  A    between atoms: C_8  and  C_21
REMARK    4  A    between atoms: C_12  and  C_15
REMARK    5  A    between atoms: C_13  and  O_14
REMARK    6  A    between atoms: C_15  and  N_58
REMARK    7  A    between atoms: N_25  and  C_26
REMARK                            x       y       z     vdW  Elec       q    Type
REMARK                         _______ _______ _______ _____ _____    ______ ____
ROOT
ATOM      1  C   UNL     1       0.987  -0.246  -1.026  0.00  0.00    -0.005 A 
ATOM      2  C   UNL     1       0.778   1.096  -0.879  0.00  0.00    +0.022 A 
ATOM      3  C   UNL     1       1.865   1.947  -0.671  0.00  0.00    +0.065 A 
ATOM      4  C   UNL     1       1.677   3.400  -0.509  0.00  0.00    +0.203 A 
ATOM      5  O   UNL     1       0.571   3.910  -0.551  0.00  0.00    -0.286 OA
ATOM      6  C   UNL     1       2.893   4.206  -0.295  0.00  0.00    +0.102 A 
ATOM      7  C   UNL     1       4.098   3.574  -0.260  0.00  0.00    +0.211 A 
ATOM      8  O   UNL     1       4.220   2.253  -0.411  0.00  0.00    -0.462 OA
ATOM      9  C   UNL     1       3.171   1.431  -0.612  0.00  0.00    +0.143 A 
ATOM     10  C   UNL     1       3.365   0.065  -0.763  0.00  0.00    +0.021 A 
ATOM     11  C   UNL     1       2.277  -0.767  -0.969  0.00  0.00    +0.125 A 
ENDROOT
BRANCH   6  12
ATOM     12  C   UNL     1       2.805   5.671  -0.123  0.00  0.00    +0.175 A 
ATOM     13  N   UNL     1       2.122   6.508  -0.873  0.00  0.00    -0.129 NA
ATOM     14  N   UNL     1       2.269   7.707  -0.433  0.00  0.00    -0.137 NA
ATOM     15  C   UNL     1       3.055   7.710   0.609  0.00  0.00    +0.230 A 
ATOM     16  N   UNL     1       3.426   6.418   0.845  0.00  0.00    -0.282 N 
BRANCH  16  17
ATOM     17  C   UNL     1       4.266   5.951   1.866  0.00  0.00    +0.049 A 
ATOM     18  C   UNL     1       3.818   4.973   2.744  0.00  0.00    +0.026 A 
ATOM     19  C   UNL     1       4.650   4.512   3.744  0.00  0.00    +0.002 A 
ATOM     20  C   UNL     1       5.925   5.030   3.880  0.00  0.00    +0.000 A 
ATOM     21  C   UNL     1       6.372   6.008   3.010  0.00  0.00    +0.002 A 
ATOM     22  C   UNL     1       5.547   6.470   2.004  0.00  0.00    +0.026 A 
ENDBRANCH  16  17
ENDBRANCH   6  12
BRANCH   1  24
ATOM     23  C   UNL     1      -0.636  -1.752   0.090  0.00  0.00    +0.009 C 
ATOM     24  C   UNL     1      -0.185  -1.166  -1.250  0.00  0.00    +0.035 C 
ENDBRANCH   1  24
BRANCH  11  25
ATOM     25  O   UNL     1       2.470  -2.103  -1.115  0.00  0.00    -0.506 OA
ATOM     26  H   UNL     1       2.608  -2.382  -2.031  0.00  0.00    +0.292 HD
ENDBRANCH  11  25
BRANCH  10  27
ATOM     27  C   UNL     1       4.756  -0.512  -0.703  0.00  0.00    -0.036 C 
BRANCH  27  33
ATOM     28  C   UNL     1       4.607  -1.456  -2.927  0.00  0.00    -0.078 C 
ATOM     29  C   UNL     1       5.145  -1.342  -4.355  0.00  0.00    -0.019 C 
ATOM     30  C   UNL     1       6.639  -1.676  -4.361  0.00  0.00    -0.004 C 
ATOM     31  C   UNL     1       7.370  -0.729  -3.405  0.00  0.00    -0.019 C 
ATOM     32  C   UNL     1       6.768  -0.861  -2.004  0.00  0.00    -0.078 C 
ATOM     33  N   UNL     1       5.334  -0.503  -2.063  0.00  0.00    +0.383 N 
ATOM     34  H   UNL     1       5.243   0.441  -2.457  0.00  0.00    -0.081 HD
ENDBRANCH  27  33
ENDBRANCH  10  27
TORSDOF 6
