REMARK  Name = ZINC07827427
REMARK  7 active torsions:
REMARK  status: ('A' for Active; 'I' for Inactive)
REMARK    1  A    between atoms: C_1  and  C_2
REMARK    2  A    between atoms: C_2  and  C_3
REMARK    3  A    between atoms: N_11  and  C_15
REMARK    4  A    between atoms: C_15  and  C_16
REMARK    5  A    between atoms: N_18  and  C_19
REMARK    6  A    between atoms: C_19  and  C_21
REMARK    7  A    between atoms: C_19  and  C_22
REMARK                            x       y       z     vdW  Elec       q    Type
REMARK                         _______ _______ _______ _____ _____    ______ ____
ROOT
ATOM      1  C   UNL     1       3.745   1.447   0.644  0.00  0.00    +0.213 C 
ENDROOT
BRANCH   1  10
ATOM      2  C   UNL     1       7.380  -3.394   0.850  0.00  0.00    -0.011 C 
ATOM      3  C   UNL     1       5.868  -3.416   1.083  0.00  0.00    +0.006 C 
ATOM      4  C   UNL     1       5.529  -2.556   2.304  0.00  0.00    +0.035 C 
ATOM      5  C   UNL     1       6.004  -1.127   2.068  0.00  0.00    +0.113 C 
ATOM      6  C   UNL     1       7.507  -1.092   1.813  0.00  0.00    +0.035 C 
ATOM      7  C   UNL     1       7.839  -1.957   0.594  0.00  0.00    +0.006 C 
ATOM      8  C   UNL     1       5.259  -0.509   0.907  0.00  0.00    +0.247 C 
ATOM      9  O   UNL     1       5.252  -0.887  -0.245  0.00  0.00    -0.273 OA
ATOM     10  N   UNL     1       4.602   0.550   1.423  0.00  0.00    -0.215 N 
ATOM     11  C   UNL     1       4.836   0.684   2.734  0.00  0.00    +0.310 C 
ATOM     12  O   UNL     1       4.360   1.568   3.419  0.00  0.00    -0.252 OA
ATOM     13  N   UNL     1       5.655  -0.273   3.210  0.00  0.00    -0.285 N 
ATOM     14  H   UNL     1       5.958  -0.375   4.126  0.00  0.00    +0.151 HD
BRANCH   2  16
ATOM     15  C   UNL     1       9.241  -4.341  -0.522  0.00  0.00    +0.004 C 
ATOM     16  C   UNL     1       7.721  -4.262  -0.363  0.00  0.00    -0.000 C 
ENDBRANCH   2  16
ENDBRANCH   1  10
BRANCH   1  17
ATOM     17  C   UNL     1       2.331   0.926   0.654  0.00  0.00    +0.231 C 
ATOM     18  O   UNL     1       2.066  -0.095   1.254  0.00  0.00    -0.274 OA
ATOM     19  N   UNL     1       1.362   1.593  -0.002  0.00  0.00    -0.307 N 
ATOM     20  H   UNL     1       1.574   2.409  -0.482  0.00  0.00    +0.149 HD
BRANCH  19  21
ATOM     21  C   UNL     1      -0.013   1.086   0.008  0.00  0.00    +0.100 C 
ATOM     22  C   UNL     1      -0.729   1.579   1.267  0.00  0.00    +0.033 C 
BRANCH  21  23
ATOM     23  C   UNL     1      -0.742   1.585  -1.213  0.00  0.00    -0.027 A 
ATOM     24  C   UNL     1      -0.549   2.881  -1.654  0.00  0.00    +0.006 A 
ATOM     25  C   UNL     1      -1.222   3.332  -2.771  0.00  0.00    +0.004 A 
ATOM     26  C   UNL     1      -2.092   2.493  -3.457  0.00  0.00    -0.044 A 
ATOM     27  C   UNL     1      -2.280   1.202  -3.020  0.00  0.00    -0.044 A 
ATOM     28  C   UNL     1      -1.599   0.749  -1.897  0.00  0.00    +0.009 A 
ATOM     29  C   UNL     1      -3.199   0.235  -3.720  0.00  0.00    +0.035 C 
ATOM     30  C   UNL     1      -4.170   0.982  -4.632  0.00  0.00    +0.005 C 
ATOM     31  C   UNL     1      -3.362   1.928  -5.527  0.00  0.00    +0.005 C 
ATOM     32  C   UNL     1      -2.804   3.054  -4.660  0.00  0.00    +0.035 C 
ENDBRANCH  21  23
ENDBRANCH  19  21
ENDBRANCH   1  17
TORSDOF 5
