REMARK  Name = ZINC09042437
REMARK  16 active torsions:
REMARK  status: ('A' for Active; 'I' for Inactive)
REMARK    1  A    between atoms: C_1  and  C_2
REMARK    2  A    between atoms: C_2  and  N_66
REMARK    3  A    between atoms: C_3  and  C_4
REMARK    4  A    between atoms: C_3  and  N_66
REMARK    5  A    between atoms: C_5  and  C_6
REMARK    6  A    between atoms: C_5  and  N_66
REMARK    7  A    between atoms: C_6  and  N_7
REMARK    8  A    between atoms: C_8  and  C_29
REMARK    9  A    between atoms: C_11  and  C_12
REMARK   10  A    between atoms: C_11  and  O_24
REMARK   11  A    between atoms: C_13  and  C_23
REMARK   12  A    between atoms: C_14  and  C_19
REMARK   13  A    between atoms: C_17  and  C_18
REMARK   14  A    between atoms: C_19  and  O_21
REMARK   15  A    between atoms: O_21  and  C_22
REMARK   16  A    between atoms: C_32  and  N_35
REMARK                            x       y       z     vdW  Elec       q    Type
REMARK                         _______ _______ _______ _____ _____    ______ ____
ROOT
ATOM      1  N   UNL     1       4.168   4.246   4.533  0.00  0.00    -0.285 N 
ATOM      2  C   UNL     1       3.868   2.814   4.624  0.00  0.00    +0.144 C 
ATOM      3  C   UNL     1       2.362   2.689   4.637  0.00  0.00    +0.071 C 
ATOM      4  C   UNL     1       1.627   1.519   4.712  0.00  0.00    +0.135 C 
ATOM      5  C   UNL     1       1.860   3.994   4.551  0.00  0.00    +0.249 C 
ATOM      6  O   UNL     1       0.683   4.306   4.530  0.00  0.00    -0.282 OA
ATOM      7  C   UNL     1       3.013   4.932   4.494  0.00  0.00    +0.288 C 
ATOM      8  O   UNL     1       2.924   6.140   4.418  0.00  0.00    -0.266 OA
ENDROOT
BRANCH   4   9
ATOM      9  C   UNL     1       0.158   1.573   4.714  0.00  0.00    +0.041 A 
ATOM     10  C   UNL     1      -0.700   1.150   3.672  0.00  0.00    -0.008 A 
ATOM     11  C   UNL     1      -1.978   1.385   4.089  0.00  0.00    +0.128 A 
ATOM     12  N   UNL     1      -1.929   1.930   5.354  0.00  0.00    -0.352 N 
ATOM     13  H   UNL     1      -2.700   2.189   5.884  0.00  0.00    +0.166 HD
ATOM     14  C   UNL     1      -0.648   2.050   5.736  0.00  0.00    +0.024 A 
ATOM     15  C   UNL     1      -0.168   2.606   7.051  0.00  0.00    +0.064 C 
ATOM     16  C   UNL     1      -0.283   0.559   2.351  0.00  0.00    +0.047 C 
BRANCH  11  17
ATOM     17  C   UNL     1      -3.196   1.102   3.322  0.00  0.00    +0.356 C 
ATOM     18  O   UNL     1      -3.115   0.616   2.210  0.00  0.00    -0.243 OA
BRANCH  17  19
ATOM     19  O   UNL     1      -4.405   1.382   3.849  0.00  0.00    -0.463 OA
ATOM     20  C   UNL     1      -5.567   1.077   3.034  0.00  0.00    +0.280 C 
ENDBRANCH  17  19
ENDBRANCH  11  17
ENDBRANCH   4   9
BRANCH   2  21
ATOM     21  C   UNL     1       4.436   2.090   3.431  0.00  0.00    -0.022 A 
ATOM     22  C   UNL     1       4.385   2.674   2.179  0.00  0.00    +0.008 A 
ATOM     23  C   UNL     1       4.910   2.011   1.085  0.00  0.00    +0.033 A 
ATOM     24  C   UNL     1       5.478   0.761   1.242  0.00  0.00    +0.126 A 
ATOM     25  C   UNL     1       5.525   0.175   2.493  0.00  0.00    +0.033 A 
ATOM     26  C   UNL     1       5.003   0.839   3.587  0.00  0.00    +0.008 A 
BRANCH  24  27
ATOM     27  N   UNL     1       6.037   0.050   0.070  0.00  0.00    +0.056 N 
ATOM     28  O   UNL     1       6.538  -1.051   0.208  0.00  0.00    -0.126 OA
ATOM     29  O   UNL     1       5.996   0.567  -1.032  0.00  0.00    -0.126 OA
ENDBRANCH  24  27
ENDBRANCH   2  21
BRANCH   4  30
ATOM     30  O   UNL     1       2.258   0.328   4.784  0.00  0.00    -0.506 OA
ATOM     31  H   UNL     1       1.581  -0.406   4.832  0.00  0.00    +0.292 HD
ENDBRANCH   4  30
BRANCH   1  32
ATOM     32  C   UNL     1       5.509   4.834   4.491  0.00  0.00    +0.090 C 
BRANCH  32  33
ATOM     33  C   UNL     1       5.971   4.949   3.037  0.00  0.00    -0.060 C 
BRANCH  33  34
ATOM     34  N   UNL     1       7.332   5.523   3.013  0.00  0.00    +0.380 N 
ATOM     35  H   UNL     1       7.933   4.984   3.647  0.00  0.00    -0.082 HD
BRANCH  34  37
ATOM     36  C   UNL     1       8.349   4.012   1.383  0.00  0.00    -0.017 C 
ATOM     37  C   UNL     1       7.888   5.447   1.645  0.00  0.00    -0.082 C 
ENDBRANCH  34  37
BRANCH  34  38
ATOM     38  C   UNL     1       7.295   6.929   3.466  0.00  0.00    -0.082 C 
ATOM     39  C   UNL     1       8.722   7.380   3.787  0.00  0.00    -0.017 C 
ENDBRANCH  34  38
ENDBRANCH  33  34
ENDBRANCH  32  33
ENDBRANCH   1  32
TORSDOF 11
