REMARK  Name = ZINC43743168
REMARK  11 active torsions:
REMARK  status: ('A' for Active; 'I' for Inactive)
REMARK    1  A    between atoms: C_1  and  C_2
REMARK    2  A    between atoms: C_2  and  C_4
REMARK    3  A    between atoms: C_2  and  C_10
REMARK    4  A    between atoms: C_4  and  C_5
REMARK    5  A    between atoms: C_5  and  C_6
REMARK    6  A    between atoms: C_6  and  O_8
REMARK    7  A    between atoms: O_8  and  C_9
REMARK    8  A    between atoms: C_16  and  C_37
REMARK    9  A    between atoms: C_17  and  O_36
REMARK   10  A    between atoms: C_28  and  C_35
REMARK   11  A    between atoms: C_31  and  O_34
REMARK                            x       y       z     vdW  Elec       q    Type
REMARK                         _______ _______ _______ _____ _____    ______ ____
ROOT
ATOM      1  C   UNL     1       0.918  -0.578  -1.081  0.00  0.00    +0.001 C 
ATOM      2  C   UNL     1       0.926  -2.125  -1.013  0.00  0.00    +0.005 C 
ATOM      3  C   UNL     1       0.300  -2.625  -2.344  0.00  0.00    +0.005 C 
ATOM      4  C   UNL     1      -0.558  -1.435  -2.787  0.00  0.00    +0.001 C 
ATOM      5  C   UNL     1       0.378  -0.235  -2.466  0.00  0.00    +0.000 C 
ATOM      6  C   UNL     1      -0.448   1.031  -2.576  0.00  0.00    +0.121 C 
ATOM      7  C   UNL     1      -0.889   1.163  -4.044  0.00  0.00    +0.036 C 
ATOM      8  C   UNL     1      -1.672  -0.064  -4.501  0.00  0.00    +0.001 C 
ATOM      9  C   UNL     1      -0.893  -1.374  -4.265  0.00  0.00    -0.004 C 
ATOM     10  C   UNL     1      -1.757  -2.572  -4.664  0.00  0.00    +0.004 C 
ATOM     11  C   UNL     1      -2.127  -2.462  -6.145  0.00  0.00    +0.004 C 
ATOM     12  C   UNL     1      -2.910  -1.170  -6.382  0.00  0.00    -0.002 C 
ATOM     13  C   UNL     1      -2.018   0.058  -5.985  0.00  0.00    -0.026 C 
ATOM     14  C   UNL     1      -2.804   1.350  -6.220  0.00  0.00    +0.010 C 
ATOM     15  C   UNL     1      -3.157   1.471  -7.704  0.00  0.00    +0.032 C 
ATOM     16  C   UNL     1      -4.009   0.272  -8.125  0.00  0.00    +0.115 C 
ATOM     17  C   UNL     1      -3.280  -1.061  -7.863  0.00  0.00    +0.035 C 
ATOM     18  C   UNL     1      -0.729   0.086  -6.809  0.00  0.00    +0.012 C 
ATOM     19  C   UNL     1       1.529  -0.192  -3.473  0.00  0.00    +0.014 C 
ENDROOT
BRANCH   1  21
ATOM     20  C   UNL     1       0.611  -0.273   1.380  0.00  0.00    +0.008 C 
ATOM     21  C   UNL     1       0.002  -0.004   0.002  0.00  0.00    -0.010 C 
BRANCH  21  22
ATOM     22  C   UNL     1      -1.372  -0.670  -0.087  0.00  0.00    +0.014 C 
BRANCH  22  23
ATOM     23  C   UNL     1      -2.274  -0.130   1.024  0.00  0.00    +0.121 C 
BRANCH  23  24
ATOM     24  C   UNL     1      -3.628  -0.786   0.936  0.00  0.00    +0.307 C 
ATOM     25  O   UNL     1      -3.849  -1.602   0.073  0.00  0.00    -0.251 OA
BRANCH  24  26
ATOM     26  O   UNL     1      -4.588  -0.465   1.817  0.00  0.00    -0.468 OA
ATOM     27  C   UNL     1      -5.847  -1.125   1.675  0.00  0.00    +0.280 C 
ENDBRANCH  24  26
ENDBRANCH  23  24
ENDBRANCH  22  23
ENDBRANCH  21  22
ENDBRANCH   1  21
BRANCH  16  28
ATOM     28  O   UNL     1      -4.339   0.385  -9.511  0.00  0.00    -0.392 OA
ATOM     29  H   UNL     1      -4.839   1.182  -9.732  0.00  0.00    +0.210 HD
ENDBRANCH  16  28
BRANCH   6  30
ATOM     30  O   UNL     1       0.342   2.161  -2.201  0.00  0.00    -0.391 OA
ATOM     31  H   UNL     1      -0.130   3.004  -2.251  0.00  0.00    +0.210 HD
ENDBRANCH   6  30
TORSDOF 7
