REMARK  Name = ZINC06409827
REMARK  5 active torsions:
REMARK  status: ('A' for Active; 'I' for Inactive)
REMARK    1  A    between atoms: C_1  and  C_2
REMARK    2  A    between atoms: C_7  and  C_14
REMARK    3  A    between atoms: C_14  and  C_16
REMARK    4  A    between atoms: C_14  and  N_70
REMARK    5  A    between atoms: N_20  and  C_21
REMARK                            x       y       z     vdW  Elec       q    Type
REMARK                         _______ _______ _______ _____ _____    ______ ____
ROOT
ATOM      1  C   UNL     1       1.379   3.498   0.146  0.00  0.00    +0.039 C 
ENDROOT
BRANCH   1   8
ATOM      2  C   UNL     1      -3.051   6.134   6.233  0.00  0.00    +0.044 C 
ATOM      3  C   UNL     1      -2.347   5.774   4.950  0.00  0.00    -0.048 A 
ATOM      4  C   UNL     1      -2.759   6.351   3.756  0.00  0.00    +0.004 A 
ATOM      5  C   UNL     1      -2.134   6.038   2.582  0.00  0.00    +0.010 A 
ATOM      6  C   UNL     1      -1.070   5.131   2.583  0.00  0.00    -0.001 A 
ATOM      7  C   UNL     1      -0.379   4.773   1.343  0.00  0.00    +0.017 A 
ATOM      8  C   UNL     1       0.646   3.887   1.405  0.00  0.00    +0.011 A 
ATOM      9  C   UNL     1       1.025   3.324   2.642  0.00  0.00    +0.251 A 
ATOM     10  O   UNL     1       1.945   2.525   2.674  0.00  0.00    -0.268 OA
ATOM     11  N   UNL     1       0.399   3.650   3.787  0.00  0.00    -0.322 N 
ATOM     12  H   UNL     1       0.688   3.247   4.620  0.00  0.00    +0.169 HD
ATOM     13  C   UNL     1      -0.649   4.545   3.792  0.00  0.00    +0.049 A 
ATOM     14  C   UNL     1      -1.301   4.877   4.975  0.00  0.00    +0.029 A 
ENDBRANCH   1   8
BRANCH   1  25
ATOM     15  C   UNL     1      -0.019   1.526   0.010  0.00  0.00    -0.077 C 
ATOM     16  C   UNL     1       0.002  -0.004   0.002  0.00  0.00    -0.018 C 
ATOM     17  C   UNL     1       0.738  -0.493  -1.249  0.00  0.00    +0.003 C 
ATOM     18  C   UNL     1       2.153   0.092  -1.259  0.00  0.00    -0.044 C 
ATOM     19  C   UNL     1       2.070   1.619  -1.215  0.00  0.00    -0.071 C 
ATOM     20  C   UNL     1       2.876  -0.345  -2.534  0.00  0.00    +0.005 C 
ATOM     21  C   UNL     1       2.955  -1.872  -2.578  0.00  0.00    +0.000 C 
ATOM     22  C   UNL     1       3.724  -2.378  -1.355  0.00  0.00    +0.000 C 
ATOM     23  C   UNL     1       3.000  -1.941  -0.080  0.00  0.00    +0.000 C 
ATOM     24  C   UNL     1       2.922  -0.413  -0.037  0.00  0.00    +0.005 C 
ATOM     25  N   UNL     1       1.373   2.026   0.024  0.00  0.00    +0.390 N 
ATOM     26  H   UNL     1       1.863   1.622   0.830  0.00  0.00    -0.080 HD
ENDBRANCH   1  25
BRANCH   1  27
ATOM     27  C   UNL     1       2.806   3.974   0.229  0.00  0.00    +0.143 A 
ATOM     28  N   UNL     1       3.767   3.446   0.947  0.00  0.00    -0.115 NA
ATOM     29  N   UNL     1       4.837   4.136   0.748  0.00  0.00    -0.023 NA
ATOM     30  N   UNL     1       4.584   5.090  -0.077  0.00  0.00    -0.044 NA
ATOM     31  N   UNL     1       3.343   5.021  -0.425  0.00  0.00    -0.227 N 
BRANCH  31  32
ATOM     32  C   UNL     1       2.648   5.916  -1.353  0.00  0.00    +0.111 C 
ATOM     33  C   UNL     1       3.349   5.899  -2.728  0.00  0.00    +0.027 C 
ATOM     34  C   UNL     1       3.251   7.364  -3.222  0.00  0.00    +0.002 C 
ATOM     35  C   UNL     1       3.461   8.179  -1.921  0.00  0.00    +0.002 C 
ATOM     36  C   UNL     1       2.719   7.366  -0.841  0.00  0.00    +0.027 C 
ENDBRANCH  31  32
ENDBRANCH   1  27
TORSDOF 4
