REMARK  Name = ZINC59221180
REMARK  12 active torsions:
REMARK  status: ('A' for Active; 'I' for Inactive)
REMARK    1  A    between atoms: C_1  and  C_2
REMARK    2  A    between atoms: C_5  and  C_37
REMARK    3  A    between atoms: C_6  and  N_8
REMARK    4  A    between atoms: N_10  and  C_29
REMARK    5  A    between atoms: C_14  and  C_15
REMARK    6  A    between atoms: C_17  and  O_26
REMARK    7  A    between atoms: C_18  and  O_24
REMARK    8  A    between atoms: C_20  and  N_21
REMARK    9  A    between atoms: O_24  and  C_25
REMARK   10  A    between atoms: O_26  and  C_27
REMARK   11  A    between atoms: C_31  and  C_36
REMARK   12  A    between atoms: C_34  and  C_35
REMARK                            x       y       z     vdW  Elec       q    Type
REMARK                         _______ _______ _______ _____ _____    ______ ____
ROOT
ATOM      1  N   UNL     1       0.293  -2.960   2.580  0.00  0.00    -0.225 NA
ATOM      2  C   UNL     1       0.151  -2.331   3.737  0.00  0.00    +0.173 C 
ATOM      3  N   UNL     1       0.033  -2.893   4.980  0.00  0.00    -0.214 N 
ATOM      4  C   UNL     1      -0.102  -2.076   6.019  0.00  0.00    +0.263 C 
ATOM      5  O   UNL     1      -0.214  -2.473   7.163  0.00  0.00    -0.269 OA
ATOM      6  C   UNL     1      -0.104  -0.641   5.661  0.00  0.00    +0.079 C 
ATOM      7  C   UNL     1      -0.227   0.473   6.507  0.00  0.00    +0.030 C 
ATOM      8  S   UNL     1       0.084  -0.675   3.993  0.00  0.00    -0.048 S 
ENDROOT
BRANCH   1  14
ATOM      9  C   UNL     1       2.788   0.443   0.141  0.00  0.00    +0.044 C 
ATOM     10  C   UNL     1       1.690  -0.586   0.226  0.00  0.00    -0.048 A 
ATOM     11  C   UNL     1       0.865  -0.809  -0.870  0.00  0.00    +0.004 A 
ATOM     12  C   UNL     1      -0.151  -1.754  -0.808  0.00  0.00    +0.006 A 
ATOM     13  C   UNL     1      -0.351  -2.476   0.333  0.00  0.00    -0.025 A 
ATOM     14  C   UNL     1       0.480  -2.258   1.454  0.00  0.00    +0.070 A 
ATOM     15  C   UNL     1       1.513  -1.298   1.376  0.00  0.00    +0.031 A 
ATOM     16  C   UNL     1      -1.455  -3.500   0.396  0.00  0.00    +0.046 C 
ENDBRANCH   1  14
BRANCH   3  17
ATOM     17  C   UNL     1       0.053  -4.281   5.150  0.00  0.00    +0.047 A 
ATOM     18  C   UNL     1       1.259  -4.938   5.369  0.00  0.00    +0.027 A 
ATOM     19  C   UNL     1       1.275  -6.308   5.537  0.00  0.00    -0.049 A 
ATOM     20  C   UNL     1       0.094  -7.027   5.488  0.00  0.00    +0.004 A 
ATOM     21  C   UNL     1      -1.107  -6.377   5.270  0.00  0.00    +0.005 A 
ATOM     22  C   UNL     1      -1.131  -5.005   5.106  0.00  0.00    -0.029 A 
ATOM     23  C   UNL     1      -2.441  -4.297   4.875  0.00  0.00    +0.045 C 
ATOM     24  C   UNL     1       2.581  -7.021   5.774  0.00  0.00    +0.044 C 
ENDBRANCH   3  17
BRANCH   7  25
ATOM     25  C   UNL     1      -0.315   1.764   5.960  0.00  0.00    +0.010 A 
ATOM     26  C   UNL     1      -1.008   1.976   4.748  0.00  0.00    +0.059 A 
ATOM     27  C   UNL     1      -1.089   3.232   4.223  0.00  0.00    +0.162 A 
ATOM     28  C   UNL     1      -0.483   4.313   4.887  0.00  0.00    +0.164 A 
ATOM     29  C   UNL     1       0.204   4.108   6.085  0.00  0.00    +0.082 A 
ATOM     30  C   UNL     1       0.287   2.860   6.623  0.00  0.00    +0.137 A 
BRANCH  30  31
ATOM     31  N   UNL     1       1.011   2.648   7.897  0.00  0.00    +0.057 N 
ATOM     32  O   UNL     1       1.459   3.681   8.579  0.00  0.00    -0.126 OA
ATOM     33  O   UNL     1       1.207   1.426   8.348  0.00  0.00    -0.126 OA
ENDBRANCH  30  31
BRANCH  28  34
ATOM     34  O   UNL     1      -0.566   5.557   4.362  0.00  0.00    -0.491 OA
ATOM     35  C   UNL     1       0.072   6.611   5.088  0.00  0.00    +0.277 C 
ENDBRANCH  28  34
BRANCH  27  36
ATOM     36  O   UNL     1      -1.755   3.440   3.057  0.00  0.00    -0.491 OA
ATOM     37  C   UNL     1      -2.441   2.320   2.494  0.00  0.00    +0.277 C 
ENDBRANCH  27  36
ENDBRANCH   7  25
TORSDOF 6
