REMARK  Name = ZINC08789282
REMARK  12 active torsions:
REMARK  status: ('A' for Active; 'I' for Inactive)
REMARK    1  A    between atoms: C_1  and  C_2
REMARK    2  A    between atoms: C_9  and  O_20
REMARK    3  A    between atoms: C_12  and  C_14
REMARK    4  A    between atoms: C_23  and  O_38
REMARK    5  A    between atoms: C_24  and  C_31
REMARK    6  A    between atoms: C_27  and  O_30
REMARK    7  A    between atoms: C_32  and  C_33
REMARK    8  A    between atoms: C_32  and  C_34
REMARK    9  A    between atoms: C_32  and  C_36
REMARK   10  A    between atoms: C_32  and  N_76
REMARK   11  A    between atoms: C_34  and  O_35
REMARK   12  A    between atoms: C_36  and  O_37
REMARK                            x       y       z     vdW  Elec       q    Type
REMARK                         _______ _______ _______ _____ _____    ______ ____
ROOT
ATOM      1  C   UNL     1       3.580   2.503   3.955  0.00  0.00    +0.014 C 
ATOM      2  C   UNL     1       2.897   1.153   3.726  0.00  0.00    +0.004 C 
ATOM      3  C   UNL     1       3.394   0.479   2.445  0.00  0.00    +0.010 C 
ATOM      4  C   UNL     1       2.857   1.200   1.212  0.00  0.00    +0.005 C 
ATOM      5  C   UNL     1       1.328   1.101   1.214  0.00  0.00    +0.009 C 
ATOM      6  C   UNL     1       0.797   1.832   2.446  0.00  0.00    +0.025 C 
ATOM      7  C   UNL     1       1.365   1.286   3.711  0.00  0.00    +0.075 C 
ATOM      8  C   UNL     1       0.876  -0.154   3.956  0.00  0.00    +0.036 C 
ATOM      9  C   UNL     1       1.869  -0.697   5.008  0.00  0.00    +0.011 C 
ATOM     10  C   UNL     1       3.176   0.162   4.888  0.00  0.00    +0.027 C 
ATOM     11  C   UNL     1      -0.732   1.767   2.461  0.00  0.00    +0.009 C 
ATOM     12  C   UNL     1      -1.282   2.431   1.197  0.00  0.00    +0.036 C 
ATOM     13  C   UNL     1      -0.751   1.700  -0.037  0.00  0.00    +0.079 C 
ATOM     14  C   UNL     1       0.777   1.765  -0.050  0.00  0.00    +0.036 C 
ATOM     15  C   UNL     1       1.309   1.034  -1.284  0.00  0.00    +0.018 C 
ATOM     16  C   UNL     1       0.860  -0.428  -1.245  0.00  0.00    +0.032 C 
ATOM     17  C   UNL     1      -0.669  -0.491  -1.234  0.00  0.00    +0.117 C 
ATOM     18  C   UNL     1      -1.200   0.238   0.002  0.00  0.00    +0.067 C 
ENDROOT
BRANCH  10  19
ATOM     19  C   UNL     1       3.429   0.919   6.165  0.00  0.00    -0.022 C 
ATOM     20  C   UNL     1       4.574   0.973   6.841  0.00  0.00    +0.094 C 
ATOM     21  C   UNL     1       4.404   1.819   8.026  0.00  0.00    +0.332 C 
ATOM     22  O   UNL     1       5.274   2.063   8.838  0.00  0.00    -0.246 OA
ATOM     23  O   UNL     1       3.142   2.282   8.083  0.00  0.00    -0.457 OA
ATOM     24  C   UNL     1       2.429   1.759   6.926  0.00  0.00    +0.264 C 
ENDBRANCH  10  19
BRANCH  14  25
ATOM     25  C   UNL     1       1.218   3.205  -0.092  0.00  0.00    +0.061 C 
ATOM     26  N   UNL     1       0.278   4.123  -0.109  0.00  0.00    -0.384 N 
ATOM     27  H   UNL     1      -0.711   3.846  -0.094  0.00  0.00    +0.159 HD
BRANCH  26  28
ATOM     28  C   UNL     1       0.649   5.579  -0.150  0.00  0.00    +0.081 C 
ATOM     29  C   UNL     1       1.470   5.960   1.083  0.00  0.00    +0.038 C 
BRANCH  28  30
ATOM     30  C   UNL     1       1.452   5.894  -1.414  0.00  0.00    +0.185 C 
BRANCH  30  31
ATOM     31  O   UNL     1       0.685   5.538  -2.566  0.00  0.00    -0.393 OA
ATOM     32  H   UNL     1       1.133   5.711  -3.406  0.00  0.00    +0.209 HD
ENDBRANCH  30  31
ENDBRANCH  28  30
BRANCH  28  33
ATOM     33  C   UNL     1      -0.655   6.379  -0.162  0.00  0.00    +0.185 C 
BRANCH  33  34
ATOM     34  O   UNL     1      -0.357   7.776  -0.201  0.00  0.00    -0.393 OA
ATOM     35  H   UNL     1      -1.139   8.345  -0.210  0.00  0.00    +0.209 HD
ENDBRANCH  33  34
ENDBRANCH  28  33
ENDBRANCH  26  28
ENDBRANCH  14  25
BRANCH   7  36
ATOM     36  O   UNL     1       0.955   2.111   4.804  0.00  0.00    -0.388 OA
ATOM     37  H   UNL     1      -0.001   2.242   4.861  0.00  0.00    +0.210 HD
ENDBRANCH   7  36
BRANCH  17  38
ATOM     38  O   UNL     1      -1.180   0.135  -2.413  0.00  0.00    -0.392 OA
ATOM     39  H   UNL     1      -0.884  -0.277  -3.236  0.00  0.00    +0.210 HD
ENDBRANCH  17  38
BRANCH  13  40
ATOM     40  O   UNL     1      -1.264   2.325  -1.216  0.00  0.00    -0.388 OA
ATOM     41  H   UNL     1      -2.229   2.321  -1.275  0.00  0.00    +0.210 HD
ENDBRANCH  13  40
TORSDOF 10
