REMARK  Name = ZINC63738669
REMARK  9 active torsions:
REMARK  status: ('A' for Active; 'I' for Inactive)
REMARK    1  A    between atoms: C_1  and  C_2
REMARK    2  A    between atoms: C_2  and  C_3
REMARK    3  A    between atoms: C_3  and  N_4
REMARK    4  A    between atoms: C_10  and  C_12
REMARK    5  A    between atoms: C_12  and  C_14
REMARK    6  A    between atoms: C_12  and  C_15
REMARK    7  A    between atoms: C_21  and  C_23
REMARK    8  A    between atoms: C_29  and  O_33
REMARK    9  A    between atoms: O_33  and  C_34
REMARK                            x       y       z     vdW  Elec       q    Type
REMARK                         _______ _______ _______ _____ _____    ______ ____
ROOT
ATOM      1  C   UNL     1      -4.094  -6.952   2.658  0.00  0.00    +0.004 C 
ATOM      2  C   UNL     1      -5.532  -7.473   2.704  0.00  0.00    +0.023 C 
ATOM      3  C   UNL     1      -5.719  -8.335   3.957  0.00  0.00    +0.108 C 
ATOM      4  N   UNL     1      -4.694  -9.389   3.963  0.00  0.00    -0.300 N 
ATOM      5  C   UNL     1      -3.283  -9.002   3.832  0.00  0.00    +0.108 C 
ATOM      6  C   UNL     1      -3.124  -8.133   2.581  0.00  0.00    +0.023 C 
ATOM      7  C   UNL     1      -5.043 -10.685   4.086  0.00  0.00    +0.242 C 
ATOM      8  O   UNL     1      -6.212 -10.991   4.194  0.00  0.00    -0.273 OA
ENDROOT
BRANCH   7   9
ATOM      9  C   UNL     1      -3.981 -11.754   4.091  0.00  0.00    +0.190 C 
ATOM     10  C   UNL     1      -3.240 -11.758   2.772  0.00  0.00    +0.016 C 
ATOM     11  C   UNL     1      -3.442 -12.979   2.231  0.00  0.00    -0.003 A 
ATOM     12  C   UNL     1      -2.992 -13.595   0.976  0.00  0.00    +0.013 A 
ATOM     13  C   UNL     1      -3.362 -14.864   0.698  0.00  0.00    +0.046 A 
ATOM     14  C   UNL     1      -4.168 -15.608   1.581  0.00  0.00    +0.122 A 
ATOM     15  C   UNL     1      -4.621 -15.103   2.757  0.00  0.00    +0.071 A 
ATOM     16  C   UNL     1      -4.289 -13.781   3.144  0.00  0.00    +0.047 A 
ATOM     17  N   UNL     1      -4.598 -13.079   4.212  0.00  0.00    -0.370 N 
ATOM     18  H   UNL     1      -5.142 -13.385   4.954  0.00  0.00    +0.161 HD
BRANCH  14  19
ATOM     19  O   UNL     1      -4.505 -16.877   1.243  0.00  0.00    -0.495 OA
ATOM     20  C   UNL     1      -4.009 -17.370  -0.003  0.00  0.00    +0.277 C 
ENDBRANCH  14  19
ENDBRANCH   7   9
BRANCH   1  21
ATOM     21  C   UNL     1      -3.913  -6.062   1.427  0.00  0.00    +0.075 C 
ATOM     22  C   UNL     1      -4.883  -4.882   1.504  0.00  0.00    +0.017 C 
BRANCH  21  29
ATOM     23  N   UNL     1      -0.527  -5.232  -2.185  0.00  0.00    +0.382 N 
ATOM     24  C   UNL     1      -1.772  -5.999  -2.065  0.00  0.00    -0.060 C 
ATOM     25  C   UNL     1      -2.697  -5.316  -1.052  0.00  0.00    +0.089 C 
ATOM     26  N   UNL     1      -1.962  -5.148   0.211  0.00  0.00    -0.305 N 
ATOM     27  C   UNL     1      -0.627  -4.533   0.161  0.00  0.00    +0.089 C 
ATOM     28  C   UNL     1       0.200  -5.254  -0.909  0.00  0.00    -0.060 C 
ATOM     29  C   UNL     1      -2.498  -5.547   1.382  0.00  0.00    +0.219 C 
ATOM     30  O   UNL     1      -1.840  -5.492   2.399  0.00  0.00    -0.275 OA
ATOM     31  H   UNL     1      -0.745  -4.277  -2.430  0.00  0.00    -0.082 HD
BRANCH  23  32
ATOM     32  C   UNL     1       0.313  -5.825  -3.235  0.00  0.00    -0.079 C 
BRANCH  32  34
ATOM     33  C   UNL     1       0.484  -6.308  -5.680  0.00  0.00    +0.002 C 
ATOM     34  C   UNL     1      -0.390  -5.690  -4.587  0.00  0.00    -0.022 C 
ENDBRANCH  32  34
ENDBRANCH  23  32
ENDBRANCH  21  29
ENDBRANCH   1  21
TORSDOF 6
