REMARK  Name = ZINC48301464
REMARK  7 active torsions:
REMARK  status: ('A' for Active; 'I' for Inactive)
REMARK    1  A    between atoms: C_1  and  C_2
REMARK    2  A    between atoms: C_9  and  N_14
REMARK    3  A    between atoms: C_15  and  C_17
REMARK    4  A    between atoms: C_17  and  C_19
REMARK    5  A    between atoms: C_17  and  N_22
REMARK    6  A    between atoms: C_19  and  C_20
REMARK    7  A    between atoms: C_19  and  C_21
REMARK                            x       y       z     vdW  Elec       q    Type
REMARK                         _______ _______ _______ _____ _____    ______ ____
ROOT
ATOM      1  N   UNL     1      -0.063  -5.941   3.250  0.00  0.00    -0.287 N 
ATOM      2  C   UNL     1       1.034  -6.671   2.967  0.00  0.00    +0.204 C 
ATOM      3  O   UNL     1       2.059  -6.118   2.628  0.00  0.00    -0.277 OA
ATOM      4  H   UNL     1      -0.871  -6.380   3.560  0.00  0.00    +0.155 HD
ENDROOT
BRANCH   1  12
ATOM      5  C   UNL     1      -0.907   1.609   1.780  0.00  0.00    +0.062 C 
ATOM      6  C   UNL     1      -0.783   0.095   1.600  0.00  0.00    +0.256 C 
ATOM      7  C   UNL     1      -2.153  -0.531   1.666  0.00  0.00    +0.258 C 
ATOM      8  O   UNL     1      -3.130   0.102   1.325  0.00  0.00    -0.271 OA
ATOM      9  N   UNL     1      -2.288  -1.802   2.105  0.00  0.00    -0.279 N 
ATOM     10  C   UNL     1      -1.147  -2.500   2.526  0.00  0.00    +0.077 A 
ATOM     11  C   UNL     1      -1.178  -3.876   2.677  0.00  0.00    +0.050 A 
ATOM     12  C   UNL     1      -0.037  -4.549   3.096  0.00  0.00    +0.035 A 
ATOM     13  C   UNL     1       1.128  -3.842   3.362  0.00  0.00    +0.027 A 
ATOM     14  C   UNL     1       1.158  -2.469   3.211  0.00  0.00    +0.049 A 
ATOM     15  C   UNL     1       0.025  -1.794   2.793  0.00  0.00    +0.143 A 
ATOM     16  O   UNL     1       0.040  -0.442   2.638  0.00  0.00    -0.478 OA
ATOM     17  H   UNL     1      -3.161  -2.224   2.130  0.00  0.00    +0.155 HD
ENDBRANCH   1  12
BRANCH   2  18
ATOM     18  C   UNL     1       0.988  -8.173   3.074  0.00  0.00    +0.022 C 
BRANCH  18  19
ATOM     19  N   UNL     1       2.232  -8.659   3.687  0.00  0.00    +0.387 N 
ATOM     20  C   UNL     1       2.258 -10.126   3.640  0.00  0.00    -0.078 C 
ATOM     21  C   UNL     1       3.586 -10.634   4.204  0.00  0.00    -0.019 C 
ATOM     22  C   UNL     1       3.733 -10.165   5.654  0.00  0.00    -0.004 C 
ATOM     23  C   UNL     1       3.630  -8.638   5.699  0.00  0.00    -0.019 C 
ATOM     24  C   UNL     1       2.300  -8.203   5.080  0.00  0.00    -0.078 C 
ATOM     25  H   UNL     1       3.022  -8.295   3.176  0.00  0.00    -0.081 HD
ENDBRANCH  18  19
BRANCH  18  26
ATOM     26  C   UNL     1       0.837  -8.779   1.677  0.00  0.00    -0.022 C 
ATOM     27  C   UNL     1      -0.440  -8.246   1.025  0.00  0.00    +0.006 C 
ATOM     28  C   UNL     1       2.045  -8.393   0.821  0.00  0.00    +0.006 C 
ENDBRANCH  18  26
ENDBRANCH   2  18
TORSDOF 4
