REMARK  Name = ZINC00959860
REMARK  4 active torsions:
REMARK  status: ('A' for Active; 'I' for Inactive)
REMARK    1  A    between atoms: C_5  and  C_7
REMARK    2  A    between atoms: C_7  and  S_8
REMARK    3  A    between atoms: S_8  and  C_9
REMARK    4  A    between atoms: C_20  and  C_22
REMARK                            x       y       z     vdW  Elec       q    Type
REMARK                         _______ _______ _______ _____ _____    ______ ____
ROOT
ATOM      1  C   UNL     1      -3.508   0.223  -3.425  0.00  0.00    +0.171 A 
ATOM      2  N   UNL     1      -2.458  -0.636  -3.545  0.00  0.00    -0.302 N 
ATOM      3  H   UNL     1      -2.232  -1.007  -4.413  0.00  0.00    +0.171 HD
ATOM      4  C   UNL     1      -1.730  -0.973  -2.459  0.00  0.00    +0.258 A 
ATOM      5  O   UNL     1      -0.786  -1.741  -2.557  0.00  0.00    -0.267 OA
ATOM      6  C   UNL     1      -2.079  -0.425  -1.218  0.00  0.00    +0.069 A 
ATOM      7  C   UNL     1      -3.157   0.438  -1.150  0.00  0.00    +0.135 A 
ATOM      8  N   UNL     1      -3.841   0.740  -2.260  0.00  0.00    -0.208 NA
ATOM      9  N   UNL     1      -3.520   0.984   0.065  0.00  0.00    -0.302 N 
ATOM     10  C   UNL     1      -3.112   0.407   1.237  0.00  0.00    +0.017 C 
ATOM     11  C   UNL     1      -2.059  -0.437   1.265  0.00  0.00    +0.024 C 
ATOM     12  C   UNL     1      -1.294  -0.774   0.011  0.00  0.00    +0.093 C 
ATOM     13  C   UNL     1      -1.638  -1.030   2.469  0.00  0.00    +0.162 C 
ATOM     14  O   UNL     1      -0.699  -1.801   2.457  0.00  0.00    -0.292 OA
ATOM     15  C   UNL     1      -2.328  -0.729   3.771  0.00  0.00    +0.080 C 
ATOM     16  C   UNL     1      -2.933   0.678   3.700  0.00  0.00    +0.014 C 
ATOM     17  C   UNL     1      -3.876   0.738   2.497  0.00  0.00    +0.051 C 
ATOM     18  H   UNL     1      -4.070   1.783   0.089  0.00  0.00    +0.153 HD
ENDROOT
BRANCH  12  19
ATOM     19  C   UNL     1       0.002  -0.004   0.002  0.00  0.00    -0.032 A 
ATOM     20  C   UNL     1      -0.017   1.378   0.010  0.00  0.00    +0.008 A 
ATOM     21  C   UNL     1       1.169   2.089   0.002  0.00  0.00    +0.050 A 
ATOM     22  C   UNL     1       2.380   1.416  -0.013  0.00  0.00    +0.166 A 
ATOM     23  C   UNL     1       2.399   0.024  -0.021  0.00  0.00    +0.167 A 
ATOM     24  C   UNL     1       1.207  -0.682  -0.013  0.00  0.00    +0.054 A 
ATOM     25  O   UNL     1       3.698  -0.395  -0.036  0.00  0.00    -0.453 OA
ATOM     26  C   UNL     1       4.475   0.746   0.374  0.00  0.00    +0.466 C 
ATOM     27  O   UNL     1       3.668   1.870  -0.024  0.00  0.00    -0.453 OA
ENDBRANCH  12  19
BRANCH   1  28
ATOM     28  S   UNL     1      -4.440   0.652  -4.857  0.00  0.00    -0.083 S 
BRANCH  28  29
ATOM     29  C   UNL     1      -5.653   1.774  -4.118  0.00  0.00    +0.114 C 
BRANCH  29  34
ATOM     30  C   UNL     1      -7.136   3.904  -6.860  0.00  0.00    +0.000 A 
ATOM     31  C   UNL     1      -8.297   3.212  -7.151  0.00  0.00    +0.001 A 
ATOM     32  C   UNL     1      -8.603   2.055  -6.460  0.00  0.00    +0.020 A 
ATOM     33  C   UNL     1      -7.747   1.589  -5.478  0.00  0.00    +0.045 A 
ATOM     34  C   UNL     1      -6.585   2.281  -5.188  0.00  0.00    -0.019 A 
ATOM     35  C   UNL     1      -6.283   3.442  -5.875  0.00  0.00    +0.006 A 
ATOM     36 CL   UNL     1      -8.132   0.135  -4.610  0.00  0.00    -0.083 Cl
ENDBRANCH  29  34
ENDBRANCH  28  29
ENDBRANCH   1  28
TORSDOF 4
