REMARK  Name = ZINC04855666
REMARK  4 active torsions:
REMARK  status: ('A' for Active; 'I' for Inactive)
REMARK    1  A    between atoms: N_13  and  C_16
REMARK    2  A    between atoms: C_16  and  C_17
REMARK    3  A    between atoms: N_22  and  C_25
REMARK    4  A    between atoms: C_25  and  C_26
REMARK                            x       y       z     vdW  Elec       q    Type
REMARK                         _______ _______ _______ _____ _____    ______ ____
ROOT
ATOM      1  C   UNL     1       6.116   6.750   6.530  0.00  0.00    +0.002 A 
ATOM      2  C   UNL     1       6.513   6.040   7.663  0.00  0.00    +0.002 A 
ATOM      3  C   UNL     1       6.491   4.680   7.681  0.00  0.00    +0.030 A 
ATOM      4  C   UNL     1       6.062   3.973   6.544  0.00  0.00    +0.092 A 
ATOM      5  C   UNL     1       5.657   4.695   5.391  0.00  0.00    +0.090 A 
ATOM      6  C   UNL     1       5.695   6.101   5.411  0.00  0.00    +0.030 A 
ATOM      7  N   UNL     1       5.248   4.035   4.304  0.00  0.00    -0.241 NA
ATOM      8  C   UNL     1       5.223   2.715   4.311  0.00  0.00    +0.123 A 
ATOM      9  C   UNL     1       4.838   1.707   3.314  0.00  0.00    +0.111 A 
ATOM     10  C   UNL     1       5.029   0.456   3.911  0.00  0.00    +0.152 A 
ATOM     11  N   UNL     1       4.748  -0.648   3.201  0.00  0.00    -0.219 NA
ATOM     12  C   UNL     1       4.303  -0.576   1.977  0.00  0.00    +0.204 A 
ATOM     13  N   UNL     1       4.100   0.606   1.349  0.00  0.00    -0.291 N 
ATOM     14  C   UNL     1       4.363   1.769   1.987  0.00  0.00    +0.266 A 
ATOM     15  O   UNL     1       4.189   2.841   1.432  0.00  0.00    -0.267 OA
ATOM     16  N   UNL     1       5.497   0.643   5.185  0.00  0.00    -0.301 N 
ATOM     17  C   UNL     1       5.627   1.989   5.463  0.00  0.00    +0.163 A 
ATOM     18  N   UNL     1       6.032   2.636   6.539  0.00  0.00    -0.226 NA
ENDROOT
BRANCH  13  19
ATOM     19  C   UNL     1       3.599   0.625  -0.028  0.00  0.00    +0.200 C 
BRANCH  19  20
ATOM     20  C   UNL     1       2.092   0.660  -0.014  0.00  0.00    +0.125 A 
ATOM     21  C   UNL     1       1.331   1.769  -0.001  0.00  0.00    +0.046 A 
ATOM     22  C   UNL     1      -0.016   1.341   0.009  0.00  0.00    +0.041 A 
ATOM     23  C   UNL     1       0.002  -0.004   0.002  0.00  0.00    +0.195 A 
ATOM     24  O   UNL     1       1.282  -0.411  -0.012  0.00  0.00    -0.466 OA
ENDBRANCH  19  20
ENDBRANCH  13  19
BRANCH  16  25
ATOM     25  C   UNL     1       5.816  -0.436   6.123  0.00  0.00    +0.199 C 
BRANCH  25  26
ATOM     26  C   UNL     1       7.260  -0.834   5.959  0.00  0.00    +0.125 A 
ATOM     27  C   UNL     1       8.303  -0.301   6.620  0.00  0.00    +0.046 A 
ATOM     28  C   UNL     1       9.463  -0.968   6.162  0.00  0.00    +0.041 A 
ATOM     29  C   UNL     1       9.060  -1.863   5.242  0.00  0.00    +0.195 A 
ATOM     30  O   UNL     1       7.724  -1.778   5.123  0.00  0.00    -0.466 OA
ENDBRANCH  25  26
ENDBRANCH  16  25
TORSDOF 4
