REMARK  Name = ZINC01246282
REMARK  7 active torsions:
REMARK  status: ('A' for Active; 'I' for Inactive)
REMARK    1  A    between atoms: C_1  and  C_2
REMARK    2  A    between atoms: N_13  and  C_30
REMARK    3  A    between atoms: C_16  and  S_19
REMARK    4  A    between atoms: S_19  and  C_20
REMARK    5  A    between atoms: C_20  and  C_21
REMARK    6  A    between atoms: C_33  and  O_36
REMARK    7  A    between atoms: O_36  and  C_37
REMARK                            x       y       z     vdW  Elec       q    Type
REMARK                         _______ _______ _______ _____ _____    ______ ____
ROOT
ATOM      1  C   UNL     1      -2.716   0.182   1.291  0.00  0.00    +0.008 C 
ATOM      2  C   UNL     1      -2.069  -1.196   1.138  0.00  0.00    -0.009 C 
ATOM      3  C   UNL     1      -1.768  -1.460  -0.340  0.00  0.00    +0.008 C 
ATOM      4  C   UNL     1      -1.351  -2.920  -0.534  0.00  0.00    +0.037 C 
ATOM      5  C   UNL     1      -0.231  -3.240   0.445  0.00  0.00    -0.023 A 
ATOM      6  C   UNL     1      -0.001  -2.467   1.525  0.00  0.00    -0.004 A 
ATOM      7  S   UNL     1       1.373  -3.232   2.336  0.00  0.00    -0.074 S 
ATOM      8  C   UNL     1       1.633  -4.515   1.296  0.00  0.00    +0.102 A 
ATOM      9  C   UNL     1       0.670  -4.385   0.303  0.00  0.00    +0.075 A 
ATOM     10  C   UNL     1       0.678  -5.412  -0.763  0.00  0.00    +0.268 A 
ATOM     11  O   UNL     1      -0.138  -5.362  -1.666  0.00  0.00    -0.266 OA
ATOM     12  N   UNL     1       1.589  -6.398  -0.731  0.00  0.00    -0.245 N 
ATOM     13  C   UNL     1       2.529  -6.479   0.284  0.00  0.00    +0.245 A 
ATOM     14  N   UNL     1       2.549  -5.546   1.288  0.00  0.00    -0.249 N 
ATOM     15  C   UNL     1       3.569  -5.872   2.142  0.00  0.00    +0.198 A 
ATOM     16  N   UNL     1       4.150  -6.955   1.687  0.00  0.00    -0.120 NA
ATOM     17  N   UNL     1       3.494  -7.339   0.512  0.00  0.00    -0.109 NA
ATOM     18  C   UNL     1      -0.755  -1.238   1.932  0.00  0.00    +0.046 C 
ENDROOT
BRANCH  12  19
ATOM     19  C   UNL     1       1.589  -7.366  -1.745  0.00  0.00    +0.053 A 
ATOM     20  C   UNL     1       2.348  -7.170  -2.892  0.00  0.00    +0.030 A 
ATOM     21  C   UNL     1       2.347  -8.123  -3.891  0.00  0.00    +0.047 A 
ATOM     22  C   UNL     1       1.590  -9.277  -3.749  0.00  0.00    +0.120 A 
ATOM     23  C   UNL     1       0.832  -9.473  -2.604  0.00  0.00    +0.047 A 
ATOM     24  C   UNL     1       0.836  -8.523  -1.601  0.00  0.00    +0.030 A 
BRANCH  22  25
ATOM     25  O   UNL     1       1.590 -10.215  -4.733  0.00  0.00    -0.495 OA
ATOM     26  C   UNL     1       0.787 -11.378  -4.520  0.00  0.00    +0.277 C 
ENDBRANCH  22  25
ENDBRANCH  12  19
BRANCH  15  27
ATOM     27  S   UNL     1       4.021  -4.989   3.598  0.00  0.00    -0.081 S 
BRANCH  27  28
ATOM     28  C   UNL     1       5.425  -5.926   4.262  0.00  0.00    +0.112 C 
BRANCH  28  29
ATOM     29  C   UNL     1       5.915  -5.268   5.527  0.00  0.00    -0.033 A 
ATOM     30  C   UNL     1       6.889  -4.289   5.462  0.00  0.00    +0.008 A 
ATOM     31  C   UNL     1       7.341  -3.683   6.619  0.00  0.00    +0.050 A 
ATOM     32  C   UNL     1       6.819  -4.056   7.847  0.00  0.00    +0.166 A 
ATOM     33  C   UNL     1       5.838  -5.042   7.912  0.00  0.00    +0.167 A 
ATOM     34  C   UNL     1       5.385  -5.641   6.748  0.00  0.00    +0.054 A 
ATOM     35  O   UNL     1       5.492  -5.227   9.219  0.00  0.00    -0.453 OA
ATOM     36  C   UNL     1       6.558  -4.638   9.987  0.00  0.00    +0.466 C 
ATOM     37  O   UNL     1       7.087  -3.623   9.114  0.00  0.00    -0.453 OA
ENDBRANCH  28  29
ENDBRANCH  27  28
ENDBRANCH  15  27
TORSDOF 5
