REMARK  Name = ZINC09633602
REMARK  9 active torsions:
REMARK  status: ('A' for Active; 'I' for Inactive)
REMARK    1  A    between atoms: C_1  and  C_2
REMARK    2  A    between atoms: C_2  and  O_3
REMARK    3  A    between atoms: O_3  and  C_4
REMARK    4  A    between atoms: C_4  and  C_6
REMARK    5  A    between atoms: C_7  and  C_15
REMARK    6  A    between atoms: C_12  and  C_14
REMARK    7  A    between atoms: C_15  and  S_16
REMARK    8  A    between atoms: S_16  and  C_17
REMARK    9  A    between atoms: N_19  and  C_23
REMARK                            x       y       z     vdW  Elec       q    Type
REMARK                         _______ _______ _______ _____ _____    ______ ____
ROOT
ATOM      1  C   UNL     1       7.591  -4.035   0.697  0.00  0.00    +0.127 C 
ENDROOT
BRANCH   1   3
ATOM      2  C   UNL     1       7.777  -6.496   0.628  0.00  0.00    +0.074 C 
ATOM      3  C   UNL     1       7.912  -5.358   1.343  0.00  0.00    +0.034 C 
ATOM      4  N   UNL     1       8.339  -5.386   2.639  0.00  0.00    -0.272 N 
ATOM      5  C   UNL     1       8.642  -6.512   3.297  0.00  0.00    +0.304 C 
ATOM      6  O   UNL     1       9.010  -6.437   4.453  0.00  0.00    -0.253 OA
ATOM      7  N   UNL     1       8.557  -7.726   2.717  0.00  0.00    -0.292 N 
ATOM      8  C   UNL     1       8.111  -7.804   1.316  0.00  0.00    +0.110 C 
ATOM      9  C   UNL     1       6.866  -8.693   1.268  0.00  0.00    +0.033 C 
ATOM     10  H   UNL     1       8.425  -4.543   3.111  0.00  0.00    +0.156 HD
ATOM     11  H   UNL     1       8.785  -8.529   3.211  0.00  0.00    +0.151 HD
BRANCH   2  12
ATOM     12  C   UNL     1       7.340  -6.468  -0.717  0.00  0.00    +0.338 C 
ATOM     13  O   UNL     1       6.941  -5.427  -1.205  0.00  0.00    -0.245 OA
BRANCH  12  14
ATOM     14  O   UNL     1       7.364  -7.595  -1.458  0.00  0.00    -0.462 OA
BRANCH  14  16
ATOM     15  C   UNL     1       7.009  -8.862  -3.485  0.00  0.00    +0.048 C 
ATOM     16  C   UNL     1       6.908  -7.494  -2.808  0.00  0.00    +0.229 C 
ENDBRANCH  14  16
ENDBRANCH  12  14
ENDBRANCH   2  12
ENDBRANCH   1   3
BRANCH   1  17
ATOM     17  S   UNL     1       5.932  -3.507   1.192  0.00  0.00    -0.091 S 
BRANCH  17  18
ATOM     18  C   UNL     1       5.822  -1.981   0.319  0.00  0.00    +0.158 A 
ATOM     19  N   UNL     1       4.835  -1.122   0.282  0.00  0.00    -0.151 NA
ATOM     20  N   UNL     1       4.938   0.028  -0.466  0.00  0.00    -0.217 N 
ATOM     21  C   UNL     1       6.079   0.248  -1.167  0.00  0.00    +0.150 A 
ATOM     22  S   UNL     1       6.496   1.563  -2.181  0.00  0.00    -0.023 S 
ATOM     23  S   UNL     1       7.028  -1.205  -0.745  0.00  0.00    -0.034 S 
BRANCH  20  24
ATOM     24  C   UNL     1       3.886   0.949  -0.508  0.00  0.00    +0.069 A 
ATOM     25  C   UNL     1       2.570   0.505  -0.467  0.00  0.00    +0.029 A 
ATOM     26  C   UNL     1       1.533   1.416  -0.509  0.00  0.00    +0.023 A 
ATOM     27  C   UNL     1       1.803   2.771  -0.593  0.00  0.00    +0.059 A 
ATOM     28  C   UNL     1       3.113   3.217  -0.634  0.00  0.00    +0.061 A 
ATOM     29  C   UNL     1       4.155   2.309  -0.592  0.00  0.00    +0.049 A 
ATOM     30 CL   UNL     1       3.448   4.917  -0.739  0.00  0.00    -0.082 Cl
ATOM     31 CL   UNL     1       0.496   3.912  -0.653  0.00  0.00    -0.082 Cl
ENDBRANCH  20  24
ENDBRANCH  17  18
ENDBRANCH   1  17
TORSDOF 7
