REMARK  Name = ZINC66688271
REMARK  17 active torsions:
REMARK  status: ('A' for Active; 'I' for Inactive)
REMARK    1  A    between atoms: C_1  and  C_2
REMARK    2  A    between atoms: C_2  and  C_3
REMARK    3  A    between atoms: C_2  and  N_4
REMARK    4  A    between atoms: N_4  and  C_5
REMARK    5  A    between atoms: N_4  and  C_26
REMARK    6  A    between atoms: C_5  and  C_6
REMARK    7  A    between atoms: C_6  and  N_7
REMARK    8  A    between atoms: C_13  and  C_16
REMARK    9  A    between atoms: C_13  and  N_17
REMARK   10  A    between atoms: N_17  and  C_18
REMARK   11  A    between atoms: C_19  and  O_21
REMARK   12  A    between atoms: O_21  and  C_22
REMARK   13  A    between atoms: C_22  and  C_23
REMARK   14  A    between atoms: C_22  and  C_24
REMARK   15  A    between atoms: C_22  and  C_25
REMARK   16  A    between atoms: C_26  and  C_27
REMARK   17  A    between atoms: C_26  and  C_28
REMARK                            x       y       z     vdW  Elec       q    Type
REMARK                         _______ _______ _______ _____ _____    ______ ____
ROOT
ATOM      1  N   UNL     1      -4.065  -2.285  -2.295  0.00  0.00    -0.301 N 
ATOM      2  C   UNL     1      -3.626  -2.426  -3.562  0.00  0.00    +0.302 C 
ATOM      3  O   UNL     1      -2.534  -2.917  -3.775  0.00  0.00    -0.253 OA
ATOM      4  N   UNL     1      -4.396  -2.023  -4.591  0.00  0.00    -0.286 N 
ATOM      5  C   UNL     1      -3.986  -2.278  -5.979  0.00  0.00    +0.111 C 
ATOM      6  C   UNL     1      -5.125  -2.999  -6.706  0.00  0.00    +0.045 C 
ATOM      7  C   UNL     1      -6.410  -2.179  -6.571  0.00  0.00    +0.040 C 
ATOM      8  C   UNL     1      -6.784  -2.052  -5.093  0.00  0.00    +0.045 C 
ATOM      9  C   UNL     1      -5.667  -1.326  -4.348  0.00  0.00    +0.111 C 
ATOM     10  C   UNL     1      -7.543  -2.878  -7.326  0.00  0.00    +0.032 C 
ATOM     11  H   UNL     1      -4.965  -1.963  -2.127  0.00  0.00    +0.150 HD
ENDROOT
BRANCH   7  12
ATOM     12  N   UNL     1      -6.199  -0.844  -7.138  0.00  0.00    -0.265 N 
ATOM     13  C   UNL     1      -6.587   0.345  -6.375  0.00  0.00    +0.136 C 
ATOM     14  C   UNL     1      -5.646  -0.711  -8.360  0.00  0.00    +0.404 C 
ATOM     15  O   UNL     1      -5.324  -1.697  -8.992  0.00  0.00    -0.226 OA
BRANCH  14  16
ATOM     16  O   UNL     1      -5.452   0.516  -8.880  0.00  0.00    -0.445 OA
BRANCH  16  17
ATOM     17  C   UNL     1      -4.862   0.583 -10.180  0.00  0.00    +0.107 C 
ATOM     18  C   UNL     1      -5.753  -0.152 -11.183  0.00  0.00    +0.055 C 
ATOM     19  C   UNL     1      -4.721   2.047 -10.601  0.00  0.00    +0.055 C 
ATOM     20  C   UNL     1      -3.481  -0.074 -10.148  0.00  0.00    +0.055 C 
ENDBRANCH  16  17
ENDBRANCH  14  16
ENDBRANCH   7  12
BRANCH   1  21
ATOM     21  C   UNL     1      -3.184  -2.617  -1.173  0.00  0.00    +0.087 C 
BRANCH  21  22
ATOM     22  C   UNL     1      -3.921  -2.370   0.144  0.00  0.00    -0.059 C 
BRANCH  22  23
ATOM     23  N   UNL     1      -3.006  -2.603   1.269  0.00  0.00    +0.384 N 
ATOM     24  H   UNL     1      -2.599  -3.523   1.187  0.00  0.00    -0.081 HD
BRANCH  23  26
ATOM     25  C   UNL     1      -4.844  -3.575   2.563  0.00  0.00    -0.014 C 
ATOM     26  C   UNL     1      -3.748  -2.508   2.533  0.00  0.00    -0.074 C 
ATOM     27  C   UNL     1      -2.790  -2.728   3.705  0.00  0.00    -0.014 C 
ENDBRANCH  23  26
BRANCH  23  28
ATOM     28  C   UNL     1      -1.939  -1.593   1.250  0.00  0.00    -0.074 C 
ATOM     29  C   UNL     1      -2.439  -0.311   1.919  0.00  0.00    -0.014 C 
ATOM     30  C   UNL     1      -0.721  -2.123   2.010  0.00  0.00    -0.014 C 
ENDBRANCH  23  28
ENDBRANCH  22  23
ENDBRANCH  21  22
ENDBRANCH   1  21
TORSDOF 8
