REMARK  Name = ZINC02298966
REMARK  12 active torsions:
REMARK  status: ('A' for Active; 'I' for Inactive)
REMARK    1  A    between atoms: C_1  and  C_2
REMARK    2  A    between atoms: C_2  and  C_3
REMARK    3  A    between atoms: C_3  and  C_32
REMARK    4  A    between atoms: C_8  and  N_12
REMARK    5  A    between atoms: C_9  and  C_10
REMARK    6  A    between atoms: N_12  and  C_13
REMARK    7  A    between atoms: C_13  and  N_15
REMARK    8  A    between atoms: N_15  and  C_16
REMARK    9  A    between atoms: C_17  and  C_28
REMARK   10  A    between atoms: C_23  and  C_25
REMARK   11  A    between atoms: C_23  and  C_26
REMARK   12  A    between atoms: C_26  and  C_27
REMARK                            x       y       z     vdW  Elec       q    Type
REMARK                         _______ _______ _______ _____ _____    ______ ____
ROOT
ATOM      1  C   UNL     1      -0.021   1.708   0.011  0.00  0.00    +0.140 C 
ATOM      2  S   UNL     1       0.002  -0.004   0.002  0.00  0.00    -0.018 S 
ENDROOT
BRANCH   1   3
ATOM      3  N   UNL     1       1.137   2.397   0.004  0.00  0.00    -0.290 N 
ATOM      4  H   UNL     1       1.124   3.367   0.009  0.00  0.00    +0.154 HD
BRANCH   3  10
ATOM      5  C   UNL     1       7.023   0.487  -0.498  0.00  0.00    +0.071 C 
ATOM      6  C   UNL     1       6.212   1.707  -0.048  0.00  0.00    +0.072 C 
ATOM      7  C   UNL     1       4.739   1.314  -0.036  0.00  0.00    -0.013 A 
ATOM      8  C   UNL     1       4.391   0.006  -0.040  0.00  0.00    +0.022 A 
ATOM      9  S   UNL     1       2.623   0.009  -0.024  0.00  0.00    -0.075 S 
ATOM     10  C   UNL     1       2.347   1.720  -0.011  0.00  0.00    +0.089 A 
ATOM     11  C   UNL     1       3.631   2.249  -0.026  0.00  0.00    +0.084 A 
ATOM     12  C   UNL     1       5.334  -1.156  -0.053  0.00  0.00    +0.203 C 
ATOM     13  O   UNL     1       6.646  -0.663   0.262  0.00  0.00    -0.368 OA
ATOM     14  C   UNL     1       6.757   0.221  -1.981  0.00  0.00    +0.042 C 
BRANCH   5  16
ATOM     15  C   UNL     1       9.332  -0.398  -0.855  0.00  0.00    +0.007 C 
ATOM     16  C   UNL     1       8.513   0.766  -0.292  0.00  0.00    +0.032 C 
ENDBRANCH   5  16
BRANCH  11  17
ATOM     17  C   UNL     1       3.852   3.664  -0.028  0.00  0.00    +0.102 C 
ATOM     18  N   UNL     1       4.028   4.786  -0.029  0.00  0.00    -0.191 NA
ENDBRANCH  11  17
ENDBRANCH   3  10
ENDBRANCH   1   3
BRANCH   1  19
ATOM     19  N   UNL     1      -1.197   2.366   0.021  0.00  0.00    -0.290 N 
ATOM     20  H   UNL     1      -1.210   3.336   0.026  0.00  0.00    +0.154 HD
BRANCH  19  21
ATOM     21  C   UNL     1      -2.389   1.656   0.022  0.00  0.00    +0.089 A 
ATOM     22  C   UNL     1      -3.687   2.150   0.037  0.00  0.00    +0.084 A 
ATOM     23  C   UNL     1      -4.769   1.185   0.031  0.00  0.00    -0.013 A 
ATOM     24  C   UNL     1      -4.386  -0.113   0.022  0.00  0.00    +0.022 A 
ATOM     25  S   UNL     1      -2.619  -0.062   0.015  0.00  0.00    -0.075 S 
ATOM     26  C   UNL     1      -5.296  -1.301   0.018  0.00  0.00    +0.203 C 
ATOM     27  O   UNL     1      -6.620  -0.840  -0.298  0.00  0.00    -0.368 OA
ATOM     28  C   UNL     1      -7.032   0.291   0.473  0.00  0.00    +0.071 C 
ATOM     29  C   UNL     1      -6.252   1.537   0.040  0.00  0.00    +0.072 C 
ATOM     30  C   UNL     1      -6.766   0.016   1.954  0.00  0.00    +0.042 C 
BRANCH  28  31
ATOM     31  C   UNL     1      -8.528   0.532   0.262  0.00  0.00    +0.032 C 
ATOM     32  C   UNL     1      -9.318  -0.660   0.808  0.00  0.00    +0.007 C 
ENDBRANCH  28  31
BRANCH  22  33
ATOM     33  C   UNL     1      -3.946   3.558   0.053  0.00  0.00    +0.102 C 
ATOM     34  N   UNL     1      -4.152   4.675   0.066  0.00  0.00    -0.191 NA
ENDBRANCH  22  33
ENDBRANCH  19  21
ENDBRANCH   1  19
TORSDOF 8
