REMARK  Name = ZINC35926704
REMARK  10 active torsions:
REMARK  status: ('A' for Active; 'I' for Inactive)
REMARK    1  A    between atoms: C_1  and  C_2
REMARK    2  A    between atoms: C_2  and  C_3
REMARK    3  A    between atoms: C_3  and  C_4
REMARK    4  A    between atoms: C_4  and  C_5
REMARK    5  A    between atoms: C_5  and  C_7
REMARK    6  A    between atoms: C_5  and  C_9
REMARK    7  A    between atoms: C_7  and  C_8
REMARK    8  A    between atoms: C_24  and  C_26
REMARK    9  A    between atoms: C_26  and  N_27
REMARK   10  A    between atoms: N_30  and  C_33
REMARK                            x       y       z     vdW  Elec       q    Type
REMARK                         _______ _______ _______ _____ _____    ______ ____
ROOT
ATOM      1  C   UNL     1      -2.863  -3.971  -0.125  0.00  0.00    +0.219 C 
ATOM      2  O   UNL     1      -1.819  -4.541   0.112  0.00  0.00    -0.275 OA
ATOM      3  N   UNL     1      -3.969  -4.684  -0.418  0.00  0.00    -0.300 N 
ATOM      4  C   UNL     1      -3.830  -6.135  -0.546  0.00  0.00    +0.109 C 
ATOM      5  C   UNL     1      -4.245  -6.763   0.768  0.00  0.00    +0.038 C 
ATOM      6  C   UNL     1      -5.759  -6.994   0.794  0.00  0.00    +0.109 C 
ATOM      7  N   UNL     1      -6.511  -5.871   0.214  0.00  0.00    -0.300 N 
ATOM      8  C   UNL     1      -6.199  -4.479   0.485  0.00  0.00    +0.127 C 
ATOM      9  C   UNL     1      -5.191  -3.975  -0.577  0.00  0.00    +0.126 C 
ATOM     10  C   UNL     1      -7.557  -6.152  -0.623  0.00  0.00    +0.199 A 
ATOM     11  N   UNL     1      -8.264  -5.130  -1.175  0.00  0.00    -0.295 N 
ATOM     12  H   UNL     1      -8.027  -4.210  -0.976  0.00  0.00    +0.172 HD
ATOM     13  C   UNL     1      -9.297  -5.399  -2.002  0.00  0.00    +0.253 A 
ATOM     14  O   UNL     1      -9.942  -4.494  -2.507  0.00  0.00    -0.268 OA
ATOM     15  C   UNL     1      -9.616  -6.742  -2.271  0.00  0.00    +0.094 A 
ATOM     16  C   UNL     1      -8.871  -7.725  -1.688  0.00  0.00    +0.064 A 
ATOM     17  N   UNL     1      -7.859  -7.408  -0.884  0.00  0.00    -0.219 NA
ENDROOT
BRANCH   1  18
ATOM     18  C   UNL     1      -2.925  -2.466  -0.090  0.00  0.00    +0.075 C 
BRANCH  18  19
ATOM     19  C   UNL     1      -1.530  -1.893  -0.351  0.00  0.00    +0.009 C 
ATOM     20  C   UNL     1      -1.092  -2.244  -1.774  0.00  0.00    +0.004 C 
ENDBRANCH  18  19
BRANCH  18  21
ATOM     21  C   UNL     1      -3.416  -2.006   1.284  0.00  0.00    +0.013 C 
BRANCH  21  22
ATOM     22  C   UNL     1      -3.597  -0.487   1.279  0.00  0.00    +0.000 C 
BRANCH  22  24
ATOM     23  C   UNL     1      -4.270   1.491   2.648  0.00  0.00    +0.004 C 
ATOM     24  C   UNL     1      -4.089  -0.028   2.653  0.00  0.00    -0.003 C 
ENDBRANCH  22  24
ENDBRANCH  21  22
ENDBRANCH  18  21
ENDBRANCH   1  18
BRANCH  16  25
ATOM     25  C   UNL     1      -9.191  -9.173  -1.960  0.00  0.00    +0.140 C 
BRANCH  25  26
ATOM     26  N   UNL     1      -8.072  -9.795  -2.680  0.00  0.00    -0.300 NA
ATOM     27  C   UNL     1      -7.923  -9.217  -4.023  0.00  0.00    +0.066 C 
ATOM     28  C   UNL     1      -6.714  -9.848  -4.716  0.00  0.00    -0.063 C 
ATOM     29  N   UNL     1      -6.905 -11.301  -4.808  0.00  0.00    +0.383 N 
ATOM     30  C   UNL     1      -7.027 -11.867  -3.458  0.00  0.00    -0.063 C 
ATOM     31  C   UNL     1      -8.239 -11.253  -2.755  0.00  0.00    +0.066 C 
ATOM     32  H   UNL     1      -7.745 -11.497  -5.332  0.00  0.00    -0.081 HD
BRANCH  29  33
ATOM     33  C   UNL     1      -5.752 -11.905  -5.489  0.00  0.00    -0.068 C 
ATOM     34  C   UNL     1      -5.626 -11.317  -6.896  0.00  0.00    -0.015 C 
ATOM     35  C   UNL     1      -4.425 -11.945  -7.606  0.00  0.00    -0.002 C 
ATOM     36  C   UNL     1      -4.623 -13.459  -7.702  0.00  0.00    -0.000 C 
ATOM     37  C   UNL     1      -4.750 -14.047  -6.295  0.00  0.00    -0.002 C 
ATOM     38  C   UNL     1      -5.951 -13.419  -5.585  0.00  0.00    -0.015 C 
ENDBRANCH  29  33
ENDBRANCH  25  26
ENDBRANCH  16  25
TORSDOF 8
