REMARK  Name = ZINC22531257
REMARK  7 active torsions:
REMARK  status: ('A' for Active; 'I' for Inactive)
REMARK    1  A    between atoms: C_1  and  C_2
REMARK    2  A    between atoms: C_2  and  C_4
REMARK    3  A    between atoms: C_2  and  S_16
REMARK    4  A    between atoms: N_6  and  C_7
REMARK    5  A    between atoms: C_10  and  C_13
REMARK    6  A    between atoms: S_16  and  C_17
REMARK    7  A    between atoms: N_27  and  C_28
REMARK                            x       y       z     vdW  Elec       q    Type
REMARK                         _______ _______ _______ _____ _____    ______ ____
ROOT
ATOM      1  S   UNL     1       3.994  -4.886   0.329  0.00  0.00    -0.075 S 
ENDROOT
BRANCH   1   2
ATOM      2  C   UNL     1       3.680  -6.616   0.222  0.00  0.00    +0.177 A 
ATOM      3  N   UNL     1       2.507  -7.013  -0.207  0.00  0.00    -0.223 NA
ATOM      4  C   UNL     1       2.200  -8.322  -0.314  0.00  0.00    +0.079 A 
ATOM      5  C   UNL     1       0.948  -8.745  -0.771  0.00  0.00    +0.028 A 
ATOM      6  C   UNL     1       0.678 -10.081  -0.864  0.00  0.00    +0.002 A 
ATOM      7  C   UNL     1       1.630 -11.028  -0.509  0.00  0.00    +0.001 A 
ATOM      8  C   UNL     1       2.863 -10.646  -0.058  0.00  0.00    +0.015 A 
ATOM      9  C   UNL     1       3.166  -9.289   0.046  0.00  0.00    +0.065 A 
ATOM     10  C   UNL     1       4.473  -8.820   0.524  0.00  0.00    +0.267 A 
ATOM     11  O   UNL     1       5.345  -9.605   0.848  0.00  0.00    -0.267 OA
ATOM     12  N   UNL     1       4.673  -7.483   0.586  0.00  0.00    -0.254 N 
BRANCH  12  13
ATOM     13  C   UNL     1       5.904  -6.984   1.031  0.00  0.00    +0.070 A 
ATOM     14  C   UNL     1       6.104  -6.726   2.381  0.00  0.00    +0.028 A 
ATOM     15  C   UNL     1       7.321  -6.239   2.817  0.00  0.00    +0.002 A 
ATOM     16  C   UNL     1       8.336  -5.997   1.910  0.00  0.00    +0.002 A 
ATOM     17  C   UNL     1       8.140  -6.247   0.564  0.00  0.00    +0.022 A 
ATOM     18  C   UNL     1       6.926  -6.740   0.122  0.00  0.00    +0.065 A 
ATOM     19 CL   UNL     1       6.680  -7.054  -1.568  0.00  0.00    -0.081 Cl
ENDBRANCH  12  13
ENDBRANCH   1   2
BRANCH   1  21
ATOM     20  C   UNL     1       2.207  -4.636  -1.723  0.00  0.00    +0.029 C 
ATOM     21  C   UNL     1       2.408  -4.242  -0.258  0.00  0.00    +0.137 C 
BRANCH  21  22
ATOM     22  C   UNL     1       2.400  -2.740  -0.137  0.00  0.00    +0.230 C 
ATOM     23  O   UNL     1       3.445  -2.125  -0.144  0.00  0.00    -0.274 OA
ATOM     24  N   UNL     1       1.231  -2.079  -0.020  0.00  0.00    -0.285 N 
ATOM     25  H   UNL     1       0.288  -2.640   0.062  0.00  0.00    +0.155 HD
BRANCH  24  26
ATOM     26  C   UNL     1       1.216  -0.685  -0.004  0.00  0.00    +0.033 A 
ATOM     27  C   UNL     1       2.255   0.013   0.603  0.00  0.00    +0.024 A 
ATOM     28  C   UNL     1       2.244   1.390   0.620  0.00  0.00    +0.015 A 
ATOM     29  C   UNL     1       1.188   2.086   0.026  0.00  0.00    +0.037 A 
ATOM     30  C   UNL     1       0.146   1.382  -0.583  0.00  0.00    +0.015 A 
ATOM     31  C   UNL     1       0.163   0.005  -0.596  0.00  0.00    +0.024 A 
BRANCH  29  32
ATOM     32  C   UNL     1       1.173   3.562   0.043  0.00  0.00    +0.242 C 
ATOM     33  O   UNL     1       2.080   4.173   0.574  0.00  0.00    -0.270 OA
ATOM     34  N   UNL     1       0.153   4.232  -0.530  0.00  0.00    -0.325 N 
ATOM     35  H   UNL     1       0.141   5.332  -0.517  0.00  0.00    +0.145 HD
ATOM     36  H   UNL     1      -0.668   3.679  -1.010  0.00  0.00    +0.145 HD
ENDBRANCH  29  32
ENDBRANCH  24  26
ENDBRANCH  21  22
ENDBRANCH   1  21
TORSDOF 6
