REMARK  Name = ZINC23135116
REMARK  7 active torsions:
REMARK  status: ('A' for Active; 'I' for Inactive)
REMARK    1  A    between atoms: C_1  and  O_2
REMARK    2  A    between atoms: O_2  and  C_3
REMARK    3  A    between atoms: C_6  and  N_9
REMARK    4  A    between atoms: C_10  and  C_14
REMARK    5  A    between atoms: C_14  and  N_15
REMARK    6  A    between atoms: N_18  and  S_21
REMARK    7  A    between atoms: S_21  and  C_24
REMARK                            x       y       z     vdW  Elec       q    Type
REMARK                         _______ _______ _______ _____ _____    ______ ____
ROOT
ATOM      1  C   UNL     1       3.553   0.450  -0.152  0.00  0.00    +0.162 C 
ENDROOT
BRANCH   1   2
ATOM      2  N   UNL     1       3.956   0.325  -1.559  0.00  0.00    -0.293 NA
ATOM      3  C   UNL     1       3.473  -0.938  -2.134  0.00  0.00    +0.102 C 
ATOM      4  C   UNL     1       3.754  -0.950  -3.640  0.00  0.00    +0.125 C 
ATOM      5  N   UNL     1       5.184  -0.677  -3.851  0.00  0.00    -0.174 NA
ATOM      6  C   UNL     1       5.773   0.498  -3.192  0.00  0.00    +0.125 C 
ATOM      7  C   UNL     1       5.412   0.453  -1.703  0.00  0.00    +0.102 C 
BRANCH   5   8
ATOM      8  S   UNL     1       6.106  -1.668  -4.804  0.00  0.00    +0.067 S 
ATOM      9  O   UNL     1       5.213  -2.317  -5.699  0.00  0.00    -0.152 OA
ATOM     10  O   UNL     1       7.205  -0.889  -5.256  0.00  0.00    -0.152 OA
BRANCH   8  11
ATOM     11  C   UNL     1       6.773  -2.922  -3.761  0.00  0.00    +0.143 A 
ATOM     12  C   UNL     1       6.251  -4.131  -3.439  0.00  0.00    +0.036 A 
ATOM     13  C   UNL     1       6.961  -4.963  -2.594  0.00  0.00    +0.010 A 
ATOM     14  C   UNL     1       8.153  -4.542  -2.105  0.00  0.00    +0.047 A 
ATOM     15  S   UNL     1       8.307  -2.927  -2.849  0.00  0.00    -0.077 S 
ENDBRANCH   8  11
ENDBRANCH   5   8
ENDBRANCH   1   2
BRANCH   1  17
ATOM     16  N   UNL     1       1.334   1.703  -0.024  0.00  0.00    -0.196 N 
ATOM     17  C   UNL     1       2.052   0.560  -0.067  0.00  0.00    +0.170 A 
ATOM     18  N   UNL     1       1.204  -0.433  -0.021  0.00  0.00    -0.112 NA
ATOM     19  N   UNL     1      -0.002   0.004   0.049  0.00  0.00    -0.023 NA
ATOM     20  N   UNL     1      -0.008   1.293   0.052  0.00  0.00    -0.039 NA
BRANCH  16  24
ATOM     21  C   UNL     1       2.789   5.613  -0.101  0.00  0.00    +0.120 A 
ATOM     22  C   UNL     1       3.333   4.653  -0.942  0.00  0.00    +0.048 A 
ATOM     23  C   UNL     1       2.853   3.359  -0.917  0.00  0.00    +0.031 A 
ATOM     24  C   UNL     1       1.824   3.018  -0.050  0.00  0.00    +0.069 A 
ATOM     25  C   UNL     1       1.275   3.980   0.788  0.00  0.00    +0.031 A 
ATOM     26  C   UNL     1       1.760   5.272   0.766  0.00  0.00    +0.048 A 
BRANCH  21  28
ATOM     27  C   UNL     1       2.655   7.822   0.767  0.00  0.00    +0.277 C 
ATOM     28  O   UNL     1       3.262   6.887  -0.126  0.00  0.00    -0.495 OA
ENDBRANCH  21  28
ENDBRANCH  16  24
ENDBRANCH   1  17
TORSDOF 6
