REMARK  Name = ZINC08816813
REMARK  9 active torsions:
REMARK  status: ('A' for Active; 'I' for Inactive)
REMARK    1  A    between atoms: C_1  and  C_2
REMARK    2  A    between atoms: C_4  and  C_33
REMARK    3  A    between atoms: C_5  and  N_9
REMARK    4  A    between atoms: C_6  and  C_8
REMARK    5  A    between atoms: N_9  and  C_10
REMARK    6  A    between atoms: C_11  and  C_12
REMARK    7  A    between atoms: C_11  and  C_14
REMARK    8  A    between atoms: C_16  and  C_19
REMARK    9  A    between atoms: C_23  and  N_30
REMARK                            x       y       z     vdW  Elec       q    Type
REMARK                         _______ _______ _______ _____ _____    ______ ____
ROOT
ATOM      1  C   UNL     1      -4.878  -3.034  -1.283  0.00  0.00    +0.120 A 
ATOM      2  N   UNL     1      -3.690  -2.484  -1.552  0.00  0.00    -0.238 NA
ATOM      3  C   UNL     1      -3.607  -1.321  -2.133  0.00  0.00    +0.086 A 
ATOM      4  C   UNL     1      -4.886  -0.661  -2.482  0.00  0.00    +0.075 A 
ATOM      5  S   UNL     1      -6.036  -1.829  -1.907  0.00  0.00    -0.074 S 
ENDROOT
BRANCH   3   6
ATOM      6  C   UNL     1      -2.314  -0.700  -2.430  0.00  0.00    +0.086 A 
ATOM      7  C   UNL     1      -1.122  -1.341  -2.091  0.00  0.00    +0.028 A 
ATOM      8  C   UNL     1       0.101  -0.703  -2.398  0.00  0.00    +0.020 A 
ATOM      9  C   UNL     1       1.321  -1.321  -2.070  0.00  0.00    +0.044 A 
ATOM     10  C   UNL     1       2.498  -0.699  -2.368  0.00  0.00    +0.127 A 
ATOM     11  C   UNL     1       2.501   0.541  -2.993  0.00  0.00    +0.036 A 
ATOM     12  C   UNL     1       1.317   1.166  -3.324  0.00  0.00    +0.049 A 
ATOM     13  C   UNL     1       0.103   0.556  -3.033  0.00  0.00    +0.139 A 
ATOM     14  O   UNL     1      -1.053   1.174  -3.354  0.00  0.00    -0.422 OA
ATOM     15  C   UNL     1      -2.246   0.614  -3.093  0.00  0.00    +0.347 A 
ATOM     16  O   UNL     1      -3.270   1.193  -3.399  0.00  0.00    -0.244 OA
BRANCH  10  17
ATOM     17  N   UNL     1       3.781  -1.351  -2.022  0.00  0.00    +0.056 N 
ATOM     18  O   UNL     1       3.783  -2.527  -1.429  0.00  0.00    -0.126 OA
ATOM     19  O   UNL     1       4.920  -0.755  -2.307  0.00  0.00    -0.126 OA
ENDBRANCH  10  17
ENDBRANCH   3   6
BRANCH   1  21
ATOM     20  C   UNL     1      -6.483  -4.678  -0.471  0.00  0.00    +0.093 C 
ATOM     21  C   UNL     1      -5.149  -4.265  -0.664  0.00  0.00    +0.098 C 
BRANCH  20  22
ATOM     22  N   UNL     1      -6.740  -5.848   0.117  0.00  0.00    -0.319 N 
ATOM     23  H   UNL     1      -6.015  -6.375   0.488  0.00  0.00    +0.152 HD
BRANCH  22  28
ATOM     24  C   UNL     1     -12.071  -7.741   0.448  0.00  0.00    +0.044 C 
ATOM     25  C   UNL     1     -10.653  -7.238   0.360  0.00  0.00    -0.050 A 
ATOM     26  C   UNL     1      -9.626  -8.118   0.069  0.00  0.00    +0.008 A 
ATOM     27  C   UNL     1      -8.326  -7.661  -0.012  0.00  0.00    -0.029 A 
ATOM     28  C   UNL     1      -8.050  -6.313   0.198  0.00  0.00    +0.037 A 
ATOM     29  C   UNL     1      -9.085  -5.433   0.496  0.00  0.00    -0.029 A 
ATOM     30  C   UNL     1     -10.383  -5.897   0.569  0.00  0.00    +0.008 A 
ATOM     31  C   UNL     1      -8.791  -3.974   0.731  0.00  0.00    +0.045 C 
ATOM     32  C   UNL     1      -7.207  -8.620  -0.329  0.00  0.00    +0.045 C 
ENDBRANCH  22  28
ENDBRANCH  20  22
BRANCH  21  33
ATOM     33  C   UNL     1      -4.070  -5.100  -0.229  0.00  0.00    +0.103 C 
ATOM     34  N   UNL     1      -3.214  -5.763   0.117  0.00  0.00    -0.191 NA
ENDBRANCH  21  33
ENDBRANCH   1  21
TORSDOF 6
