REMARK  Name = ZINC00936892
REMARK  6 active torsions:
REMARK  status: ('A' for Active; 'I' for Inactive)
REMARK    1  A    between atoms: C_1  and  C_2
REMARK    2  A    between atoms: C_3  and  C_28
REMARK    3  A    between atoms: C_4  and  C_12
REMARK    4  A    between atoms: C_15  and  O_18
REMARK    5  A    between atoms: O_18  and  C_19
REMARK    6  A    between atoms: C_19  and  C_20
REMARK                            x       y       z     vdW  Elec       q    Type
REMARK                         _______ _______ _______ _____ _____    ______ ____
ROOT
ATOM      1  C   UNL     1       0.459   1.363  -0.001  0.00  0.00    +0.066 C 
ATOM      2  C   UNL     1       0.266  -0.132   0.025  0.00  0.00    +0.052 C 
ATOM      3  C   UNL     1      -1.003  -0.636   0.005  0.00  0.00    +0.061 C 
ATOM      4  C   UNL     1      -1.149  -2.148   0.033  0.00  0.00    +0.164 C 
ATOM      5  N   UNL     1       0.101  -2.915   0.079  0.00  0.00    -0.208 N 
ATOM      6  C   UNL     1       1.297  -2.238   0.093  0.00  0.00    +0.237 C 
ATOM      7  N   UNL     1       1.333  -0.917   0.061  0.00  0.00    -0.218 NA
ATOM      8  N   UNL     1       2.273  -3.164   0.136  0.00  0.00    -0.205 NA
ATOM      9  C   UNL     1       1.758  -4.366   0.148  0.00  0.00    +0.203 C 
ATOM     10  N   UNL     1       0.408  -4.277   0.114  0.00  0.00    -0.251 N 
ATOM     11  H   UNL     1      -0.222  -5.014   0.114  0.00  0.00    +0.171 HD
ENDROOT
BRANCH   4  12
ATOM     12  C   UNL     1      -1.967  -2.519   1.242  0.00  0.00    -0.021 A 
ATOM     13  C   UNL     1      -1.433  -2.370   2.509  0.00  0.00    +0.009 A 
ATOM     14  C   UNL     1      -2.182  -2.710   3.620  0.00  0.00    +0.046 A 
ATOM     15  C   UNL     1      -3.470  -3.201   3.463  0.00  0.00    +0.121 A 
ATOM     16  C   UNL     1      -4.003  -3.350   2.191  0.00  0.00    +0.046 A 
ATOM     17  C   UNL     1      -3.253  -3.003   1.084  0.00  0.00    +0.009 A 
BRANCH  15  18
ATOM     18  O   UNL     1      -4.208  -3.537   4.554  0.00  0.00    -0.487 OA
BRANCH  18  19
ATOM     19  C   UNL     1      -5.526  -4.036   4.317  0.00  0.00    +0.267 C 
BRANCH  19  20
ATOM     20  C   UNL     1      -6.187  -4.352   5.633  0.00  0.00    +0.026 A 
ATOM     21  C   UNL     1      -6.054  -5.612   6.190  0.00  0.00    +0.049 A 
ATOM     22  C   UNL     1      -6.662  -5.902   7.398  0.00  0.00    +0.020 A 
ATOM     23  C   UNL     1      -7.402  -4.933   8.050  0.00  0.00    +0.003 A 
ATOM     24  C   UNL     1      -7.535  -3.674   7.495  0.00  0.00    +0.020 A 
ATOM     25  C   UNL     1      -6.923  -3.381   6.289  0.00  0.00    +0.049 A 
ATOM     26 CL   UNL     1      -7.083  -1.798   5.596  0.00  0.00    -0.083 Cl
ATOM     27 CL   UNL     1      -5.126  -6.829   5.371  0.00  0.00    -0.083 Cl
ENDBRANCH  19  20
ENDBRANCH  18  19
ENDBRANCH  15  18
ENDBRANCH   4  12
BRANCH   3  28
ATOM     28  C   UNL     1      -2.128   0.208  -0.039  0.00  0.00    +0.241 C 
ATOM     29  O   UNL     1      -1.988   1.415   0.056  0.00  0.00    -0.271 OA
ATOM     30  N   UNL     1      -3.360  -0.318  -0.185  0.00  0.00    -0.325 N 
ATOM     31  H   UNL     1      -3.479  -1.281  -0.190  0.00  0.00    +0.145 HD
ATOM     32  H   UNL     1      -4.128   0.266  -0.285  0.00  0.00    +0.145 HD
ENDBRANCH   3  28
TORSDOF 5
