REMARK  Name = ZINC11416126
REMARK  8 active torsions:
REMARK  status: ('A' for Active; 'I' for Inactive)
REMARK    1  A    between atoms: C_1  and  C_2
REMARK    2  A    between atoms: C_2  and  C_4
REMARK    3  A    between atoms: C_2  and  N_67
REMARK    4  A    between atoms: C_7  and  S_16
REMARK    5  A    between atoms: N_8  and  C_9
REMARK    6  A    between atoms: S_16  and  C_17
REMARK    7  A    between atoms: C_17  and  C_19
REMARK    8  A    between atoms: C_17  and  C_20
REMARK                            x       y       z     vdW  Elec       q    Type
REMARK                         _______ _______ _______ _____ _____    ______ ____
ROOT
ATOM      1  C   UNL     1      -0.127   2.033   0.066  0.00  0.00    +0.125 A 
ATOM      2  N   UNL     1      -0.080   0.731   0.043  0.00  0.00    -0.135 NA
ATOM      3  N   UNL     1       1.107   0.325   0.323  0.00  0.00    -0.122 NA
ATOM      4  C   UNL     1       1.891   1.355   0.542  0.00  0.00    +0.197 A 
ATOM      5  N   UNL     1       1.128   2.479   0.385  0.00  0.00    -0.275 N 
ENDROOT
BRANCH   5   6
ATOM      6  C   UNL     1       1.545   3.812   0.522  0.00  0.00    +0.050 A 
ATOM      7  C   UNL     1       1.545   4.657  -0.580  0.00  0.00    +0.029 A 
ATOM      8  C   UNL     1       1.950   5.970  -0.443  0.00  0.00    +0.040 A 
ATOM      9  C   UNL     1       2.366   6.442   0.791  0.00  0.00    +0.124 A 
ATOM     10  C   UNL     1       2.371   5.599   1.890  0.00  0.00    +0.040 A 
ATOM     11  C   UNL     1       1.962   4.287   1.758  0.00  0.00    +0.029 A 
ATOM     12  F   UNL     1       2.766   7.725   0.923  0.00  0.00    -0.205 F 
ENDBRANCH   5   6
BRANCH   1  14
ATOM     13  C   UNL     1      -1.646   2.860  -1.710  0.00  0.00    -0.005 C 
ATOM     14  C   UNL     1      -1.335   2.888  -0.212  0.00  0.00    -0.002 C 
BRANCH  14  20
ATOM     15  C   UNL     1      -3.680   3.192   0.308  0.00  0.00    -0.078 C 
ATOM     16  C   UNL     1      -4.889   2.541   0.983  0.00  0.00    -0.019 C 
ATOM     17  C   UNL     1      -4.619   2.407   2.484  0.00  0.00    -0.004 C 
ATOM     18  C   UNL     1      -3.344   1.585   2.693  0.00  0.00    -0.019 C 
ATOM     19  C   UNL     1      -2.180   2.264   1.969  0.00  0.00    -0.078 C 
ATOM     20  N   UNL     1      -2.492   2.340   0.526  0.00  0.00    +0.386 N 
ATOM     21  H   UNL     1      -2.692   1.395   0.178  0.00  0.00    -0.081 HD
ENDBRANCH  14  20
ENDBRANCH   1  14
BRANCH   4  22
ATOM     22  S   UNL     1       3.603   1.300   0.958  0.00  0.00    -0.073 S 
BRANCH  22  23
ATOM     23  C   UNL     1       3.864  -0.491   0.975  0.00  0.00    +0.137 C 
ATOM     24  C   UNL     1       3.042  -1.116   2.104  0.00  0.00    +0.029 C 
BRANCH  23  25
ATOM     25  C   UNL     1       5.326  -0.784   1.196  0.00  0.00    +0.233 C 
ATOM     26  O   UNL     1       6.022   0.018   1.782  0.00  0.00    -0.274 OA
ATOM     27  N   UNL     1       5.859  -1.936   0.744  0.00  0.00    -0.270 N 
ATOM     28  C   UNL     1       5.002  -2.977   0.160  0.00  0.00    +0.114 C 
ATOM     29  C   UNL     1       5.439  -4.326   0.733  0.00  0.00    +0.024 C 
ATOM     30  C   UNL     1       6.879  -4.606   0.302  0.00  0.00    +0.038 C 
ATOM     31  C   UNL     1       7.764  -3.431   0.625  0.00  0.00    -0.026 A 
ATOM     32  C   UNL     1       7.239  -2.164   0.828  0.00  0.00    +0.039 A 
ATOM     33  C   UNL     1       8.085  -1.099   1.119  0.00  0.00    +0.024 A 
ATOM     34  C   UNL     1       9.447  -1.304   1.208  0.00  0.00    +0.002 A 
ATOM     35  C   UNL     1       9.970  -2.568   1.009  0.00  0.00    +0.000 A 
ATOM     36  C   UNL     1       9.131  -3.627   0.718  0.00  0.00    +0.005 A 
ENDBRANCH  23  25
ENDBRANCH  22  23
ENDBRANCH   4  22
TORSDOF 6
