REMARK  Name = ZINC09601126
REMARK  14 active torsions:
REMARK  status: ('A' for Active; 'I' for Inactive)
REMARK    1  A    between atoms: C_1  and  C_2
REMARK    2  A    between atoms: C_2  and  N_3
REMARK    3  A    between atoms: C_4  and  C_21
REMARK    4  A    between atoms: C_7  and  S_8
REMARK    5  A    between atoms: S_8  and  C_9
REMARK    6  A    between atoms: C_9  and  C_10
REMARK    7  A    between atoms: N_12  and  C_13
REMARK    8  A    between atoms: C_18  and  C_19
REMARK    9  A    between atoms: C_21  and  C_23
REMARK   10  A    between atoms: C_21  and  N_26
REMARK   11  A    between atoms: C_23  and  C_24
REMARK   12  A    between atoms: C_23  and  C_25
REMARK   13  A    between atoms: C_27  and  C_29
REMARK   14  A    between atoms: C_34  and  C_35
REMARK                            x       y       z     vdW  Elec       q    Type
REMARK                         _______ _______ _______ _____ _____    ______ ____
ROOT
ATOM      1  N   UNL     1      -0.979   2.597   3.308  0.00  0.00    -0.305 N 
ATOM      2  C   UNL     1      -1.572   2.312   2.109  0.00  0.00    +0.155 A 
ATOM      3  N   UNL     1      -2.861   2.345   2.296  0.00  0.00    -0.132 NA
ATOM      4  N   UNL     1      -3.122   2.634   3.522  0.00  0.00    -0.122 NA
ATOM      5  C   UNL     1      -2.003   2.802   4.188  0.00  0.00    +0.192 A 
ENDROOT
BRANCH   1   7
ATOM      6  C   UNL     1       0.950   4.100   3.358  0.00  0.00    +0.027 C 
ATOM      7  C   UNL     1       0.457   2.670   3.590  0.00  0.00    +0.122 C 
ENDBRANCH   1   7
BRANCH   5   8
ATOM      8  S   UNL     1      -1.852   3.209   5.896  0.00  0.00    -0.077 S 
BRANCH   8   9
ATOM      9  C   UNL     1      -3.601   3.302   6.352  0.00  0.00    +0.173 C 
BRANCH   9  10
ATOM     10  C   UNL     1      -3.721   3.648   7.814  0.00  0.00    +0.227 C 
ATOM     11  O   UNL     1      -2.722   3.815   8.482  0.00  0.00    -0.275 OA
ATOM     12  N   UNL     1      -4.938   3.772   8.380  0.00  0.00    -0.285 N 
ATOM     13  H   UNL     1      -5.735   3.571   7.865  0.00  0.00    +0.155 HD
BRANCH  12  14
ATOM     14  C   UNL     1      -5.051   4.191   9.710  0.00  0.00    +0.038 A 
ATOM     15  C   UNL     1      -4.072   3.848  10.634  0.00  0.00    +0.023 A 
ATOM     16  C   UNL     1      -4.186   4.263  11.946  0.00  0.00    +0.003 A 
ATOM     17  C   UNL     1      -5.274   5.020  12.342  0.00  0.00    +0.020 A 
ATOM     18  C   UNL     1      -6.252   5.364  11.424  0.00  0.00    +0.046 A 
ATOM     19  C   UNL     1      -6.140   4.955  10.108  0.00  0.00    -0.011 A 
ATOM     20  C   UNL     1      -7.201   5.335   9.108  0.00  0.00    +0.047 C 
ATOM     21 CL   UNL     1      -7.615   6.314  11.925  0.00  0.00    -0.083 Cl
ENDBRANCH  12  14
ENDBRANCH   9  10
ENDBRANCH   8   9
ENDBRANCH   5   8
BRANCH   2  22
ATOM     22  C   UNL     1      -0.866   2.010   0.813  0.00  0.00    +0.144 C 
BRANCH  22  23
ATOM     23  N   UNL     1      -1.507   2.749  -0.277  0.00  0.00    -0.301 N 
ATOM     24  C   UNL     1      -0.807   3.056  -1.387  0.00  0.00    +0.245 C 
ATOM     25  O   UNL     1       0.356   2.718  -1.484  0.00  0.00    -0.270 OA
ATOM     26  H   UNL     1      -2.436   3.019  -0.199  0.00  0.00    +0.150 HD
BRANCH  24  27
ATOM     27  C   UNL     1      -1.455   3.802  -2.487  0.00  0.00    +0.040 A 
ATOM     28  C   UNL     1      -2.824   4.070  -2.441  0.00  0.00    +0.013 A 
ATOM     29  C   UNL     1      -3.422   4.771  -3.468  0.00  0.00    +0.001 A 
ATOM     30  C   UNL     1      -2.669   5.197  -4.548  0.00  0.00    +0.000 A 
ATOM     31  C   UNL     1      -1.312   4.930  -4.602  0.00  0.00    +0.004 A 
ATOM     32  C   UNL     1      -0.702   4.235  -3.579  0.00  0.00    -0.038 A 
ATOM     33  C   UNL     1       0.776   3.944  -3.640  0.00  0.00    +0.044 C 
ENDBRANCH  24  27
ENDBRANCH  22  23
BRANCH  22  34
ATOM     34  C   UNL     1      -0.944   0.509   0.527  0.00  0.00    +0.011 C 
ATOM     35  C   UNL     1      -0.227   0.203  -0.789  0.00  0.00    +0.009 C 
ATOM     36  C   UNL     1      -0.274  -0.263   1.665  0.00  0.00    +0.009 C 
ENDBRANCH  22  34
ENDBRANCH   2  22
TORSDOF 9
