REMARK  Name = ZINC39839764
REMARK  9 active torsions:
REMARK  status: ('A' for Active; 'I' for Inactive)
REMARK    1  A    between atoms: C_1  and  O_2
REMARK    2  A    between atoms: O_2  and  C_3
REMARK    3  A    between atoms: C_6  and  C_9
REMARK    4  A    between atoms: C_9  and  C_10
REMARK    5  A    between atoms: C_10  and  N_11
REMARK    6  A    between atoms: C_12  and  C_28
REMARK    7  A    between atoms: C_31  and  O_34
REMARK    8  A    between atoms: O_34  and  C_35
REMARK    9  A    between atoms: C_35  and  C_36
REMARK                            x       y       z     vdW  Elec       q    Type
REMARK                         _______ _______ _______ _____ _____    ______ ____
ROOT
ATOM      1  N   UNL     1       2.249  -3.470   6.551  0.00  0.00    -0.283 N 
ATOM      2  C   UNL     1       2.396  -4.923   6.735  0.00  0.00    +0.144 C 
ATOM      3  C   UNL     1       3.146  -5.098   8.015  0.00  0.00    +0.072 A 
ATOM      4  C   UNL     1       3.580  -6.306   8.723  0.00  0.00    +0.199 A 
ATOM      5  O   UNL     1       3.520  -7.422   8.237  0.00  0.00    -0.287 OA
ATOM      6  C   UNL     1       4.100  -6.041  10.088  0.00  0.00    +0.066 A 
ATOM      7  C   UNL     1       4.365  -7.097  10.960  0.00  0.00    +0.035 A 
ATOM      8  C   UNL     1       4.842  -6.832  12.226  0.00  0.00    +0.042 A 
ATOM      9  C   UNL     1       5.056  -5.519  12.628  0.00  0.00    +0.023 A 
ATOM     10  C   UNL     1       4.800  -4.470  11.775  0.00  0.00    +0.048 A 
ATOM     11  C   UNL     1       4.319  -4.713  10.488  0.00  0.00    +0.140 A 
ATOM     12  O   UNL     1       4.085  -3.663   9.667  0.00  0.00    -0.450 OA
ATOM     13  C   UNL     1       3.410  -3.855   8.516  0.00  0.00    +0.199 A 
ATOM     14  C   UNL     1       2.848  -2.855   7.592  0.00  0.00    +0.283 C 
ATOM     15  O   UNL     1       2.911  -1.651   7.746  0.00  0.00    -0.267 OA
ATOM     16 CL   UNL     1       5.176  -8.139  13.318  0.00  0.00    -0.084 Cl
ENDROOT
BRANCH   2  17
ATOM     17  C   UNL     1       3.175  -5.516   5.590  0.00  0.00    -0.022 A 
ATOM     18  C   UNL     1       4.268  -4.843   5.076  0.00  0.00    +0.009 A 
ATOM     19  C   UNL     1       4.983  -5.385   4.025  0.00  0.00    +0.046 A 
ATOM     20  C   UNL     1       4.603  -6.605   3.486  0.00  0.00    +0.121 A 
ATOM     21  C   UNL     1       3.506  -7.279   4.003  0.00  0.00    +0.046 A 
ATOM     22  C   UNL     1       2.798  -6.736   5.057  0.00  0.00    +0.009 A 
BRANCH  20  23
ATOM     23  O   UNL     1       5.305  -7.140   2.452  0.00  0.00    -0.483 OA
BRANCH  23  24
ATOM     24  C   UNL     1       4.857  -8.399   1.946  0.00  0.00    +0.324 C 
BRANCH  24  25
ATOM     25  C   UNL     1       5.750  -8.831   0.812  0.00  0.00    +0.248 C 
ATOM     26  O   UNL     1       6.678  -8.129   0.469  0.00  0.00    -0.272 OA
ATOM     27  N   UNL     1       5.517  -9.997   0.177  0.00  0.00    -0.327 N 
ATOM     28  H   UNL     1       4.774 -10.559   0.451  0.00  0.00    +0.145 HD
ATOM     29  H   UNL     1       6.091 -10.275  -0.553  0.00  0.00    +0.145 HD
ENDBRANCH  24  25
ENDBRANCH  23  24
ENDBRANCH  20  23
ENDBRANCH   2  17
BRANCH   1  30
ATOM     30  C   UNL     1       1.577  -2.808   5.431  0.00  0.00    +0.114 C 
BRANCH  30  31
ATOM     31  C   UNL     1       2.587  -2.550   4.310  0.00  0.00    +0.054 C 
BRANCH  31  35
ATOM     32  C   UNL     1       0.626  -0.618   1.042  0.00  0.00    +0.120 A 
ATOM     33  C   UNL     1       1.202   0.138   2.051  0.00  0.00    +0.046 A 
ATOM     34  C   UNL     1       1.835  -0.488   3.107  0.00  0.00    +0.007 A 
ATOM     35  C   UNL     1       1.895  -1.869   3.158  0.00  0.00    -0.046 A 
ATOM     36  C   UNL     1       1.322  -2.625   2.152  0.00  0.00    +0.007 A 
ATOM     37  C   UNL     1       0.682  -2.003   1.098  0.00  0.00    +0.046 A 
BRANCH  32  39
ATOM     38  C   UNL     1      -0.017   1.425   0.010  0.00  0.00    +0.277 C 
ATOM     39  O   UNL     1       0.002  -0.004   0.002  0.00  0.00    -0.495 OA
ENDBRANCH  32  39
ENDBRANCH  31  35
ENDBRANCH  30  31
ENDBRANCH   1  30
TORSDOF 8
