REMARK  Name = ZINC39361408
REMARK  8 active torsions:
REMARK  status: ('A' for Active; 'I' for Inactive)
REMARK    1  A    between atoms: C_1  and  C_2
REMARK    2  A    between atoms: C_2  and  C_3
REMARK    3  A    between atoms: C_2  and  S_4
REMARK    4  A    between atoms: S_4  and  C_5
REMARK    5  A    between atoms: C_11  and  C_23
REMARK    6  A    between atoms: C_26  and  O_31
REMARK    7  A    between atoms: C_27  and  O_29
REMARK    8  A    between atoms: O_29  and  C_30
REMARK                            x       y       z     vdW  Elec       q    Type
REMARK                         _______ _______ _______ _____ _____    ______ ____
ROOT
ATOM      1  C   UNL     1      -2.365  -0.093  -1.525  0.00  0.00    +0.182 C 
ATOM      2  N   UNL     1      -1.594   0.601  -2.352  0.00  0.00    -0.154 NA
ATOM      3  C   UNL     1      -2.040   1.052  -3.513  0.00  0.00    +0.250 C 
ATOM      4  O   UNL     1      -1.285   1.673  -4.237  0.00  0.00    -0.273 OA
ATOM      5  C   UNL     1      -3.454   0.818  -3.959  0.00  0.00    +0.152 C 
ATOM      6  C   UNL     1      -3.469   0.049  -5.281  0.00  0.00    +0.073 C 
ATOM      7  C   UNL     1      -4.850  -0.502  -5.551  0.00  0.00    +0.021 C 
ATOM      8  C   UNL     1      -5.748  -0.702  -4.567  0.00  0.00    +0.016 C 
ATOM      9  C   UNL     1      -7.111  -1.281  -4.864  0.00  0.00    +0.051 C 
ATOM     10  C   UNL     1      -7.558  -0.853  -6.264  0.00  0.00    +0.014 C 
ATOM     11  C   UNL     1      -6.517  -1.347  -7.274  0.00  0.00    +0.080 C 
ATOM     12  C   UNL     1      -5.169  -0.804  -6.891  0.00  0.00    +0.161 C 
ATOM     13  O   UNL     1      -4.335  -0.620  -7.756  0.00  0.00    -0.292 OA
ATOM     14  N   UNL     1      -5.469  -0.380  -3.257  0.00  0.00    -0.305 N 
ATOM     15  C   UNL     1      -4.192  -0.012  -2.934  0.00  0.00    +0.115 C 
ATOM     16  N   UNL     1      -3.632  -0.401  -1.831  0.00  0.00    -0.213 NA
ATOM     17  H   UNL     1      -6.162  -0.406  -2.579  0.00  0.00    +0.153 HD
ENDROOT
BRANCH   6  18
ATOM     18  C   UNL     1      -3.078   0.977  -6.402  0.00  0.00    -0.035 A 
ATOM     19  C   UNL     1      -3.832   2.108  -6.656  0.00  0.00    +0.008 A 
ATOM     20  C   UNL     1      -3.477   2.962  -7.684  0.00  0.00    +0.049 A 
ATOM     21  C   UNL     1      -2.364   2.686  -8.461  0.00  0.00    +0.158 A 
ATOM     22  C   UNL     1      -1.606   1.548  -8.206  0.00  0.00    +0.162 A 
ATOM     23  C   UNL     1      -1.964   0.699  -7.171  0.00  0.00    +0.053 A 
BRANCH  22  24
ATOM     24  O   UNL     1      -0.512   1.273  -8.966  0.00  0.00    -0.491 OA
ATOM     25  C   UNL     1       0.219   0.088  -8.646  0.00  0.00    +0.277 C 
ENDBRANCH  22  24
BRANCH  21  26
ATOM     26  O   UNL     1      -2.015   3.526  -9.473  0.00  0.00    -0.503 OA
ATOM     27  H   UNL     1      -1.409   4.231  -9.207  0.00  0.00    +0.292 HD
ENDBRANCH  21  26
ENDBRANCH   6  18
BRANCH   1  28
ATOM     28  S   UNL     1      -1.700  -0.632   0.015  0.00  0.00    -0.086 S 
BRANCH  28  30
ATOM     29  C   UNL     1      -0.019   1.526   0.010  0.00  0.00    +0.019 C 
ATOM     30  C   UNL     1       0.002  -0.004   0.002  0.00  0.00    +0.048 C 
ATOM     31  C   UNL     1       0.742  -0.511   1.242  0.00  0.00    +0.019 C 
ENDBRANCH  28  30
ENDBRANCH   1  28
TORSDOF 5
