REMARK  Name = ZINC38705628
REMARK  12 active torsions:
REMARK  status: ('A' for Active; 'I' for Inactive)
REMARK    1  A    between atoms: C_1  and  C_2
REMARK    2  A    between atoms: C_2  and  C_3
REMARK    3  A    between atoms: C_3  and  C_4
REMARK    4  A    between atoms: C_4  and  O_5
REMARK    5  A    between atoms: O_5  and  C_6
REMARK    6  A    between atoms: C_10  and  C_12
REMARK    7  A    between atoms: C_15  and  C_31
REMARK    8  A    between atoms: N_22  and  C_23
REMARK    9  A    between atoms: C_23  and  C_24
REMARK   10  A    between atoms: C_32  and  C_39
REMARK   11  A    between atoms: C_34  and  C_38
REMARK   12  A    between atoms: C_36  and  O_37
REMARK                            x       y       z     vdW  Elec       q    Type
REMARK                         _______ _______ _______ _____ _____    ______ ____
ROOT
ATOM      1  C   UNL     1       2.761  -6.385   4.721  0.00  0.00    +0.142 C 
ATOM      2  C   UNL     1       1.920  -6.709   5.925  0.00  0.00    +0.035 A 
ATOM      3  C   UNL     1       1.043  -6.245   6.911  0.00  0.00    +0.102 A 
ATOM      4  N   UNL     1       0.725  -7.273   7.672  0.00  0.00    -0.173 NA
ATOM      5  N   UNL     1       1.314  -8.340   7.266  0.00  0.00    -0.272 N 
ATOM      6  H   UNL     1       1.226  -9.215   7.675  0.00  0.00    +0.189 HD
ATOM      7  C   UNL     1       2.082  -8.059   6.171  0.00  0.00    +0.126 A 
ATOM      8  C   UNL     1       2.997  -8.610   5.166  0.00  0.00    +0.266 C 
ATOM      9  O   UNL     1       3.345  -9.774   5.107  0.00  0.00    -0.268 OA
ATOM     10  N   UNL     1       3.399  -7.645   4.318  0.00  0.00    -0.281 N 
ENDROOT
BRANCH   3  11
ATOM     11  C   UNL     1       0.559  -4.851   7.070  0.00  0.00    +0.047 A 
ATOM     12  C   UNL     1      -0.798  -4.598   7.255  0.00  0.00    -0.037 A 
ATOM     13  C   UNL     1      -1.243  -3.300   7.402  0.00  0.00    +0.007 A 
ATOM     14  C   UNL     1      -0.345  -2.247   7.368  0.00  0.00    -0.047 A 
ATOM     15  C   UNL     1       1.003  -2.487   7.184  0.00  0.00    +0.049 A 
ATOM     16  C   UNL     1       1.464  -3.786   7.041  0.00  0.00    +0.127 A 
ATOM     17  C   UNL     1      -0.841  -0.833   7.530  0.00  0.00    +0.044 C 
ATOM     18  C   UNL     1      -1.780  -5.741   7.293  0.00  0.00    +0.044 C 
BRANCH  16  19
ATOM     19  O   UNL     1       2.790  -4.024   6.868  0.00  0.00    -0.506 OA
ATOM     20  H   UNL     1       3.084  -3.961   5.949  0.00  0.00    +0.292 HD
ENDBRANCH  16  19
ENDBRANCH   3  11
BRANCH   1  25
ATOM     21  C   UNL     1       1.149  -4.050   2.225  0.00  0.00    +0.121 A 
ATOM     22  C   UNL     1       0.291  -4.912   1.558  0.00  0.00    +0.045 A 
ATOM     23  C   UNL     1       0.236  -6.245   1.916  0.00  0.00    +0.004 A 
ATOM     24  C   UNL     1       1.036  -6.721   2.939  0.00  0.00    +0.006 A 
ATOM     25  C   UNL     1       1.891  -5.864   3.606  0.00  0.00    -0.019 A 
ATOM     26  C   UNL     1       1.954  -4.531   3.248  0.00  0.00    +0.051 A 
BRANCH  21  27
ATOM     27  O   UNL     1       1.204  -2.739   1.875  0.00  0.00    -0.492 OA
BRANCH  27  28
ATOM     28  C   UNL     1       0.347  -2.314   0.813  0.00  0.00    +0.229 C 
BRANCH  28  29
ATOM     29  C   UNL     1       0.548  -0.818   0.562  0.00  0.00    +0.041 C 
BRANCH  29  31
ATOM     30  C   UNL     1      -0.169   1.132  -0.825  0.00  0.00    +0.004 C 
ATOM     31  C   UNL     1      -0.370  -0.364  -0.575  0.00  0.00    -0.000 C 
ENDBRANCH  29  31
ENDBRANCH  28  29
ENDBRANCH  27  28
ENDBRANCH  21  27
ENDBRANCH   1  25
BRANCH  10  32
ATOM     32  C   UNL     1       4.314  -7.820   3.187  0.00  0.00    +0.145 C 
BRANCH  32  33
ATOM     33  C   UNL     1       5.731  -7.593   3.647  0.00  0.00    -0.012 A 
ATOM     34  C   UNL     1       6.348  -6.378   3.413  0.00  0.00    +0.006 A 
ATOM     35  C   UNL     1       7.647  -6.169   3.835  0.00  0.00    +0.000 A 
ATOM     36  C   UNL     1       8.331  -7.175   4.492  0.00  0.00    +0.001 A 
ATOM     37  C   UNL     1       7.715  -8.390   4.727  0.00  0.00    +0.020 A 
ATOM     38  C   UNL     1       6.413  -8.598   4.309  0.00  0.00    +0.046 A 
ATOM     39 CL   UNL     1       5.636 -10.121   4.610  0.00  0.00    -0.083 Cl
ENDBRANCH  32  33
ENDBRANCH  10  32
TORSDOF 9
