REMARK  Name = ZINC35024984
REMARK  7 active torsions:
REMARK  status: ('A' for Active; 'I' for Inactive)
REMARK    1  A    between atoms: C_1  and  C_2
REMARK    2  A    between atoms: C_7  and  C_12
REMARK    3  A    between atoms: C_12  and  C_13
REMARK    4  A    between atoms: C_14  and  C_28
REMARK    5  A    between atoms: N_16  and  C_21
REMARK    6  A    between atoms: C_21  and  C_22
REMARK    7  A    between atoms: C_31  and  N_34
REMARK                            x       y       z     vdW  Elec       q    Type
REMARK                         _______ _______ _______ _____ _____    ______ ____
ROOT
ATOM      1  C   UNL     1       7.014  -1.242  -0.249  0.00  0.00    +0.076 C 
ATOM      2  C   UNL     1       6.998  -1.218   1.261  0.00  0.00    +0.145 C 
ATOM      3  N   UNL     1       8.400  -1.296   1.687  0.00  0.00    -0.281 N 
ATOM      4  C   UNL     1       9.165  -1.358   0.582  0.00  0.00    +0.288 C 
ATOM      5  O   UNL     1      10.378  -1.430   0.576  0.00  0.00    -0.266 OA
ATOM      6  C   UNL     1       8.311  -1.331  -0.625  0.00  0.00    +0.249 C 
ATOM      7  O   UNL     1       8.756  -1.383  -1.901  0.00  0.00    -0.282 OA
ENDROOT
BRANCH   2   8
ATOM      8  C   UNL     1       6.377   0.064   1.753  0.00  0.00    -0.022 A 
ATOM      9  C   UNL     1       7.080   1.250   1.665  0.00  0.00    +0.008 A 
ATOM     10  C   UNL     1       6.511   2.426   2.117  0.00  0.00    +0.033 A 
ATOM     11  C   UNL     1       5.238   2.416   2.655  0.00  0.00    +0.126 A 
ATOM     12  C   UNL     1       4.534   1.229   2.742  0.00  0.00    +0.033 A 
ATOM     13  C   UNL     1       5.102   0.054   2.287  0.00  0.00    +0.008 A 
BRANCH  11  14
ATOM     14  N   UNL     1       4.629   3.675   3.139  0.00  0.00    +0.056 N 
ATOM     15  O   UNL     1       5.244   4.713   3.063  0.00  0.00    -0.126 OA
ATOM     16  O   UNL     1       3.515   3.666   3.610  0.00  0.00    -0.126 OA
ENDBRANCH  11  14
ENDBRANCH   2   8
BRANCH   1  17
ATOM     17  C   UNL     1       5.848  -1.185  -1.137  0.00  0.00    +0.195 C 
ATOM     18  O   UNL     1       5.685  -0.225  -1.866  0.00  0.00    -0.287 OA
BRANCH  17  24
ATOM     19  C   UNL     1      -0.024  -4.121  -0.762  0.00  0.00    +0.052 C 
ATOM     20  C   UNL     1       0.885  -4.631  -1.883  0.00  0.00    +0.175 C 
ATOM     21  C   UNL     1       1.505  -3.449  -2.665  0.00  0.00    +0.083 C 
ATOM     22  C   UNL     1       2.821  -3.249  -1.938  0.00  0.00    -0.002 A 
ATOM     23  C   UNL     1       3.721  -2.213  -1.936  0.00  0.00    +0.019 A 
ATOM     24  C   UNL     1       4.874  -2.294  -1.147  0.00  0.00    +0.023 A 
ATOM     25  C   UNL     1       5.095  -3.434  -0.368  0.00  0.00    +0.015 A 
ATOM     26  C   UNL     1       4.189  -4.467  -0.381  0.00  0.00    +0.046 A 
ATOM     27  C   UNL     1       3.039  -4.389  -1.171  0.00  0.00    +0.124 A 
ATOM     28  O   UNL     1       2.036  -5.298  -1.340  0.00  0.00    -0.488 OA
ENDBRANCH  17  24
ENDBRANCH   1  17
BRANCH   3  29
ATOM     29  C   UNL     1       8.882  -1.304   3.070  0.00  0.00    +0.140 C 
BRANCH  29  30
ATOM     30  C   UNL     1       8.964  -2.747   3.573  0.00  0.00    +0.136 C 
ATOM     31  C   UNL     1       9.355  -2.759   5.066  0.00  0.00    +0.035 C 
ATOM     32  C   UNL     1      10.325  -3.971   5.143  0.00  0.00    +0.031 C 
ATOM     33  C   UNL     1      11.011  -3.886   3.757  0.00  0.00    +0.160 C 
ATOM     34  O   UNL     1       9.979  -3.456   2.852  0.00  0.00    -0.375 OA
ENDBRANCH  29  30
ENDBRANCH   3  29
TORSDOF 6
