REMARK  Name = ZINC15533826
REMARK  6 active torsions:
REMARK  status: ('A' for Active; 'I' for Inactive)
REMARK    1  A    between atoms: C_6  and  C_7
REMARK    2  A    between atoms: N_9  and  C_10
REMARK    3  A    between atoms: C_10  and  C_11
REMARK    4  A    between atoms: C_11  and  C_12
REMARK    5  A    between atoms: N_17  and  C_20
REMARK    6  A    between atoms: C_25  and  N_26
REMARK                            x       y       z     vdW  Elec       q    Type
REMARK                         _______ _______ _______ _____ _____    ______ ____
ROOT
ATOM      1  C   UNL     1       4.683  -2.267  -0.124  0.00  0.00    +0.217 C 
ATOM      2  O   UNL     1       4.880  -2.876   0.906  0.00  0.00    -0.276 OA
ATOM      3  N   UNL     1       4.223  -1.000  -0.079  0.00  0.00    -0.298 N 
ATOM      4  C   UNL     1       3.954  -0.339   1.207  0.00  0.00    +0.126 C 
ATOM      5  C   UNL     1       2.538   0.246   1.167  0.00  0.00    +0.124 C 
ATOM      6  N   UNL     1       2.401   1.107  -0.015  0.00  0.00    -0.325 N 
ATOM      7  C   UNL     1       2.560   0.338  -1.256  0.00  0.00    +0.124 C 
ATOM      8  C   UNL     1       3.976  -0.243  -1.316  0.00  0.00    +0.126 C 
ENDROOT
BRANCH   6   9
ATOM      9  C   UNL     1       1.181   1.787   0.000  0.00  0.00    +0.060 A 
ATOM     10  C   UNL     1      -0.013   1.076   0.008  0.00  0.00    +0.027 A 
ATOM     11  C   UNL     1      -1.217   1.751   0.017  0.00  0.00    +0.022 A 
ATOM     12  C   UNL     1      -1.237   3.134   0.030  0.00  0.00    +0.043 A 
ATOM     13  C   UNL     1      -0.050   3.846   0.022  0.00  0.00    +0.054 A 
ATOM     14  C   UNL     1       1.158   3.176   0.008  0.00  0.00    +0.148 A 
ATOM     15 CL   UNL     1      -2.753   3.979   0.048  0.00  0.00    -0.083 Cl
BRANCH  14  16
ATOM     16  N   UNL     1       2.427   3.937   0.000  0.00  0.00    +0.058 N 
ATOM     17  O   UNL     1       2.407   5.155   0.006  0.00  0.00    -0.126 OA
ATOM     18  O   UNL     1       3.492   3.346  -0.013  0.00  0.00    -0.126 OA
ENDBRANCH  14  16
ENDBRANCH   6   9
BRANCH   1  19
ATOM     19  C   UNL     1       4.951  -2.925  -1.453  0.00  0.00    +0.114 C 
BRANCH  19  20
ATOM     20  C   UNL     1       5.462  -4.348  -1.223  0.00  0.00    +0.113 C 
BRANCH  20  23
ATOM     21  C   UNL     1       6.183  -6.254  -2.559  0.00  0.00    +0.244 C 
ATOM     22  O   UNL     1       6.381  -6.865  -1.527  0.00  0.00    -0.270 OA
ATOM     23  N   UNL     1       5.723  -4.988  -2.514  0.00  0.00    -0.311 N 
ATOM     24  H   UNL     1       5.565  -4.500  -3.338  0.00  0.00    +0.149 HD
BRANCH  21  30
ATOM     25  C   UNL     1       6.215  -6.202  -5.049  0.00  0.00    +0.014 A 
ATOM     26  C   UNL     1       6.468  -6.808  -6.262  0.00  0.00    +0.016 A 
ATOM     27  C   UNL     1       6.940  -8.109  -6.304  0.00  0.00    +0.018 A 
ATOM     28  C   UNL     1       7.167  -8.808  -5.130  0.00  0.00    +0.016 A 
ATOM     29  C   UNL     1       6.923  -8.211  -3.911  0.00  0.00    +0.014 A 
ATOM     30  C   UNL     1       6.446  -6.900  -3.862  0.00  0.00    +0.037 A 
ATOM     31 BR   UNL     1       7.277  -8.934  -7.972  0.00  0.00    -0.050 Br
ENDBRANCH  21  30
ENDBRANCH  20  23
ENDBRANCH  19  20
ENDBRANCH   1  19
TORSDOF 6
