REMARK  Name = ZINC14644324
REMARK  7 active torsions:
REMARK  status: ('A' for Active; 'I' for Inactive)
REMARK    1  A    between atoms: C_1  and  C_2
REMARK    2  A    between atoms: C_2  and  C_4
REMARK    3  A    between atoms: C_2  and  O_19
REMARK    4  A    between atoms: N_6  and  N_7
REMARK    5  A    between atoms: C_8  and  C_10
REMARK    6  A    between atoms: C_13  and  N_16
REMARK    7  A    between atoms: O_19  and  C_20
REMARK                            x       y       z     vdW  Elec       q    Type
REMARK                         _______ _______ _______ _____ _____    ______ ____
ROOT
ATOM      1  C   UNL     1       1.168   1.666  -0.244  0.00  0.00    +0.270 C 
ATOM      2  O   UNL     1       1.181   2.868  -0.406  0.00  0.00    -0.270 OA
ATOM      3  N   UNL     1       0.000   0.995  -0.275  0.00  0.00    -0.231 N 
ATOM      4  H   UNL     1      -0.011   0.034  -0.145  0.00  0.00    +0.173 HD
ENDROOT
BRANCH   3   5
ATOM      5  N   UNL     1      -1.199   1.685  -0.499  0.00  0.00    -0.230 N 
ATOM      6  C   UNL     1      -2.366   1.013  -0.535  0.00  0.00    +0.260 C 
ATOM      7  O   UNL     1      -2.380  -0.192  -0.373  0.00  0.00    -0.269 OA
ATOM      8  H   UNL     1      -1.188   2.646  -0.628  0.00  0.00    +0.173 HD
BRANCH   6   9
ATOM      9  C   UNL     1      -3.631   1.741  -0.772  0.00  0.00    +0.038 A 
ATOM     10  C   UNL     1      -3.620   3.125  -0.953  0.00  0.00    +0.015 A 
ATOM     11  C   UNL     1      -4.803   3.797  -1.178  0.00  0.00    +0.033 A 
ATOM     12  C   UNL     1      -6.000   3.104  -1.214  0.00  0.00    +0.126 A 
ATOM     13  C   UNL     1      -6.019   1.733  -1.031  0.00  0.00    +0.033 A 
ATOM     14  C   UNL     1      -4.842   1.048  -0.810  0.00  0.00    +0.015 A 
BRANCH  12  15
ATOM     15  N   UNL     1      -7.267   3.833  -1.451  0.00  0.00    +0.056 N 
ATOM     16  O   UNL     1      -8.322   3.226  -1.484  0.00  0.00    -0.126 OA
ATOM     17  O   UNL     1      -7.253   5.040  -1.613  0.00  0.00    -0.126 OA
ENDBRANCH  12  15
ENDBRANCH   6   9
ENDBRANCH   3   5
BRANCH   1  19
ATOM     18  C   UNL     1       2.720  -0.027  -1.179  0.00  0.00    +0.062 C 
ATOM     19  C   UNL     1       2.458   0.923  -0.009  0.00  0.00    +0.257 C 
BRANCH  19  20
ATOM     20  O   UNL     1       3.534   1.858   0.096  0.00  0.00    -0.479 OA
BRANCH  20  21
ATOM     21  C   UNL     1       4.629   1.463   0.797  0.00  0.00    +0.136 A 
ATOM     22  C   UNL     1       4.715   0.164   1.277  0.00  0.00    +0.048 A 
ATOM     23  C   UNL     1       5.831  -0.238   1.985  0.00  0.00    +0.023 A 
ATOM     24  C   UNL     1       6.859   0.657   2.225  0.00  0.00    +0.042 A 
ATOM     25  C   UNL     1       6.773   1.955   1.753  0.00  0.00    +0.039 A 
ATOM     26  C   UNL     1       5.660   2.359   1.039  0.00  0.00    +0.061 A 
ATOM     27 BR   UNL     1       5.543   4.133   0.394  0.00  0.00    -0.046 Br
ATOM     28 CL   UNL     1       8.257   0.152   3.121  0.00  0.00    -0.084 Cl
ENDBRANCH  20  21
ENDBRANCH  19  20
ENDBRANCH   1  19
TORSDOF 6
