REMARK  Name = ZINC34998869
REMARK  15 active torsions:
REMARK  status: ('A' for Active; 'I' for Inactive)
REMARK    1  A    between atoms: C_1  and  C_2
REMARK    2  A    between atoms: C_2  and  C_3
REMARK    3  A    between atoms: C_3  and  C_4
REMARK    4  A    between atoms: C_4  and  C_5
REMARK    5  A    between atoms: C_5  and  C_7
REMARK    6  A    between atoms: C_5  and  C_9
REMARK    7  A    between atoms: C_7  and  C_8
REMARK    8  A    between atoms: C_16  and  C_18
REMARK    9  A    between atoms: C_19  and  C_21
REMARK   10  A    between atoms: C_21  and  C_23
REMARK   11  A    between atoms: C_21  and  N_28
REMARK   12  A    between atoms: C_23  and  C_25
REMARK   13  A    between atoms: C_23  and  C_26
REMARK   14  A    between atoms: C_26  and  C_27
REMARK   15  A    between atoms: N_31  and  C_32
REMARK                            x       y       z     vdW  Elec       q    Type
REMARK                         _______ _______ _______ _____ _____    ______ ____
ROOT
ATOM      1  C   UNL     1      -8.102  -5.949   2.307  0.00  0.00    +0.163 C 
ENDROOT
BRANCH   1  11
ATOM      2  C   UNL     1      -2.660  -4.259   0.007  0.00  0.00    +0.219 C 
ATOM      3  O   UNL     1      -1.702  -4.892  -0.384  0.00  0.00    -0.275 OA
ATOM      4  N   UNL     1      -3.833  -4.883   0.237  0.00  0.00    -0.295 N 
ATOM      5  C   UNL     1      -5.029  -4.114   0.608  0.00  0.00    +0.127 C 
ATOM      6  C   UNL     1      -5.581  -4.672   1.925  0.00  0.00    +0.127 C 
ATOM      7  N   UNL     1      -5.686  -6.133   1.808  0.00  0.00    -0.297 N 
ATOM      8  C   UNL     1      -4.490  -6.902   1.437  0.00  0.00    +0.130 C 
ATOM      9  C   UNL     1      -3.939  -6.343   0.114  0.00  0.00    +0.090 C 
ATOM     10  C   UNL     1      -2.557  -6.938  -0.160  0.00  0.00    +0.029 C 
ATOM     11  C   UNL     1      -6.859  -6.757   2.038  0.00  0.00    +0.236 C 
ATOM     12  O   UNL     1      -6.913  -7.969   2.028  0.00  0.00    -0.274 OA
BRANCH   2  13
ATOM     13  C   UNL     1      -2.539  -2.774   0.236  0.00  0.00    +0.075 C 
BRANCH  13  14
ATOM     14  C   UNL     1      -2.719  -2.471   1.725  0.00  0.00    +0.009 C 
ATOM     15  C   UNL     1      -1.587  -3.127   2.519  0.00  0.00    +0.004 C 
ENDBRANCH  13  14
BRANCH  13  16
ATOM     16  C   UNL     1      -1.157  -2.299  -0.218  0.00  0.00    +0.013 C 
BRANCH  16  17
ATOM     17  C   UNL     1      -1.079  -0.775  -0.105  0.00  0.00    +0.000 C 
BRANCH  17  19
ATOM     18  C   UNL     1       0.414   1.214  -0.341  0.00  0.00    +0.004 C 
ATOM     19  C   UNL     1       0.336  -0.310  -0.454  0.00  0.00    -0.003 C 
ENDBRANCH  17  19
ENDBRANCH  16  17
ENDBRANCH  13  16
ENDBRANCH   2  13
ENDBRANCH   1  11
BRANCH   1  20
ATOM     20  N   UNL     1      -9.067  -6.768   3.045  0.00  0.00    -0.288 N 
ATOM     21  C   UNL     1      -9.996  -6.178   3.823  0.00  0.00    +0.305 C 
ATOM     22  O   UNL     1     -10.034  -4.966   3.911  0.00  0.00    -0.252 OA
ATOM     23  N   UNL     1     -10.883  -6.932   4.502  0.00  0.00    -0.268 N 
ATOM     24  H   UNL     1      -9.036  -7.735   2.975  0.00  0.00    +0.151 HD
ATOM     25  H   UNL     1     -10.810  -7.899   4.488  0.00  0.00    +0.156 HD
BRANCH  23  26
ATOM     26  C   UNL     1     -11.911  -6.319   5.229  0.00  0.00    +0.055 A 
ATOM     27  C   UNL     1     -11.695  -5.089   5.837  0.00  0.00    +0.025 A 
ATOM     28  C   UNL     1     -12.711  -4.486   6.553  0.00  0.00    +0.003 A 
ATOM     29  C   UNL     1     -13.942  -5.105   6.665  0.00  0.00    +0.021 A 
ATOM     30  C   UNL     1     -14.162  -6.330   6.061  0.00  0.00    +0.061 A 
ATOM     31  C   UNL     1     -13.150  -6.936   5.338  0.00  0.00    +0.080 A 
ATOM     32 CL   UNL     1     -13.427  -8.471   4.574  0.00  0.00    -0.080 Cl
ATOM     33 CL   UNL     1     -15.709  -7.104   6.206  0.00  0.00    -0.082 Cl
ENDBRANCH  23  26
ENDBRANCH   1  20
BRANCH   1  34
ATOM     34  C   UNL     1      -8.720  -5.507   0.979  0.00  0.00    +0.015 C 
ATOM     35  C   UNL     1      -9.239  -6.733   0.224  0.00  0.00    +0.010 C 
BRANCH  34  36
ATOM     36  C   UNL     1      -9.880  -4.547   1.251  0.00  0.00    +0.002 C 
ATOM     37  C   UNL     1      -9.341  -3.258   1.873  0.00  0.00    +0.004 C 
ENDBRANCH  34  36
ENDBRANCH   1  34
TORSDOF 10
