REMARK  Name = ZINC08893852
REMARK  9 active torsions:
REMARK  status: ('A' for Active; 'I' for Inactive)
REMARK    1  A    between atoms: C_1  and  C_2
REMARK    2  A    between atoms: C_2  and  O_3
REMARK    3  A    between atoms: O_3  and  C_4
REMARK    4  A    between atoms: C_7  and  C_9
REMARK    5  A    between atoms: C_13  and  N_14
REMARK    6  A    between atoms: C_15  and  C_17
REMARK    7  A    between atoms: N_22  and  S_23
REMARK    8  A    between atoms: S_23  and  C_26
REMARK    9  A    between atoms: C_29  and  C_32
REMARK                            x       y       z     vdW  Elec       q    Type
REMARK                         _______ _______ _______ _____ _____    ______ ____
ROOT
ATOM      1  N   UNL     1      -0.129  -0.244   2.962  0.00  0.00    -0.278 N 
ATOM      2  C   UNL     1      -1.153   0.303   2.276  0.00  0.00    +0.236 C 
ATOM      3  O   UNL     1      -2.282  -0.108   2.441  0.00  0.00    -0.274 OA
ATOM      4  H   UNL     1       0.774   0.085   2.829  0.00  0.00    +0.155 HD
ENDROOT
BRANCH   1   9
ATOM      5  C   UNL     1       0.545  -1.961   4.642  0.00  0.00    +0.069 A 
ATOM      6  C   UNL     1       0.028  -3.016   5.514  0.00  0.00    -0.023 A 
ATOM      7  C   UNL     1      -1.301  -3.212   5.448  0.00  0.00    -0.004 A 
ATOM      8  S   UNL     1      -1.875  -2.024   4.259  0.00  0.00    -0.077 S 
ATOM      9  C   UNL     1      -0.367  -1.275   3.857  0.00  0.00    +0.084 A 
ATOM     10  C   UNL     1      -1.755  -4.312   6.369  0.00  0.00    +0.043 C 
ATOM     11  C   UNL     1      -0.583  -4.502   7.356  0.00  0.00    +0.010 C 
ATOM     12  C   UNL     1       0.615  -4.006   6.521  0.00  0.00    +0.037 C 
BRANCH   5  16
ATOM     13  C   UNL     1       4.097  -1.973   3.693  0.00  0.00    +0.407 C 
ATOM     14  O   UNL     1       4.552  -1.139   4.449  0.00  0.00    -0.226 OA
ATOM     15  N   UNL     1       2.783  -2.269   3.729  0.00  0.00    -0.217 N 
ATOM     16  C   UNL     1       1.973  -1.639   4.603  0.00  0.00    +0.255 C 
ATOM     17  O   UNL     1       2.429  -0.804   5.361  0.00  0.00    -0.270 OA
ATOM     18  H   UNL     1       2.419  -2.936   3.125  0.00  0.00    +0.161 HD
BRANCH  13  19
ATOM     19  O   UNL     1       4.905  -2.603   2.820  0.00  0.00    -0.450 OA
BRANCH  19  21
ATOM     20  C   UNL     1       7.064  -3.047   1.784  0.00  0.00    +0.048 C 
ATOM     21  C   UNL     1       6.309  -2.233   2.837  0.00  0.00    +0.230 C 
ENDBRANCH  19  21
ENDBRANCH  13  19
ENDBRANCH   5  16
ENDBRANCH   1   9
BRANCH   2  22
ATOM     22  C   UNL     1      -0.894   1.424   1.303  0.00  0.00    +0.166 C 
ATOM     23  C   UNL     1      -0.525   0.845  -0.080  0.00  0.00    +0.031 C 
ATOM     24  C   UNL     1      -1.232   1.812  -1.066  0.00  0.00    +0.019 C 
ATOM     25  C   UNL     1      -2.530   2.152  -0.292  0.00  0.00    +0.110 C 
ATOM     26  N   UNL     1      -2.117   2.228   1.121  0.00  0.00    -0.165 NA
BRANCH  26  27
ATOM     27  S   UNL     1      -2.897   3.077   2.310  0.00  0.00    +0.062 S 
ATOM     28  O   UNL     1      -4.272   3.105   1.954  0.00  0.00    -0.153 OA
ATOM     29  O   UNL     1      -2.442   2.553   3.550  0.00  0.00    -0.153 OA
BRANCH  27  30
ATOM     30  C   UNL     1      -2.321   4.741   2.225  0.00  0.00    +0.106 A 
ATOM     31  C   UNL     1      -1.156   5.103   2.874  0.00  0.00    +0.029 A 
ATOM     32  C   UNL     1      -0.702   6.406   2.803  0.00  0.00    +0.005 A 
ATOM     33  C   UNL     1      -1.419   7.350   2.092  0.00  0.00    -0.050 A 
ATOM     34  C   UNL     1      -2.587   6.989   1.447  0.00  0.00    +0.005 A 
ATOM     35  C   UNL     1      -3.038   5.684   1.514  0.00  0.00    +0.029 A 
ATOM     36  C   UNL     1      -0.927   8.773   2.020  0.00  0.00    +0.044 C 
ENDBRANCH  27  30
ENDBRANCH  26  27
ENDBRANCH   2  22
TORSDOF 7
