REMARK  Name = ZINC45046612
REMARK  5 active torsions:
REMARK  status: ('A' for Active; 'I' for Inactive)
REMARK    1  A    between atoms: C_1  and  C_2
REMARK    2  A    between atoms: C_2  and  N_8
REMARK    3  A    between atoms: C_9  and  C_13
REMARK    4  A    between atoms: C_15  and  N_20
REMARK    5  A    between atoms: C_17  and  N_19
REMARK                            x       y       z     vdW  Elec       q    Type
REMARK                         _______ _______ _______ _____ _____    ______ ____
ROOT
ATOM      1  N   UNL     1      -1.326  -0.825  -0.035  0.00  0.00    -0.219 N 
ATOM      2  C   UNL     1      -2.385  -0.371  -0.751  0.00  0.00    +0.183 A 
ATOM      3  N   UNL     1      -3.469  -0.676  -0.071  0.00  0.00    -0.108 NA
ATOM      4  N   UNL     1      -3.162  -1.287   1.016  0.00  0.00    -0.023 NA
ATOM      5  N   UNL     1      -1.883  -1.422   1.109  0.00  0.00    -0.043 NA
ENDROOT
BRANCH   1   7
ATOM      6  C   UNL     1       0.580   0.706  -0.120  0.00  0.00    +0.036 C 
ATOM      7  C   UNL     1       0.093  -0.720  -0.383  0.00  0.00    +0.065 C 
ATOM      8  C   UNL     1       0.282  -1.059  -1.863  0.00  0.00    +0.030 C 
ATOM      9  C   UNL     1      -0.204  -2.486  -2.126  0.00  0.00    +0.002 C 
ATOM     10  C   UNL     1       0.603  -3.465  -1.272  0.00  0.00    +0.000 C 
ATOM     11  C   UNL     1       0.415  -3.127   0.208  0.00  0.00    +0.002 C 
ATOM     12  C   UNL     1       0.901  -1.700   0.471  0.00  0.00    +0.030 C 
ENDBRANCH   1   7
BRANCH   2  13
ATOM     13  C   UNL     1      -2.331   0.335  -2.051  0.00  0.00    +0.024 A 
ATOM     14  C   UNL     1      -1.218   1.107  -2.381  0.00  0.00    +0.034 A 
ATOM     15  C   UNL     1      -1.170   1.768  -3.600  0.00  0.00    +0.027 A 
ATOM     16  C   UNL     1      -2.229   1.661  -4.491  0.00  0.00    +0.045 A 
ATOM     17  C   UNL     1      -3.339   0.893  -4.165  0.00  0.00    +0.027 A 
ATOM     18  C   UNL     1      -3.390   0.225  -2.950  0.00  0.00    +0.034 A 
BRANCH  17  19
ATOM     19  N   UNL     1      -4.403   0.788  -5.064  0.00  0.00    -0.358 N 
ATOM     20  H   UNL     1      -4.367   1.251  -5.915  0.00  0.00    +0.142 HD
ATOM     21  H   UNL     1      -5.179   0.252  -4.837  0.00  0.00    +0.142 HD
ENDBRANCH  17  19
BRANCH  15  22
ATOM     22  N   UNL     1      -0.055   2.542  -3.931  0.00  0.00    -0.358 N 
ATOM     23  H   UNL     1       0.685   2.617  -3.308  0.00  0.00    +0.142 HD
ATOM     24  H   UNL     1      -0.021   3.004  -4.783  0.00  0.00    +0.142 HD
ENDBRANCH  15  22
ENDBRANCH   2  13
TORSDOF 4
