REMARK  Name = ZINC39748111
REMARK  10 active torsions:
REMARK  status: ('A' for Active; 'I' for Inactive)
REMARK    1  A    between atoms: C_1  and  C_2
REMARK    2  A    between atoms: C_2  and  C_3
REMARK    3  A    between atoms: C_3  and  C_5
REMARK    4  A    between atoms: C_3  and  S_13
REMARK    5  A    between atoms: S_13  and  C_14
REMARK    6  A    between atoms: C_17  and  C_20
REMARK    7  A    between atoms: N_18  and  C_19
REMARK    8  A    between atoms: C_20  and  C_22
REMARK    9  A    between atoms: C_20  and  N_23
REMARK   10  A    between atoms: C_24  and  C_26
REMARK                            x       y       z     vdW  Elec       q    Type
REMARK                         _______ _______ _______ _____ _____    ______ ____
ROOT
ATOM      1  C   UNL     1      -2.066   1.826  -1.281  0.00  0.00    +0.192 A 
ATOM      2  N   UNL     1      -1.502   2.511  -0.314  0.00  0.00    -0.122 NA
ATOM      3  N   UNL     1      -1.554   3.767  -0.580  0.00  0.00    -0.132 NA
ATOM      4  C   UNL     1      -2.150   3.958  -1.723  0.00  0.00    +0.154 A 
ATOM      5  N   UNL     1      -2.492   2.728  -2.214  0.00  0.00    -0.308 N 
ATOM      6  C   UNL     1      -3.177   2.439  -3.476  0.00  0.00    +0.152 C 
ENDROOT
BRANCH   4   7
ATOM      7  C   UNL     1      -2.407   5.287  -2.384  0.00  0.00    +0.138 C 
ATOM      8  C   UNL     1      -1.103   5.823  -2.977  0.00  0.00    +0.036 C 
BRANCH   7   9
ATOM      9  N   UNL     1      -2.919   6.235  -1.392  0.00  0.00    -0.302 N 
ATOM     10  C   UNL     1      -3.677   7.278  -1.785  0.00  0.00    +0.246 C 
ATOM     11  O   UNL     1      -3.936   7.432  -2.962  0.00  0.00    -0.270 OA
ATOM     12  H   UNL     1      -2.712   6.113  -0.452  0.00  0.00    +0.150 HD
BRANCH  10  13
ATOM     13  C   UNL     1      -4.194   8.235  -0.784  0.00  0.00    +0.051 A 
ATOM     14  C   UNL     1      -3.893   8.065   0.569  0.00  0.00    +0.014 A 
ATOM     15  C   UNL     1      -4.378   8.961   1.498  0.00  0.00    +0.001 A 
ATOM     16  C   UNL     1      -5.161  10.028   1.093  0.00  0.00    +0.001 A 
ATOM     17  C   UNL     1      -5.463  10.203  -0.245  0.00  0.00    +0.016 A 
ATOM     18  C   UNL     1      -4.980   9.317  -1.187  0.00  0.00    +0.030 A 
ATOM     19 BR   UNL     1      -5.387   9.562  -3.017  0.00  0.00    -0.050 Br
ENDBRANCH  10  13
ENDBRANCH   7   9
ENDBRANCH   4   7
BRANCH   1  20
ATOM     20  S   UNL     1      -2.236   0.074  -1.365  0.00  0.00    -0.073 S 
BRANCH  20  21
ATOM     21  C   UNL     1      -1.359  -0.522   0.107  0.00  0.00    +0.140 C 
BRANCH  21  22
ATOM     22  C   UNL     1      -2.112  -0.103   1.344  0.00  0.00    +0.232 C 
ATOM     23  O   UNL     1      -3.304   0.113   1.284  0.00  0.00    -0.274 OA
ATOM     24  N   UNL     1      -1.461   0.031   2.516  0.00  0.00    -0.264 N 
ATOM     25  C   UNL     1      -2.155   0.417   3.657  0.00  0.00    +0.164 A 
ATOM     26  N   UNL     1      -3.437   0.686   3.782  0.00  0.00    -0.233 NA
ATOM     27  C   UNL     1      -3.949   1.043   4.945  0.00  0.00    +0.120 A 
ATOM     28  C   UNL     1      -3.096   1.119   5.997  0.00  0.00    +0.068 A 
ATOM     29  S   UNL     1      -1.561   0.648   5.215  0.00  0.00    -0.061 S 
ATOM     30  H   UNL     1      -0.507  -0.142   2.564  0.00  0.00    +0.157 HD
ENDBRANCH  21  22
BRANCH  21  32
ATOM     31  C   UNL     1      -0.382  -2.468  -1.117  0.00  0.00    +0.005 C 
ATOM     32  C   UNL     1      -1.264  -2.048   0.061  0.00  0.00    +0.020 C 
ENDBRANCH  21  32
ENDBRANCH  20  21
ENDBRANCH   1  20
TORSDOF 7
