REMARK  Name = ZINC12874556
REMARK  8 active torsions:
REMARK  status: ('A' for Active; 'I' for Inactive)
REMARK    1  A    between atoms: C_1  and  C_2
REMARK    2  A    between atoms: C_2  and  O_3
REMARK    3  A    between atoms: O_3  and  C_4
REMARK    4  A    between atoms: C_4  and  C_6
REMARK    5  A    between atoms: C_9  and  N_12
REMARK    6  A    between atoms: C_17  and  C_35
REMARK    7  A    between atoms: C_26  and  C_34
REMARK    8  A    between atoms: C_35  and  C_36
REMARK                            x       y       z     vdW  Elec       q    Type
REMARK                         _______ _______ _______ _____ _____    ______ ____
ROOT
ATOM      1  N   UNL     1      -1.200  -0.718   0.010  0.00  0.00    -0.210 N 
ATOM      2  C   UNL     1      -2.393  -0.124   0.128  0.00  0.00    +0.228 C 
ATOM      3  O   UNL     1      -2.573   1.070   0.240  0.00  0.00    -0.275 OA
ATOM      4  C   UNL     1      -3.482  -1.173   0.097  0.00  0.00    +0.074 C 
ATOM      5  C   UNL     1      -4.134  -1.260   1.494  0.00  0.00    -0.049 C 
ATOM      6  C   UNL     1      -2.963  -3.267   1.244  0.00  0.00    +0.050 C 
ATOM      7  C   UNL     1      -2.693  -2.503  -0.057  0.00  0.00    +0.088 C 
ATOM      8  C   UNL     1      -1.251  -2.050  -0.095  0.00  0.00    +0.229 C 
ATOM      9  O   UNL     1      -0.290  -2.781  -0.204  0.00  0.00    -0.275 OA
ATOM     10  C   UNL     1      -3.067  -4.746   1.004  0.00  0.00    -0.026 A 
ATOM     11  C   UNL     1      -3.890  -5.524   0.219  0.00  0.00    +0.008 A 
ATOM     12  C   UNL     1      -3.738  -6.899   0.206  0.00  0.00    -0.049 A 
ATOM     13  C   UNL     1      -2.758  -7.490   0.982  0.00  0.00    +0.025 A 
ATOM     14  C   UNL     1      -1.931  -6.715   1.770  0.00  0.00    +0.063 A 
ATOM     15  C   UNL     1      -2.078  -5.329   1.789  0.00  0.00    +0.054 A 
ATOM     16  N   UNL     1      -1.375  -4.346   2.490  0.00  0.00    -0.285 N 
ATOM     17  C   UNL     1      -1.832  -3.108   2.223  0.00  0.00    +0.211 C 
ATOM     18  O   UNL     1      -1.413  -2.066   2.682  0.00  0.00    -0.277 OA
ATOM     19 CL   UNL     1      -0.706  -7.470   2.741  0.00  0.00    -0.082 Cl
ATOM     20  C   UNL     1      -4.638  -7.750  -0.653  0.00  0.00    +0.044 C 
ATOM     21  H   UNL     1      -0.642  -4.534   3.098  0.00  0.00    +0.155 HD
ATOM     22  N   UNL     1      -4.194  -2.698   1.766  0.00  0.00    +0.394 N 
ATOM     23  H   UNL     1      -5.005  -3.115   1.296  0.00  0.00    -0.083 HD
ATOM     24  H   UNL     1      -4.261  -2.865   2.777  0.00  0.00    -0.083 HD
ENDROOT
BRANCH   1  28
ATOM     25  C   UNL     1       2.385   1.411  -0.013  0.00  0.00    +0.059 A 
ATOM     26  C   UNL     1       1.960   0.742  -1.165  0.00  0.00    +0.017 A 
ATOM     27  C   UNL     1       0.775   0.040  -1.153  0.00  0.00    +0.025 A 
ATOM     28  C   UNL     1       0.002  -0.004   0.002  0.00  0.00    +0.044 A 
ATOM     29  C   UNL     1       0.422   0.660   1.150  0.00  0.00    +0.025 A 
ATOM     30  C   UNL     1       1.605   1.364   1.146  0.00  0.00    +0.017 A 
BRANCH  25  31
ATOM     31  C   UNL     1       3.653   2.163  -0.021  0.00  0.00    +0.339 C 
ATOM     32  O   UNL     1       4.021   2.744   0.980  0.00  0.00    -0.245 OA
BRANCH  31  33
ATOM     33  O   UNL     1       4.404   2.207  -1.140  0.00  0.00    -0.461 OA
BRANCH  33  35
ATOM     34  C   UNL     1       6.349   2.902  -2.429  0.00  0.00    +0.048 C 
ATOM     35  C   UNL     1       5.639   2.967  -1.075  0.00  0.00    +0.229 C 
ENDBRANCH  33  35
ENDBRANCH  31  33
ENDBRANCH  25  31
ENDBRANCH   1  28
BRANCH   5  36
ATOM     36  C   UNL     1      -5.531  -0.637   1.469  0.00  0.00    +0.080 C 
BRANCH  36  37
ATOM     37  C   UNL     1      -6.130  -0.692   2.850  0.00  0.00    +0.209 C 
ATOM     38  O   UNL     1      -5.502  -1.181   3.765  0.00  0.00    -0.276 OA
ATOM     39  N   UNL     1      -7.365  -0.198   3.070  0.00  0.00    -0.329 N 
ATOM     40  H   UNL     1      -7.868   0.193   2.338  0.00  0.00    +0.145 HD
ATOM     41  H   UNL     1      -7.750  -0.233   3.959  0.00  0.00    +0.145 HD
ENDBRANCH  36  37
ENDBRANCH   5  36
TORSDOF 6
