REMARK  Name = ZINC35848637
REMARK  14 active torsions:
REMARK  status: ('A' for Active; 'I' for Inactive)
REMARK    1  A    between atoms: C_1  and  C_2
REMARK    2  A    between atoms: C_2  and  C_3
REMARK    3  A    between atoms: C_3  and  C_4
REMARK    4  A    between atoms: C_4  and  C_5
REMARK    5  A    between atoms: C_5  and  N_6
REMARK    6  A    between atoms: C_7  and  C_9
REMARK    7  A    between atoms: C_9  and  N_10
REMARK    8  A    between atoms: C_13  and  C_23
REMARK    9  A    between atoms: N_15  and  C_16
REMARK   10  A    between atoms: C_19  and  C_22
REMARK   11  A    between atoms: C_23  and  C_24
REMARK   12  A    between atoms: C_23  and  C_25
REMARK   13  A    between atoms: C_23  and  C_26
REMARK   14  A    between atoms: C_27  and  C_33
REMARK                            x       y       z     vdW  Elec       q    Type
REMARK                         _______ _______ _______ _____ _____    ______ ____
ROOT
ATOM      1  N   UNL     1       4.771 -10.602  -5.552  0.00  0.00    -0.246 N 
ATOM      2  C   UNL     1       3.799  -9.784  -6.146  0.00  0.00    +0.136 A 
ATOM      3  C   UNL     1       3.124 -10.111  -7.272  0.00  0.00    +0.034 A 
ATOM      4  C   UNL     1       2.251  -9.064  -7.569  0.00  0.00    +0.075 A 
ATOM      5  N   UNL     1       2.393  -8.138  -6.651  0.00  0.00    -0.169 NA
ATOM      6  N   UNL     1       3.366  -8.568  -5.735  0.00  0.00    -0.218 N 
ATOM      7  C   UNL     1       3.305 -11.395  -8.041  0.00  0.00    +0.118 C 
ATOM      8  S   UNL     1       4.901 -11.321  -8.932  0.00  0.00    -0.138 S 
ATOM      9  C   UNL     1       5.990 -10.547  -7.689  0.00  0.00    +0.166 C 
ATOM     10  C   UNL     1       5.733 -11.114  -6.327  0.00  0.00    +0.231 C 
ATOM     11  O   UNL     1       6.400 -12.045  -5.926  0.00  0.00    -0.274 OA
ENDROOT
BRANCH   6  12
ATOM     12  C   UNL     1       3.807  -7.869  -4.603  0.00  0.00    +0.067 A 
ATOM     13  C   UNL     1       5.165  -7.784  -4.324  0.00  0.00    +0.028 A 
ATOM     14  C   UNL     1       5.597  -7.094  -3.208  0.00  0.00    +0.005 A 
ATOM     15  C   UNL     1       4.679  -6.489  -2.369  0.00  0.00    -0.050 A 
ATOM     16  C   UNL     1       3.326  -6.572  -2.645  0.00  0.00    +0.005 A 
ATOM     17  C   UNL     1       2.889  -7.255  -3.763  0.00  0.00    +0.028 A 
ATOM     18  C   UNL     1       5.153  -5.738  -1.152  0.00  0.00    +0.044 C 
ENDBRANCH   6  12
BRANCH   7  19
ATOM     19  C   UNL     1       2.178 -11.557  -9.028  0.00  0.00    +0.007 A 
ATOM     20  C   UNL     1       2.130 -11.200 -10.335  0.00  0.00    +0.012 A 
ATOM     21  C   UNL     1       0.977 -11.449 -11.056  0.00  0.00    +0.008 A 
ATOM     22  C   UNL     1      -0.071 -12.044 -10.435  0.00  0.00    +0.045 A 
ATOM     23  S   UNL     1       0.563 -12.277  -8.782  0.00  0.00    -0.100 S 
ENDBRANCH   7  19
BRANCH   4  24
ATOM     24  C   UNL     1       1.308  -9.006  -8.743  0.00  0.00    +0.007 C 
ATOM     25  C   UNL     1       0.177 -10.017  -8.539  0.00  0.00    +0.017 C 
ATOM     26  C   UNL     1       0.720  -7.598  -8.856  0.00  0.00    +0.017 C 
ATOM     27  C   UNL     1       2.069  -9.345 -10.026  0.00  0.00    +0.017 C 
ENDBRANCH   4  24
BRANCH   1  28
ATOM     28  C   UNL     1       4.737 -10.884  -4.115  0.00  0.00    +0.210 C 
BRANCH  28  30
ATOM     29  N   UNL     1       3.554 -12.429  -2.587  0.00  0.00    -0.314 N 
ATOM     30  C   UNL     1       3.821 -12.052  -3.853  0.00  0.00    +0.231 C 
ATOM     31  O   UNL     1       3.325 -12.652  -4.783  0.00  0.00    -0.274 OA
ATOM     32  H   UNL     1       3.892 -11.905  -1.844  0.00  0.00    +0.149 HD
BRANCH  29  33
ATOM     33  C   UNL     1       2.754 -13.629  -2.334  0.00  0.00    +0.104 C 
BRANCH  33  34
ATOM     34  C   UNL     1       2.704 -13.901  -0.829  0.00  0.00    +0.019 C 
BRANCH  34  35
ATOM     35  C   UNL     1       1.869 -15.155  -0.564  0.00  0.00    +0.001 C 
BRANCH  35  37
ATOM     36  C   UNL     1       0.983 -16.680   1.205  0.00  0.00    +0.004 C 
ATOM     37  C   UNL     1       1.819 -15.427   0.940  0.00  0.00    -0.003 C 
ENDBRANCH  35  37
ENDBRANCH  34  35
ENDBRANCH  33  34
ENDBRANCH  29  33
ENDBRANCH  28  30
ENDBRANCH   1  28
TORSDOF 9
