REMARK  Name = ZINC64964069
REMARK  6 active torsions:
REMARK  status: ('A' for Active; 'I' for Inactive)
REMARK    1  A    between atoms: C_1  and  C_2
REMARK    2  A    between atoms: N_7  and  S_9
REMARK    3  A    between atoms: S_9  and  C_12
REMARK    4  A    between atoms: C_14  and  C_18
REMARK    5  A    between atoms: N_15  and  C_17
REMARK    6  A    between atoms: N_20  and  C_21
REMARK                            x       y       z     vdW  Elec       q    Type
REMARK                         _______ _______ _______ _____ _____    ______ ____
ROOT
ATOM      1  C   UNL     1       2.628  -3.381  -0.131  0.00  0.00    +0.124 A 
ATOM      2  C   UNL     1       2.028  -4.305  -0.991  0.00  0.00    +0.061 A 
ATOM      3  C   UNL     1       2.932  -4.566  -1.999  0.00  0.00    +0.106 A 
ATOM      4  N   UNL     1       4.057  -3.813  -1.752  0.00  0.00    -0.344 N 
ATOM      5  C   UNL     1       3.858  -3.095  -0.620  0.00  0.00    +0.114 A 
ATOM      6  C   UNL     1       5.266  -3.788  -2.579  0.00  0.00    +0.149 C 
ENDROOT
BRANCH   3   7
ATOM      7  C   UNL     1       2.731  -5.480  -3.128  0.00  0.00    +0.265 C 
ATOM      8  O   UNL     1       3.565  -5.549  -4.011  0.00  0.00    -0.268 OA
ATOM      9  N   UNL     1       1.621  -6.243  -3.188  0.00  0.00    -0.280 N 
ATOM     10  H   UNL     1       0.934  -6.154  -2.510  0.00  0.00    +0.155 HD
BRANCH   9  11
ATOM     11  C   UNL     1       1.461  -7.163  -4.229  0.00  0.00    +0.037 A 
ATOM     12  C   UNL     1       2.050  -6.920  -5.460  0.00  0.00    +0.023 A 
ATOM     13  C   UNL     1       1.890  -7.830  -6.487  0.00  0.00    +0.002 A 
ATOM     14  C   UNL     1       1.143  -8.972  -6.282  0.00  0.00    +0.004 A 
ATOM     15  C   UNL     1       0.549  -9.220  -5.051  0.00  0.00    -0.042 A 
ATOM     16  C   UNL     1       0.714  -8.323  -4.021  0.00  0.00    -0.023 A 
ATOM     17  C   UNL     1       0.118  -8.538  -2.654  0.00  0.00    +0.037 C 
ATOM     18  C   UNL     1      -0.991  -9.586  -2.710  0.00  0.00    +0.005 C 
ATOM     19  C   UNL     1      -0.446 -10.829  -3.424  0.00  0.00    +0.005 C 
ATOM     20  C   UNL     1      -0.259 -10.483  -4.904  0.00  0.00    +0.035 C 
ENDBRANCH   9  11
ENDBRANCH   3   7
BRANCH   1  21
ATOM     21  S   UNL     1       1.908  -2.702   1.327  0.00  0.00    +0.062 S 
ATOM     22  O   UNL     1       2.985  -2.283   2.155  0.00  0.00    -0.153 OA
ATOM     23  O   UNL     1       0.927  -3.631   1.767  0.00  0.00    -0.153 OA
BRANCH  21  29
ATOM     24  C   UNL     1       2.175   2.030  -0.489  0.00  0.00    +0.009 C 
ATOM     25  C   UNL     1       1.594   0.615  -0.506  0.00  0.00    +0.002 C 
ATOM     26  C   UNL     1       0.104   0.679  -0.847  0.00  0.00    +0.006 C 
ATOM     27  C   UNL     1      -0.472  -0.738  -0.896  0.00  0.00    +0.017 C 
ATOM     28  C   UNL     1      -0.318  -1.395   0.479  0.00  0.00    +0.109 C 
ATOM     29  N   UNL     1       1.095  -1.331   0.879  0.00  0.00    -0.176 NA
ATOM     30  C   UNL     1       1.772  -0.027   0.873  0.00  0.00    +0.112 C 
ENDBRANCH  21  29
ENDBRANCH   1  21
TORSDOF 4
