REMARK  Name = ZINC48264770
REMARK  10 active torsions:
REMARK  status: ('A' for Active; 'I' for Inactive)
REMARK    1  A    between atoms: C_1  and  C_2
REMARK    2  A    between atoms: C_4  and  C_17
REMARK    3  A    between atoms: C_5  and  C_16
REMARK    4  A    between atoms: N_6  and  C_7
REMARK    5  A    between atoms: C_17  and  C_19
REMARK    6  A    between atoms: C_19  and  S_20
REMARK    7  A    between atoms: S_20  and  C_21
REMARK    8  A    between atoms: C_22  and  C_29
REMARK    9  A    between atoms: C_23  and  N_28
REMARK   10  A    between atoms: C_25  and  N_27
REMARK                            x       y       z     vdW  Elec       q    Type
REMARK                         _______ _______ _______ _____ _____    ______ ____
ROOT
ATOM      1  C   UNL     1       0.043  -3.378  -1.450  0.00  0.00    +0.175 C 
ATOM      2  O   UNL     1       0.060  -4.471  -0.923  0.00  0.00    -0.291 OA
ENDROOT
BRANCH   1   6
ATOM      3  C   UNL     1      -0.018   1.503   0.010  0.00  0.00    +0.064 C 
ATOM      4  C   UNL     1       0.002  -0.004   0.002  0.00  0.00    +0.022 A 
ATOM      5  C   UNL     1       0.008  -0.777  -1.097  0.00  0.00    +0.034 A 
ATOM      6  C   UNL     1       0.030  -2.168  -0.626  0.00  0.00    +0.039 A 
ATOM      7  C   UNL     1       0.035  -2.101   0.755  0.00  0.00    +0.031 A 
ATOM      8  N   UNL     1       0.024  -0.802   1.111  0.00  0.00    -0.317 N 
ATOM      9  C   UNL     1       0.055  -3.276   1.698  0.00  0.00    +0.064 C 
BRANCH   8  10
ATOM     10  C   UNL     1       0.029  -0.335   2.434  0.00  0.00    +0.050 A 
ATOM     11  C   UNL     1       1.132  -0.562   3.246  0.00  0.00    +0.030 A 
ATOM     12  C   UNL     1       1.139  -0.103   4.549  0.00  0.00    +0.051 A 
ATOM     13  C   UNL     1       0.045   0.587   5.049  0.00  0.00    +0.166 A 
ATOM     14  C   UNL     1      -1.062   0.816   4.236  0.00  0.00    +0.168 A 
ATOM     15  C   UNL     1      -1.066   0.359   2.929  0.00  0.00    +0.075 A 
ATOM     16  O   UNL     1      -1.995   1.507   4.955  0.00  0.00    -0.453 OA
ATOM     17  C   UNL     1      -1.617   1.342   6.335  0.00  0.00    +0.466 C 
ATOM     18  O   UNL     1      -0.193   1.134   6.277  0.00  0.00    -0.453 OA
ENDBRANCH   8  10
ENDBRANCH   1   6
BRANCH   1  19
ATOM     19  C   UNL     1       0.035  -3.267  -2.953  0.00  0.00    +0.155 C 
BRANCH  19  20
ATOM     20  S   UNL     1       0.054  -4.927  -3.683  0.00  0.00    -0.097 S 
BRANCH  20  21
ATOM     21  C   UNL     1       0.042  -4.630  -5.420  0.00  0.00    +0.119 A 
ATOM     22  C   UNL     1       0.047  -5.715  -6.313  0.00  0.00    +0.104 A 
ATOM     23  C   UNL     1       0.038  -5.453  -7.700  0.00  0.00    +0.048 A 
ATOM     24  C   UNL     1       0.023  -4.128  -8.120  0.00  0.00    +0.067 A 
ATOM     25  C   UNL     1       0.019  -3.113  -7.172  0.00  0.00    +0.119 A 
ATOM     26  N   UNL     1       0.023  -3.386  -5.873  0.00  0.00    -0.225 NA
BRANCH  25  27
ATOM     27  N   UNL     1       0.005  -1.792  -7.590  0.00  0.00    -0.343 N 
ATOM     28  H   UNL     1      -0.001  -1.583  -8.537  0.00  0.00    +0.144 HD
ATOM     29  H   UNL     1       0.002  -1.076  -6.935  0.00  0.00    +0.144 HD
ENDBRANCH  25  27
BRANCH  23  30
ATOM     30  N   UNL     1       0.043  -6.491  -8.620  0.00  0.00    -0.357 N 
ATOM     31  H   UNL     1       0.053  -7.411  -8.312  0.00  0.00    +0.142 HD
ATOM     32  H   UNL     1       0.036  -6.297  -9.570  0.00  0.00    +0.142 HD
ENDBRANCH  23  30
BRANCH  22  33
ATOM     33  C   UNL     1       0.063  -7.061  -5.826  0.00  0.00    +0.104 C 
ATOM     34  N   UNL     1       0.075  -8.129  -5.439  0.00  0.00    -0.191 NA
ENDBRANCH  22  33
ENDBRANCH  20  21
ENDBRANCH  19  20
ENDBRANCH   1  19
TORSDOF 8
