REMARK  Name = ZINC33069217
REMARK  11 active torsions:
REMARK  status: ('A' for Active; 'I' for Inactive)
REMARK    1  A    between atoms: C_1  and  C_2
REMARK    2  A    between atoms: C_2  and  O_3
REMARK    3  A    between atoms: O_3  and  C_4
REMARK    4  A    between atoms: C_4  and  C_6
REMARK    5  A    between atoms: C_11  and  N_12
REMARK    6  A    between atoms: C_13  and  C_15
REMARK    7  A    between atoms: C_15  and  C_16
REMARK    8  A    between atoms: C_16  and  C_17
REMARK    9  A    between atoms: C_19  and  C_22
REMARK   10  A    between atoms: N_25  and  C_28
REMARK   11  A    between atoms: C_28  and  C_29
REMARK                            x       y       z     vdW  Elec       q    Type
REMARK                         _______ _______ _______ _____ _____    ______ ____
ROOT
ATOM      1  C   UNL     1       0.372   1.783  -4.561  0.00  0.00    +0.228 A 
ATOM      2  N   UNL     1      -0.593   1.995  -3.702  0.00  0.00    -0.192 NA
ATOM      3  C   UNL     1      -0.106   1.599  -2.503  0.00  0.00    +0.198 A 
ATOM      4  N   UNL     1       1.118   1.180  -2.703  0.00  0.00    -0.056 NA
ATOM      5  O   UNL     1       1.403   1.274  -3.878  0.00  0.00    -0.338 OA
ENDROOT
BRANCH   3   6
ATOM      6  C   UNL     1      -0.819   1.640  -1.208  0.00  0.00    -0.007 C 
ATOM      7  C   UNL     1      -2.050   2.100  -1.181  0.00  0.00    -0.038 C 
ATOM      8  C   UNL     1      -2.863   2.192   0.079  0.00  0.00    -0.050 C 
ATOM      9  N   UNL     1      -2.271   1.353   1.128  0.00  0.00    +0.385 N 
ATOM     10  C   UNL     1      -0.838   1.653   1.272  0.00  0.00    -0.073 C 
ATOM     11  C   UNL     1      -0.107   1.154   0.023  0.00  0.00    +0.020 C 
ATOM     12  H   UNL     1      -2.379   0.299   0.831  0.00  0.00    -0.081 HD
BRANCH   9  13
ATOM     13  C   UNL     1      -2.977   1.530   2.404  0.00  0.00    -0.043 C 
BRANCH  13  14
ATOM     14  C   UNL     1      -2.764   2.934   2.906  0.00  0.00    -0.064 A 
ATOM     15  C   UNL     1      -1.692   3.218   3.731  0.00  0.00    +0.003 A 
ATOM     16  C   UNL     1      -1.493   4.508   4.187  0.00  0.00    +0.020 A 
ATOM     17  C   UNL     1      -2.373   5.512   3.827  0.00  0.00    +0.041 A 
ATOM     18  C   UNL     1      -3.449   5.226   3.005  0.00  0.00    +0.020 A 
ATOM     19  C   UNL     1      -3.644   3.938   2.545  0.00  0.00    +0.003 A 
ATOM     20 CL   UNL     1      -2.128   7.131   4.404  0.00  0.00    -0.084 Cl
ENDBRANCH  13  14
ENDBRANCH   9  13
ENDBRANCH   3   6
BRANCH   1  21
ATOM     21  C   UNL     1       0.329   2.061  -6.041  0.00  0.00    +0.108 C 
BRANCH  21  22
ATOM     22  C   UNL     1       0.816   3.486  -6.307  0.00  0.00    +0.105 C 
BRANCH  22  24
ATOM     23  N   UNL     1       1.160   4.966  -8.259  0.00  0.00    -0.285 N 
ATOM     24  C   UNL     1       0.773   3.764  -7.788  0.00  0.00    +0.218 C 
ATOM     25  O   UNL     1       0.391   2.906  -8.555  0.00  0.00    -0.275 OA
ATOM     26  H   UNL     1       1.437   5.768  -7.560  0.00  0.00    +0.155 HD
BRANCH  23  32
ATOM     27  C   UNL     1       2.210   6.011 -10.177  0.00  0.00    +0.080 A 
ATOM     28  C   UNL     1       2.248   6.229 -11.557  0.00  0.00    +0.017 A 
ATOM     29  C   UNL     1       1.305   5.642 -12.372  0.00  0.00    +0.001 A 
ATOM     30  C   UNL     1       0.318   4.833 -11.831  0.00  0.00    +0.002 A 
ATOM     31  C   UNL     1       0.271   4.604 -10.471  0.00  0.00    +0.024 A 
ATOM     32  C   UNL     1       1.209   5.192  -9.633  0.00  0.00    +0.047 A 
BRANCH  27  33
ATOM     33  C   UNL     1       3.215   6.636  -9.300  0.00  0.00    +0.341 C 
ATOM     34  O   UNL     1       3.240   6.366  -8.115  0.00  0.00    -0.245 OA
BRANCH  33  35
ATOM     35  O   UNL     1       4.108   7.506  -9.811  0.00  0.00    -0.461 OA
BRANCH  35  37
ATOM     36  C   UNL     1       5.992   9.040  -9.646  0.00  0.00    +0.048 C 
ATOM     37  C   UNL     1       5.069   8.083  -8.888  0.00  0.00    +0.229 C 
ENDBRANCH  35  37
ENDBRANCH  33  35
ENDBRANCH  27  33
ENDBRANCH  23  32
ENDBRANCH  22  24
ENDBRANCH  21  22
ENDBRANCH   1  21
TORSDOF 10
