REMARK  Name = ZINC05093607
REMARK  5 active torsions:
REMARK  status: ('A' for Active; 'I' for Inactive)
REMARK    1  A    between atoms: C_1  and  C_2
REMARK    2  A    between atoms: C_8  and  C_23
REMARK    3  A    between atoms: C_12  and  C_13
REMARK    4  A    between atoms: N_15  and  C_16
REMARK    5  A    between atoms: N_15  and  C_17
REMARK                            x       y       z     vdW  Elec       q    Type
REMARK                         _______ _______ _______ _____ _____    ______ ____
ROOT
ATOM      1  C   UNL     1       0.632   1.480   0.065  0.00  0.00    +0.046 C 
ATOM      2  C   UNL     1       0.751  -0.022   0.089  0.00  0.00    -0.017 A 
ATOM      3  C   UNL     1       1.053  -0.720  -1.083  0.00  0.00    +0.076 A 
ATOM      4  C   UNL     1       1.294  -0.198  -2.447  0.00  0.00    +0.260 A 
ATOM      5  O   UNL     1       1.242   0.998  -2.676  0.00  0.00    -0.267 OA
ATOM      6  N   UNL     1       1.571  -1.078  -3.428  0.00  0.00    -0.311 N 
ATOM      7  H   UNL     1       1.732  -0.752  -4.328  0.00  0.00    +0.170 HD
ATOM      8  C   UNL     1       1.632  -2.411  -3.184  0.00  0.00    +0.108 A 
ATOM      9  N   UNL     1       1.425  -2.904  -1.993  0.00  0.00    -0.227 NA
ATOM     10  C   UNL     1       1.144  -2.125  -0.957  0.00  0.00    +0.116 A 
ATOM     11  S   UNL     1       0.809  -2.402   0.764  0.00  0.00    -0.064 S 
ATOM     12  C   UNL     1       0.571  -0.704   1.257  0.00  0.00    +0.080 A 
ATOM     13  C   UNL     1       1.947  -3.349  -4.320  0.00  0.00    +0.086 C 
ENDROOT
BRANCH  12  14
ATOM     14  C   UNL     1       0.257  -0.172   2.587  0.00  0.00    +0.254 C 
ATOM     15  O   UNL     1       0.273   1.029   2.782  0.00  0.00    -0.269 OA
ATOM     16  N   UNL     1      -0.050  -1.014   3.594  0.00  0.00    -0.297 N 
ATOM     17  C   UNL     1      -0.033  -2.461   3.370  0.00  0.00    +0.132 C 
BRANCH  16  18
ATOM     18  C   UNL     1      -0.400  -0.481   4.913  0.00  0.00    +0.076 C 
ATOM     19  C   UNL     1       0.591  -1.005   5.955  0.00  0.00    +0.022 C 
ATOM     20  C   UNL     1       0.225  -0.449   7.332  0.00  0.00    +0.002 C 
ATOM     21  C   UNL     1      -1.190  -0.897   7.704  0.00  0.00    +0.000 C 
ATOM     22  C   UNL     1      -2.181  -0.373   6.662  0.00  0.00    +0.002 C 
ATOM     23  C   UNL     1      -1.815  -0.929   5.285  0.00  0.00    +0.022 C 
ENDBRANCH  16  18
ENDBRANCH  12  14
TORSDOF 2
