REMARK  Name = ZINC16789100
REMARK  9 active torsions:
REMARK  status: ('A' for Active; 'I' for Inactive)
REMARK    1  A    between atoms: C_1  and  C_2
REMARK    2  A    between atoms: C_3  and  C_7
REMARK    3  A    between atoms: C_10  and  S_13
REMARK    4  A    between atoms: N_11  and  N_12
REMARK    5  A    between atoms: S_13  and  C_14
REMARK    6  A    between atoms: C_14  and  C_16
REMARK    7  A    between atoms: C_14  and  C_17
REMARK    8  A    between atoms: N_19  and  C_20
REMARK    9  A    between atoms: C_25  and  C_26
REMARK                            x       y       z     vdW  Elec       q    Type
REMARK                         _______ _______ _______ _____ _____    ______ ____
ROOT
ATOM      1  C   UNL     1      -5.224   4.988   0.042  0.00  0.00    +0.137 C 
ATOM      2  C   UNL     1      -4.657   5.553   1.346  0.00  0.00    +0.029 C 
ENDROOT
BRANCH   1   3
ATOM      3  C   UNL     1      -6.687   5.334  -0.061  0.00  0.00    +0.230 C 
ATOM      4  O   UNL     1      -7.526   4.540   0.309  0.00  0.00    -0.274 OA
ATOM      5  N   UNL     1      -7.063   6.526  -0.566  0.00  0.00    -0.284 N 
ATOM      6  H   UNL     1      -6.394   7.192  -0.787  0.00  0.00    +0.155 HD
BRANCH   5   7
ATOM      7  C   UNL     1      -8.420   6.803  -0.770  0.00  0.00    +0.045 A 
ATOM      8  C   UNL     1      -9.321   5.763  -0.960  0.00  0.00    +0.025 A 
ATOM      9  C   UNL     1     -10.659   6.038  -1.161  0.00  0.00    +0.022 A 
ATOM     10  C   UNL     1     -11.103   7.349  -1.173  0.00  0.00    +0.042 A 
ATOM     11  C   UNL     1     -10.207   8.387  -0.985  0.00  0.00    +0.034 A 
ATOM     12  C   UNL     1      -8.868   8.117  -0.777  0.00  0.00    +0.077 A 
ATOM     13 CL   UNL     1     -12.785   7.693  -1.427  0.00  0.00    -0.084 Cl
BRANCH  12  14
ATOM     14  C   UNL     1      -7.894   9.247  -0.566  0.00  0.00    +0.419 C 
ATOM     15  F   UNL     1      -8.578  10.467  -0.616  0.00  0.00    -0.166 F 
ATOM     16  F   UNL     1      -7.282   9.107   0.684  0.00  0.00    -0.166 F 
ATOM     17  F   UNL     1      -6.920   9.217  -1.569  0.00  0.00    -0.166 F 
ENDBRANCH  12  14
ENDBRANCH   5   7
ENDBRANCH   1   3
BRANCH   1  18
ATOM     18  S   UNL     1      -5.027   3.188   0.029  0.00  0.00    -0.072 S 
BRANCH  18  22
ATOM     19  C   UNL     1      -1.217   2.323  -0.024  0.00  0.00    +0.185 A 
ATOM     20  N   UNL     1      -1.216   3.636  -0.011  0.00  0.00    -0.127 NA
ATOM     21  N   UNL     1      -2.423   4.076   0.001  0.00  0.00    -0.121 NA
ATOM     22  C   UNL     1      -3.269   3.073   0.006  0.00  0.00    +0.209 A 
ATOM     23  N   UNL     1      -2.532   1.921  -0.010  0.00  0.00    -0.224 N 
BRANCH  19  26
ATOM     24  C   UNL     1       1.778   3.246  -0.065  0.00  0.00    +0.087 C 
ATOM     25  C   UNL     1       1.276   1.825  -0.064  0.00  0.00    +0.112 A 
ATOM     26  C   UNL     1      -0.029   1.443  -0.044  0.00  0.00    +0.061 A 
ATOM     27  C   UNL     1      -0.013  -0.025  -0.053  0.00  0.00    +0.053 A 
ATOM     28  C   UNL     1       1.281  -0.383  -0.077  0.00  0.00    +0.196 A 
ATOM     29  O   UNL     1       2.040   0.724  -0.083  0.00  0.00    -0.467 OA
ENDBRANCH  19  26
BRANCH  23  30
ATOM     30  N   UNL     1      -3.004   0.639  -0.011  0.00  0.00    -0.295 N 
ATOM     31  H   UNL     1      -3.116   0.294   0.930  0.00  0.00    +0.163 HD
ATOM     32  H   UNL     1      -3.869   0.573  -0.527  0.00  0.00    +0.163 HD
ENDBRANCH  23  30
ENDBRANCH  18  22
ENDBRANCH   1  18
TORSDOF 7
