REMARK  Name = ZINC09946380
REMARK  9 active torsions:
REMARK  status: ('A' for Active; 'I' for Inactive)
REMARK    1  A    between atoms: C_1  and  C_2
REMARK    2  A    between atoms: C_8  and  N_10
REMARK    3  A    between atoms: C_11  and  C_13
REMARK    4  A    between atoms: C_13  and  S_14
REMARK    5  A    between atoms: S_14  and  C_15
REMARK    6  A    between atoms: C_18  and  C_30
REMARK    7  A    between atoms: N_19  and  C_20
REMARK    8  A    between atoms: C_25  and  C_26
REMARK    9  A    between atoms: C_30  and  N_66
REMARK                            x       y       z     vdW  Elec       q    Type
REMARK                         _______ _______ _______ _____ _____    ______ ____
ROOT
ATOM      1  C   UNL     1       2.223  -4.893   3.935  0.00  0.00    +0.197 A 
ATOM      2  N   UNL     1       1.267  -5.499   3.270  0.00  0.00    -0.122 NA
ATOM      3  N   UNL     1       1.415  -6.773   3.353  0.00  0.00    -0.135 NA
ATOM      4  C   UNL     1       2.466  -7.057   4.070  0.00  0.00    +0.122 A 
ATOM      5  N   UNL     1       3.023  -5.869   4.463  0.00  0.00    -0.275 N 
ENDROOT
BRANCH   5   6
ATOM      6  C   UNL     1       4.173  -5.691   5.246  0.00  0.00    +0.062 A 
ATOM      7  C   UNL     1       4.067  -5.612   6.628  0.00  0.00    +0.027 A 
ATOM      8  C   UNL     1       5.202  -5.442   7.397  0.00  0.00    +0.002 A 
ATOM      9  C   UNL     1       6.441  -5.338   6.791  0.00  0.00    +0.001 A 
ATOM     10  C   UNL     1       6.548  -5.410   5.415  0.00  0.00    +0.014 A 
ATOM     11  C   UNL     1       5.417  -5.586   4.641  0.00  0.00    +0.079 A 
BRANCH  11  12
ATOM     12  C   UNL     1       5.535  -5.663   3.140  0.00  0.00    +0.419 C 
ATOM     13  F   UNL     1       6.878  -5.533   2.771  0.00  0.00    -0.166 F 
ATOM     14  F   UNL     1       5.047  -6.897   2.698  0.00  0.00    -0.166 F 
ATOM     15  F   UNL     1       4.789  -4.632   2.560  0.00  0.00    -0.166 F 
ENDBRANCH  11  12
ENDBRANCH   5   6
BRANCH   1  16
ATOM     16  S   UNL     1       2.438  -3.153   4.109  0.00  0.00    -0.076 S 
BRANCH  16  17
ATOM     17  C   UNL     1       1.023  -2.564   3.147  0.00  0.00    +0.173 C 
BRANCH  17  19
ATOM     18  N   UNL     1       0.031  -0.392   2.498  0.00  0.00    -0.312 N 
ATOM     19  C   UNL     1       1.002  -1.057   3.155  0.00  0.00    +0.224 C 
ATOM     20  O   UNL     1       1.860  -0.442   3.752  0.00  0.00    -0.275 OA
ATOM     21  H   UNL     1      -0.655  -0.884   2.020  0.00  0.00    +0.149 HD
BRANCH  18  28
ATOM     22  C   UNL     1      -0.013   1.086   0.008  0.00  0.00    +0.009 C 
ATOM     23  C   UNL     1      -0.729   1.579   1.267  0.00  0.00    +0.006 C 
ATOM     24  C   UNL     1      -2.164   1.050   1.278  0.00  0.00    +0.005 C 
ATOM     25  C   UNL     1      -2.880   1.543   2.537  0.00  0.00    +0.000 C 
ATOM     26  C   UNL     1      -2.140   1.036   3.776  0.00  0.00    +0.002 C 
ATOM     27  C   UNL     1      -0.705   1.566   3.765  0.00  0.00    +0.022 C 
ATOM     28  C   UNL     1       0.011   1.072   2.506  0.00  0.00    +0.076 C 
ENDBRANCH  18  28
ENDBRANCH  17  19
ENDBRANCH  16  17
ENDBRANCH   1  16
BRANCH   4  29
ATOM     29  C   UNL     1       2.976  -8.436   4.401  0.00  0.00    -0.001 C 
BRANCH  29  35
ATOM     30  C   UNL     1       3.253  -9.039   2.073  0.00  0.00    -0.078 C 
ATOM     31  C   UNL     1       4.293  -9.345   0.992  0.00  0.00    -0.019 C 
ATOM     32  C   UNL     1       5.051 -10.622   1.368  0.00  0.00    -0.004 C 
ATOM     33  C   UNL     1       5.702 -10.434   2.741  0.00  0.00    -0.019 C 
ATOM     34  C   UNL     1       4.621 -10.096   3.771  0.00  0.00    -0.078 C 
ATOM     35  N   UNL     1       3.946  -8.845   3.364  0.00  0.00    +0.384 N 
ATOM     36  H   UNL     1       4.651  -8.106   3.257  0.00  0.00    -0.081 HD
ENDBRANCH  29  35
ENDBRANCH   4  29
TORSDOF 8
