REMARK  Name = ZINC36587060
REMARK  19 active torsions:
REMARK  status: ('A' for Active; 'I' for Inactive)
REMARK    1  A    between atoms: C_1  and  C_2
REMARK    2  A    between atoms: C_3  and  C_4
REMARK    3  A    between atoms: C_4  and  C_6
REMARK    4  A    between atoms: C_4  and  N_17
REMARK    5  A    between atoms: N_8  and  C_9
REMARK    6  A    between atoms: C_9  and  C_10
REMARK    7  A    between atoms: C_9  and  C_11
REMARK    8  A    between atoms: C_9  and  C_12
REMARK    9  A    between atoms: C_12  and  C_13
REMARK   10  A    between atoms: C_13  and  C_14
REMARK   11  A    between atoms: C_13  and  C_15
REMARK   12  A    between atoms: C_13  and  C_16
REMARK   13  A    between atoms: N_17  and  C_28
REMARK   14  A    between atoms: C_18  and  C_20
REMARK   15  A    between atoms: C_24  and  O_27
REMARK   16  A    between atoms: C_25  and  O_26
REMARK   17  A    between atoms: C_28  and  C_29
REMARK   18  A    between atoms: C_28  and  C_30
REMARK   19  A    between atoms: C_28  and  C_31
REMARK                            x       y       z     vdW  Elec       q    Type
REMARK                         _______ _______ _______ _____ _____    ______ ____
ROOT
ATOM      1  N   UNL     1       2.749  -2.742  -0.911  0.00  0.00    -0.277 N 
ATOM      2  C   UNL     1       3.132  -3.472   0.155  0.00  0.00    +0.252 C 
ATOM      3  O   UNL     1       4.030  -4.284   0.046  0.00  0.00    -0.270 OA
ENDROOT
BRANCH   2   4
ATOM      4  C   UNL     1       2.460  -3.286   1.456  0.00  0.00    +0.082 A 
ATOM      5  C   UNL     1       1.374  -2.413   1.567  0.00  0.00    +0.017 A 
ATOM      6  C   UNL     1       0.750  -2.242   2.783  0.00  0.00    +0.005 A 
ATOM      7  C   UNL     1       1.192  -2.931   3.900  0.00  0.00    +0.049 A 
ATOM      8  C   UNL     1       2.267  -3.799   3.806  0.00  0.00    +0.159 A 
ATOM      9  C   UNL     1       2.904  -3.986   2.584  0.00  0.00    +0.171 A 
BRANCH   9  10
ATOM     10  O   UNL     1       3.955  -4.841   2.486  0.00  0.00    -0.503 OA
ATOM     11  H   UNL     1       4.814  -4.428   2.650  0.00  0.00    +0.292 HD
ENDBRANCH   9  10
BRANCH   8  12
ATOM     12  O   UNL     1       2.696  -4.472   4.908  0.00  0.00    -0.503 OA
ATOM     13  H   UNL     1       2.268  -5.329   5.036  0.00  0.00    +0.292 HD
ENDBRANCH   8  12
ENDBRANCH   2   4
BRANCH   1  14
ATOM     14  C   UNL     1       1.680  -1.750  -0.774  0.00  0.00    +0.030 C 
ATOM     15  C   UNL     1       1.456  -1.054  -2.118  0.00  0.00    +0.031 C 
ATOM     16  C   UNL     1       0.389  -2.448  -0.340  0.00  0.00    +0.031 C 
ATOM     17  C   UNL     1       2.078  -0.713   0.278  0.00  0.00    +0.031 C 
ENDBRANCH   1  14
BRANCH   1  18
ATOM     18  C   UNL     1       3.402  -2.941  -2.207  0.00  0.00    +0.186 C 
BRANCH  18  19
ATOM     19  C   UNL     1       2.380  -3.379  -3.224  0.00  0.00    +0.238 C 
ATOM     20  O   UNL     1       1.210  -3.458  -2.912  0.00  0.00    -0.273 OA
ATOM     21  N   UNL     1       2.764  -3.682  -4.479  0.00  0.00    -0.308 N 
ATOM     22  H   UNL     1       3.699  -3.619  -4.729  0.00  0.00    +0.149 HD
BRANCH  21  23
ATOM     23  C   UNL     1       1.770  -4.107  -5.467  0.00  0.00    +0.030 C 
ATOM     24  C   UNL     1       1.136  -5.426  -5.018  0.00  0.00    +0.031 C 
ATOM     25  C   UNL     1       0.684  -3.037  -5.592  0.00  0.00    +0.031 C 
BRANCH  23  26
ATOM     26  C   UNL     1       2.450  -4.304  -6.824  0.00  0.00    +0.031 C 
BRANCH  26  27
ATOM     27  C   UNL     1       3.300  -3.075  -7.150  0.00  0.00    -0.036 C 
ATOM     28  C   UNL     1       4.177  -2.727  -5.946  0.00  0.00    +0.010 C 
ATOM     29  C   UNL     1       4.189  -3.376  -8.359  0.00  0.00    +0.010 C 
ATOM     30  C   UNL     1       2.385  -1.892  -7.473  0.00  0.00    +0.010 C 
ENDBRANCH  26  27
ENDBRANCH  23  26
ENDBRANCH  21  23
ENDBRANCH  18  19
BRANCH  18  33
ATOM     31  C   UNL     1       4.925   0.584  -2.227  0.00  0.00    +0.035 C 
ATOM     32  C   UNL     1       4.277  -0.702  -1.783  0.00  0.00    -0.032 C 
ATOM     33  C   UNL     1       4.034  -1.649  -2.655  0.00  0.00    +0.000 C 
ENDBRANCH  18  33
ENDBRANCH   1  18
TORSDOF 10
