REMARK  Name = ZINC01555749
REMARK  7 active torsions:
REMARK  status: ('A' for Active; 'I' for Inactive)
REMARK    1  A    between atoms: C_1  and  N_48
REMARK    2  A    between atoms: C_5  and  C_7
REMARK    3  A    between atoms: C_7  and  C_8
REMARK    4  A    between atoms: C_8  and  N_9
REMARK    5  A    between atoms: C_12  and  C_20
REMARK    6  A    between atoms: C_14  and  C_16
REMARK    7  A    between atoms: C_23  and  C_26
REMARK                            x       y       z     vdW  Elec       q    Type
REMARK                         _______ _______ _______ _____ _____    ______ ____
ROOT
ATOM      1  N   UNL     1      -1.155   1.343   3.673  0.00  0.00    -0.313 N 
ATOM      2  C   UNL     1      -0.888   0.850   4.934  0.00  0.00    +0.219 A 
ATOM      3  N   UNL     1      -1.630   1.232   5.968  0.00  0.00    -0.195 NA
ATOM      4  C   UNL     1      -1.369   0.755   7.181  0.00  0.00    +0.165 A 
ATOM      5  N   UNL     1      -0.364  -0.102   7.354  0.00  0.00    -0.208 NA
ATOM      6  C   UNL     1       0.371  -0.479   6.323  0.00  0.00    +0.186 A 
ATOM      7  N   UNL     1       0.110  -0.011   5.115  0.00  0.00    -0.195 NA
ATOM      8  H   UNL     1      -1.885   1.967   3.541  0.00  0.00    +0.149 HD
ENDROOT
BRANCH   4   9
ATOM      9  C   UNL     1      -2.194   1.177   8.338  0.00  0.00    +0.019 A 
ATOM     10  C   UNL     1      -3.242   2.078   8.159  0.00  0.00    +0.012 A 
ATOM     11  C   UNL     1      -4.009   2.463   9.239  0.00  0.00    +0.008 A 
ATOM     12  C   UNL     1      -3.734   1.965  10.499  0.00  0.00    +0.003 A 
ATOM     13  C   UNL     1      -2.692   1.074  10.684  0.00  0.00    +0.008 A 
ATOM     14  C   UNL     1      -1.921   0.677   9.611  0.00  0.00    +0.012 A 
BRANCH  12  15
ATOM     15  C   UNL     1      -4.572   2.393  11.676  0.00  0.00    +0.216 C 
ATOM     16 CL   UNL     1      -3.847   3.863  12.427  0.00  0.00    -0.078 Cl
ATOM     17 CL   UNL     1      -6.245   2.768  11.117  0.00  0.00    -0.078 Cl
ATOM     18 CL   UNL     1      -4.628   1.063  12.891  0.00  0.00    -0.078 Cl
ENDBRANCH  12  15
ENDBRANCH   4   9
BRANCH   6  19
ATOM     19  C   UNL     1       1.507  -1.449   6.524  0.00  0.00    +0.250 C 
ATOM     20 CL   UNL     1       1.028  -3.072   5.903  0.00  0.00    -0.075 Cl
ATOM     21 CL   UNL     1       2.960  -0.867   5.629  0.00  0.00    -0.075 Cl
ATOM     22 CL   UNL     1       1.891  -1.567   8.282  0.00  0.00    -0.075 Cl
ENDBRANCH   6  19
BRANCH   1  23
ATOM     23  C   UNL     1      -0.336   0.921   2.533  0.00  0.00    +0.103 C 
BRANCH  23  24
ATOM     24  C   UNL     1      -0.840   1.608   1.262  0.00  0.00    +0.003 C 
BRANCH  24  29
ATOM     25  C   UNL     1       2.142   0.365   0.752  0.00  0.00    -0.096 C 
ATOM     26  C   UNL     1       1.838   1.740  -1.224  0.00  0.00    -0.079 C 
ATOM     27  C   UNL     1       0.644   1.566  -2.185  0.00  0.00    -0.020 C 
ATOM     28  C   UNL     1      -0.584   1.730  -1.252  0.00  0.00    -0.017 C 
ATOM     29  C   UNL     1      -0.076   1.065   0.052  0.00  0.00    -0.068 C 
ATOM     30  N   UNL     1       1.345   1.457   0.134  0.00  0.00    +0.380 N 
ATOM     31  H   UNL     1       1.433   2.302   0.710  0.00  0.00    -0.082 HD
ENDBRANCH  24  29
ENDBRANCH  23  24
ENDBRANCH   1  23
TORSDOF 6
