REMARK  Name = ZINC54505521
REMARK  12 active torsions:
REMARK  status: ('A' for Active; 'I' for Inactive)
REMARK    1  A    between atoms: C_1  and  C_2
REMARK    2  A    between atoms: C_2  and  N_16
REMARK    3  A    between atoms: N_9  and  C_12
REMARK    4  A    between atoms: C_12  and  C_13
REMARK    5  A    between atoms: C_13  and  O_14
REMARK    6  A    between atoms: O_14  and  C_15
REMARK    7  A    between atoms: N_16  and  C_17
REMARK    8  A    between atoms: C_17  and  C_18
REMARK    9  A    between atoms: C_23  and  C_24
REMARK   10  A    between atoms: C_24  and  N_25
REMARK   11  A    between atoms: N_25  and  C_26
REMARK   12  A    between atoms: N_25  and  C_27
REMARK                            x       y       z     vdW  Elec       q    Type
REMARK                         _______ _______ _______ _____ _____    ______ ____
ROOT
ATOM      1  C   UNL     1      -0.007   1.502  -0.063  0.00  0.00    +0.061 C 
ATOM      2  C   UNL     1       0.002  -0.004   0.002  0.00  0.00    +0.018 C 
ATOM      3  C   UNL     1       0.143  -0.643   1.220  0.00  0.00    +0.116 C 
ATOM      4  C   UNL     1       0.130   0.108   2.488  0.00  0.00    +0.256 C 
ATOM      5  O   UNL     1      -0.006   1.317   2.497  0.00  0.00    -0.270 OA
ATOM      6  N   UNL     1       0.272  -0.581   3.639  0.00  0.00    -0.263 N 
ATOM      7  C   UNL     1       0.423  -1.913   3.643  0.00  0.00    +0.146 C 
ATOM      8  S   UNL     1       0.597  -2.704   5.151  0.00  0.00    -0.018 S 
ATOM      9  N   UNL     1       0.444  -2.659   2.529  0.00  0.00    -0.247 N 
ATOM     10  C   UNL     1       0.307  -2.105   1.307  0.00  0.00    +0.259 C 
ATOM     11  O   UNL     1       0.323  -2.793   0.304  0.00  0.00    -0.269 OA
ATOM     12  H   UNL     1       0.266  -0.102   4.482  0.00  0.00    +0.157 HD
ENDROOT
BRANCH   2  13
ATOM     13  N   UNL     1      -0.127  -0.728  -1.128  0.00  0.00    -0.342 N 
ATOM     14  H   UNL     1      -0.206  -1.694  -1.079  0.00  0.00    +0.146 HD
BRANCH  13  15
ATOM     15  C   UNL     1      -0.149  -0.057  -2.430  0.00  0.00    +0.136 C 
BRANCH  15  16
ATOM     16  C   UNL     1      -0.301  -1.084  -3.522  0.00  0.00    -0.029 A 
ATOM     17  C   UNL     1       0.806  -1.507  -4.233  0.00  0.00    +0.005 A 
ATOM     18  C   UNL     1       0.666  -2.449  -5.235  0.00  0.00    +0.000 A 
ATOM     19  C   UNL     1      -0.581  -2.968  -5.526  0.00  0.00    +0.000 A 
ATOM     20  C   UNL     1      -1.689  -2.546  -4.815  0.00  0.00    +0.002 A 
ATOM     21  C   UNL     1      -1.548  -1.607  -3.810  0.00  0.00    -0.059 A 
BRANCH  21  22
ATOM     22  C   UNL     1      -2.755  -1.150  -3.031  0.00  0.00    -0.043 C 
BRANCH  22  23
ATOM     23  N   UNL     1      -3.216   0.142  -3.556  0.00  0.00    +0.379 N 
ATOM     24  C   UNL     1      -3.687  -0.030  -4.937  0.00  0.00    -0.096 C 
ATOM     25  C   UNL     1      -4.316   0.644  -2.722  0.00  0.00    -0.096 C 
ATOM     26  H   UNL     1      -2.454   0.803  -3.541  0.00  0.00    -0.082 HD
ENDBRANCH  22  23
ENDBRANCH  21  22
ENDBRANCH  15  16
ENDBRANCH  13  15
ENDBRANCH   2  13
BRANCH   9  27
ATOM     27  C   UNL     1       0.615  -4.110   2.643  0.00  0.00    +0.143 C 
BRANCH  27  28
ATOM     28  C   UNL     1      -0.757  -4.776   2.763  0.00  0.00    +0.179 C 
BRANCH  28  29
ATOM     29  O   UNL     1      -1.492  -4.575   1.554  0.00  0.00    -0.381 OA
ATOM     30  C   UNL     1      -2.795  -5.162   1.562  0.00  0.00    +0.194 C 
ENDBRANCH  28  29
ENDBRANCH  27  28
ENDBRANCH   9  27
TORSDOF 8
