REMARK  Name = ZINC08382512
REMARK  16 active torsions:
REMARK  status: ('A' for Active; 'I' for Inactive)
REMARK    1  A    between atoms: C_1  and  C_2
REMARK    2  A    between atoms: C_2  and  C_4
REMARK    3  A    between atoms: C_2  and  C_10
REMARK    4  A    between atoms: C_4  and  C_5
REMARK    5  A    between atoms: C_5  and  C_6
REMARK    6  A    between atoms: C_6  and  C_7
REMARK    7  A    between atoms: C_7  and  C_8
REMARK    8  A    between atoms: C_7  and  C_9
REMARK    9  A    between atoms: C_16  and  C_43
REMARK   10  A    between atoms: C_24  and  O_39
REMARK   11  A    between atoms: C_26  and  N_35
REMARK   12  A    between atoms: C_27  and  C_34
REMARK   13  A    between atoms: C_31  and  O_33
REMARK   14  A    between atoms: C_36  and  C_38
REMARK   15  A    between atoms: O_39  and  C_40
REMARK   16  A    between atoms: C_40  and  C_42
REMARK                            x       y       z     vdW  Elec       q    Type
REMARK                         _______ _______ _______ _____ _____    ______ ____
ROOT
ATOM      1  C   UNL     1       0.694  -0.270   1.372  0.00  0.00    -0.002 C 
ATOM      2  C   UNL     1       2.144   0.239   1.495  0.00  0.00    +0.004 C 
ATOM      3  C   UNL     1       3.023  -1.004   1.756  0.00  0.00    +0.004 C 
ATOM      4  C   UNL     1       2.193  -2.180   1.161  0.00  0.00    -0.001 C 
ATOM      5  C   UNL     1       0.761  -1.790   1.574  0.00  0.00    -0.026 C 
ATOM      6  C   UNL     1      -0.303  -2.529   0.795  0.00  0.00    +0.007 C 
ATOM      7  C   UNL     1      -0.088  -2.381  -0.710  0.00  0.00    +0.005 C 
ATOM      8  C   UNL     1       1.293  -2.947  -1.062  0.00  0.00    +0.001 C 
ATOM      9  C   UNL     1       2.373  -2.115  -0.358  0.00  0.00    -0.000 C 
ATOM     10  C   UNL     1       3.766  -2.635  -0.720  0.00  0.00    +0.051 C 
ATOM     11  C   UNL     1       3.973  -2.543  -2.232  0.00  0.00    +0.203 C 
ATOM     12  C   UNL     1       2.714  -1.972  -2.887  0.00  0.00    +0.103 C 
ATOM     13  C   UNL     1       1.486  -2.883  -2.579  0.00  0.00    -0.002 C 
ATOM     14  C   UNL     1       0.215  -2.330  -3.228  0.00  0.00    +0.009 C 
ATOM     15  C   UNL     1       0.404  -2.264  -4.745  0.00  0.00    +0.003 C 
ATOM     16  C   UNL     1       1.583  -1.344  -5.071  0.00  0.00    +0.033 C 
ATOM     17  C   UNL     1       2.921  -1.895  -4.402  0.00  0.00    +0.142 C 
ATOM     18  C   UNL     1       1.765  -4.287  -3.117  0.00  0.00    +0.014 C 
ATOM     19  C   UNL     1       0.570  -2.102   3.060  0.00  0.00    +0.012 C 
ENDROOT
BRANCH  12  20
ATOM     20  N   UNL     1       2.454  -0.630  -2.361  0.00  0.00    -0.304 N 
ATOM     21  C   UNL     1       3.421   0.308  -2.399  0.00  0.00    +0.211 C 
ATOM     22  O   UNL     1       4.506   0.042  -2.870  0.00  0.00    -0.276 OA
ATOM     23  C   UNL     1       3.153   1.689  -1.858  0.00  0.00    +0.109 C 
ATOM     24  H   UNL     1       1.586  -0.416  -1.984  0.00  0.00    +0.149 HD
ENDBRANCH  12  20
BRANCH   1  26
ATOM     25  C   UNL     1       0.247   1.557  -0.272  0.00  0.00    +0.008 C 
ATOM     26  C   UNL     1       0.137   0.053  -0.016  0.00  0.00    -0.010 C 
BRANCH  26  27
ATOM     27  C   UNL     1      -1.331  -0.371  -0.088  0.00  0.00    +0.003 C 
BRANCH  27  28
ATOM     28  C   UNL     1      -1.957   0.176  -1.373  0.00  0.00    +0.001 C 
BRANCH  28  29
ATOM     29  C   UNL     1      -3.451  -0.153  -1.392  0.00  0.00    +0.003 C 
BRANCH  29  30
ATOM     30  C   UNL     1      -4.077   0.394  -2.676  0.00  0.00    -0.017 C 
ATOM     31  C   UNL     1      -5.542  -0.042  -2.756  0.00  0.00    +0.007 C 
ATOM     32  C   UNL     1      -4.000   1.922  -2.671  0.00  0.00    +0.007 C 
ENDBRANCH  29  30
ENDBRANCH  28  29
ENDBRANCH  27  28
ENDBRANCH  26  27
ENDBRANCH   1  26
BRANCH  17  33
ATOM     33  O   UNL     1       3.182  -3.204  -4.913  0.00  0.00    -0.390 OA
ATOM     34  H   UNL     1       3.324  -3.231  -5.869  0.00  0.00    +0.210 HD
ENDBRANCH  17  33
BRANCH  11  35
ATOM     35  O   UNL     1       4.234  -3.846  -2.757  0.00  0.00    -0.459 OA
BRANCH  35  36
ATOM     36  C   UNL     1       5.517  -4.236  -2.810  0.00  0.00    +0.304 C 
ATOM     37  O   UNL     1       6.390  -3.496  -2.424  0.00  0.00    -0.251 OA
ATOM     38  C   UNL     1       5.869  -5.598  -3.352  0.00  0.00    +0.136 C 
ENDBRANCH  35  36
ENDBRANCH  11  35
TORSDOF 9
