REMARK  Name = ZINC21573202
REMARK  8 active torsions:
REMARK  status: ('A' for Active; 'I' for Inactive)
REMARK    1  A    between atoms: C_1  and  C_2
REMARK    2  A    between atoms: N_5  and  C_8
REMARK    3  A    between atoms: C_8  and  N_9
REMARK    4  A    between atoms: C_16  and  C_19
REMARK    5  A    between atoms: C_16  and  O_29
REMARK    6  A    between atoms: C_19  and  C_20
REMARK    7  A    between atoms: C_20  and  C_22
REMARK    8  A    between atoms: C_27  and  O_28
REMARK                            x       y       z     vdW  Elec       q    Type
REMARK                         _______ _______ _______ _____ _____    ______ ____
ROOT
ATOM      1  N   UNL     1      -1.720   4.992   4.728  0.00  0.00    -0.285 N 
ATOM      2  C   UNL     1      -3.042   5.249   4.363  0.00  0.00    +0.041 A 
ATOM      3  C   UNL     1      -4.115   4.383   4.156  0.00  0.00    +0.024 A 
ATOM      4  C   UNL     1      -5.348   4.883   3.793  0.00  0.00    +0.002 A 
ATOM      5  C   UNL     1      -5.531   6.244   3.632  0.00  0.00    +0.000 A 
ATOM      6  C   UNL     1      -4.471   7.110   3.836  0.00  0.00    +0.009 A 
ATOM      7  C   UNL     1      -3.239   6.614   4.198  0.00  0.00    +0.014 A 
ATOM      8  C   UNL     1      -1.910   7.273   4.489  0.00  0.00    +0.175 C 
ATOM      9  C   UNL     1      -0.993   6.117   4.829  0.00  0.00    +0.255 C 
ATOM     10  O   UNL     1       0.179   6.193   5.132  0.00  0.00    -0.272 OA
ENDROOT
BRANCH   8  11
ATOM     11  O   UNL     1      -2.025   8.161   5.602  0.00  0.00    -0.374 OA
ATOM     12  H   UNL     1      -1.146   8.725   5.949  0.00  0.00    +0.211 HD
ENDBRANCH   8  11
BRANCH   1  13
ATOM     13  C   UNL     1      -1.188   3.651   4.979  0.00  0.00    +0.038 C 
BRANCH  13  18
ATOM     14  C   UNL     1      -0.013   1.086   0.008  0.00  0.00    +0.007 C 
ATOM     15  C   UNL     1      -0.729   1.579   1.267  0.00  0.00    -0.018 C 
ATOM     16  C   UNL     1      -0.748   3.110   1.278  0.00  0.00    -0.015 C 
ATOM     17  C   UNL     1      -1.409   3.598   2.569  0.00  0.00    -0.076 C 
ATOM     18  N   UNL     1      -0.663   3.090   3.727  0.00  0.00    +0.390 N 
ATOM     19  C   UNL     1      -0.672   1.622   3.763  0.00  0.00    -0.076 C 
ATOM     20  C   UNL     1       0.013   1.075   2.508  0.00  0.00    -0.015 C 
ATOM     21  H   UNL     1       0.383   3.416   3.621  0.00  0.00    -0.080 HD
ENDBRANCH  13  18
ENDBRANCH   1  13
BRANCH   8  22
ATOM     22  C   UNL     1      -1.402   8.021   3.255  0.00  0.00    +0.129 C 
BRANCH  22  23
ATOM     23  C   UNL     1      -0.024   8.565   3.530  0.00  0.00    +0.170 C 
ATOM     24  O   UNL     1       0.501   8.373   4.606  0.00  0.00    -0.292 OA
BRANCH  23  25
ATOM     25  C   UNL     1       0.685   9.327   2.494  0.00  0.00    +0.059 A 
ATOM     26  C   UNL     1       0.086   9.547   1.247  0.00  0.00    +0.015 A 
ATOM     27  C   UNL     1       0.755  10.267   0.283  0.00  0.00    +0.001 A 
ATOM     28  C   UNL     1       2.022  10.768   0.536  0.00  0.00    +0.004 A 
ATOM     29  C   UNL     1       2.628  10.555   1.758  0.00  0.00    +0.046 A 
ATOM     30  C   UNL     1       1.969   9.836   2.745  0.00  0.00    +0.127 A 
BRANCH  30  31
ATOM     31  O   UNL     1       2.563   9.626   3.946  0.00  0.00    -0.506 OA
ATOM     32  H   UNL     1       3.569  10.026   4.140  0.00  0.00    +0.292 HD
ENDBRANCH  30  31
ENDBRANCH  23  25
ENDBRANCH  22  23
ENDBRANCH   8  22
TORSDOF 7
