REMARK  Name = ZINC22838516
REMARK  8 active torsions:
REMARK  status: ('A' for Active; 'I' for Inactive)
REMARK    1  A    between atoms: C_1  and  C_2
REMARK    2  A    between atoms: C_2  and  O_3
REMARK    3  A    between atoms: O_3  and  C_4
REMARK    4  A    between atoms: C_4  and  C_6
REMARK    5  A    between atoms: C_13  and  C_15
REMARK    6  A    between atoms: C_15  and  S_16
REMARK    7  A    between atoms: S_16  and  C_17
REMARK    8  A    between atoms: C_27  and  C_31
REMARK                            x       y       z     vdW  Elec       q    Type
REMARK                         _______ _______ _______ _____ _____    ______ ____
ROOT
ATOM      1  C   UNL     1       4.818   1.916   5.660  0.00  0.00    +0.191 A 
ATOM      2  N   UNL     1       4.708   0.594   5.599  0.00  0.00    -0.207 NA
ATOM      3  C   UNL     1       5.543  -0.211   6.234  0.00  0.00    +0.129 A 
ATOM      4  C   UNL     1       6.588   0.351   7.020  0.00  0.00    +0.051 A 
ATOM      5  C   UNL     1       7.613  -0.338   7.807  0.00  0.00    -0.025 A 
ATOM      6  C   UNL     1       8.498   0.433   8.470  0.00  0.00    -0.004 A 
ATOM      7  S   UNL     1       8.029   2.101   8.094  0.00  0.00    -0.073 S 
ATOM      8  C   UNL     1       6.641   1.759   7.044  0.00  0.00    +0.115 A 
ATOM      9  N   UNL     1       5.773   2.495   6.377  0.00  0.00    -0.214 NA
ATOM     10  C   UNL     1       9.631  -0.025   9.336  0.00  0.00    +0.046 C 
ATOM     11  C   UNL     1       9.874  -1.517   9.068  0.00  0.00    -0.009 C 
ATOM     12  C   UNL     1       8.529  -2.248   9.106  0.00  0.00    +0.008 C 
ATOM     13  C   UNL     1       7.693  -1.861   7.886  0.00  0.00    +0.037 C 
ATOM     14  C   UNL     1      10.800  -2.088  10.144  0.00  0.00    +0.008 C 
ATOM     15  N   UNL     1       5.399  -1.583   6.141  0.00  0.00    -0.343 N 
ATOM     16  H   UNL     1       6.097  -2.247   6.672  0.00  0.00    +0.144 HD
ATOM     17  H   UNL     1       4.586  -2.011   5.536  0.00  0.00    +0.144 HD
ENDROOT
BRANCH   1  18
ATOM     18  S   UNL     1       3.671   2.921   4.778  0.00  0.00    -0.077 S 
BRANCH  18  19
ATOM     19  C   UNL     1       2.647   1.636   4.018  0.00  0.00    +0.173 C 
BRANCH  19  26
ATOM     20  C   UNL     1      -1.734   1.560   2.161  0.00  0.00    +0.115 C 
ATOM     21  C   UNL     1      -1.693   0.032   2.090  0.00  0.00    +0.018 C 
ATOM     22  C   UNL     1      -0.612  -0.495   3.037  0.00  0.00    +0.020 C 
ATOM     23  C   UNL     1       0.753   0.047   2.601  0.00  0.00    +0.108 C 
ATOM     24  N   UNL     1       0.678   1.512   2.526  0.00  0.00    -0.300 N 
ATOM     25  C   UNL     1      -0.382   2.125   1.714  0.00  0.00    +0.122 C 
ATOM     26  C   UNL     1       1.565   2.280   3.190  0.00  0.00    +0.226 C 
ATOM     27  O   UNL     1       1.493   3.488   3.120  0.00  0.00    -0.275 OA
BRANCH  20  28
ATOM     28  C   UNL     1      -2.820   2.076   1.252  0.00  0.00    +0.312 C 
ATOM     29  O   UNL     1      -3.492   1.302   0.614  0.00  0.00    -0.250 OA
BRANCH  28  30
ATOM     30  O   UNL     1      -3.041   3.397   1.153  0.00  0.00    -0.465 OA
BRANCH  30  32
ATOM     31  C   UNL     1      -4.204   5.349   0.278  0.00  0.00    +0.048 C 
ATOM     32  C   UNL     1      -4.103   3.822   0.259  0.00  0.00    +0.229 C 
ENDBRANCH  30  32
ENDBRANCH  28  30
ENDBRANCH  20  28
ENDBRANCH  19  26
ENDBRANCH  18  19
ENDBRANCH   1  18
TORSDOF 6
