REMARK  Name = ZINC36643418
REMARK  12 active torsions:
REMARK  status: ('A' for Active; 'I' for Inactive)
REMARK    1  A    between atoms: C_1  and  C_2
REMARK    2  A    between atoms: N_11  and  C_12
REMARK    3  A    between atoms: C_12  and  C_13
REMARK    4  A    between atoms: C_13  and  C_14
REMARK    5  A    between atoms: C_14  and  N_15
REMARK    6  A    between atoms: N_15  and  C_16
REMARK    7  A    between atoms: N_15  and  C_17
REMARK    8  A    between atoms: C_18  and  C_20
REMARK    9  A    between atoms: C_23  and  S_26
REMARK   10  A    between atoms: S_26  and  N_29
REMARK   11  A    between atoms: N_29  and  C_30
REMARK   12  A    between atoms: N_29  and  C_31
REMARK                            x       y       z     vdW  Elec       q    Type
REMARK                         _______ _______ _______ _____ _____    ______ ____
ROOT
ATOM      1  C   UNL     1       1.328   4.433   0.834  0.00  0.00    +0.046 C 
ATOM      2  C   UNL     1       1.371   2.990   0.404  0.00  0.00    -0.024 A 
ATOM      3  C   UNL     1       1.611   2.680  -0.910  0.00  0.00    +0.005 A 
ATOM      4  C   UNL     1       1.658   1.365  -1.348  0.00  0.00    +0.001 A 
ATOM      5  C   UNL     1       1.459   0.341  -0.440  0.00  0.00    +0.017 A 
ATOM      6  C   UNL     1       1.218   0.641   0.877  0.00  0.00    +0.041 A 
ATOM      7  C   UNL     1       1.168   1.969   1.361  0.00  0.00    +0.083 A 
ATOM      8  N   UNL     1       0.927   2.101   2.683  0.00  0.00    -0.224 NA
ATOM      9  C   UNL     1       0.753   1.069   3.475  0.00  0.00    +0.168 A 
ATOM     10  S   UNL     1       0.914  -0.309   2.348  0.00  0.00    -0.052 S 
ATOM     11  N   UNL     1       0.501   1.051   4.837  0.00  0.00    -0.246 N 
ATOM     12  C   UNL     1       0.405   2.210   5.519  0.00  0.00    +0.252 C 
ATOM     13  O   UNL     1       0.490   3.270   4.931  0.00  0.00    -0.270 OA
ENDROOT
BRANCH  12  14
ATOM     14  C   UNL     1       0.195   2.191   6.981  0.00  0.00    +0.037 A 
ATOM     15  C   UNL     1       0.860   1.252   7.773  0.00  0.00    +0.015 A 
ATOM     16  C   UNL     1       0.660   1.240   9.137  0.00  0.00    +0.029 A 
ATOM     17  C   UNL     1      -0.197   2.155   9.723  0.00  0.00    +0.109 A 
ATOM     18  C   UNL     1      -0.859   3.088   8.944  0.00  0.00    +0.029 A 
ATOM     19  C   UNL     1      -0.663   3.115   7.579  0.00  0.00    +0.015 A 
BRANCH  17  20
ATOM     20  S   UNL     1      -0.447   2.131  11.467  0.00  0.00    +0.074 S 
ATOM     21  O   UNL     1      -1.712   2.734  11.704  0.00  0.00    -0.150 OA
ATOM     22  O   UNL     1      -0.136   0.816  11.904  0.00  0.00    -0.150 OA
BRANCH  20  23
ATOM     23  N   UNL     1       0.688   3.134  12.137  0.00  0.00    -0.206 N 
ATOM     24  C   UNL     1       0.355   4.532  12.421  0.00  0.00    +0.157 C 
BRANCH  23  25
ATOM     25  C   UNL     1       1.963   2.646  12.432  0.00  0.00    +0.051 A 
ATOM     26  C   UNL     1       3.082   3.223  11.846  0.00  0.00    +0.025 A 
ATOM     27  C   UNL     1       4.342   2.739  12.140  0.00  0.00    +0.002 A 
ATOM     28  C   UNL     1       4.490   1.681  13.018  0.00  0.00    +0.000 A 
ATOM     29  C   UNL     1       3.378   1.104  13.604  0.00  0.00    +0.002 A 
ATOM     30  C   UNL     1       2.116   1.587  13.318  0.00  0.00    +0.025 A 
ENDBRANCH  23  25
ENDBRANCH  20  23
ENDBRANCH  17  20
ENDBRANCH  12  14
BRANCH  11  31
ATOM     31  C   UNL     1       0.339  -0.226   5.535  0.00  0.00    +0.114 C 
BRANCH  31  32
ATOM     32  C   UNL     1       1.707  -0.888   5.711  0.00  0.00    +0.001 C 
BRANCH  32  33
ATOM     33  C   UNL     1       1.557  -2.148   6.567  0.00  0.00    -0.078 C 
BRANCH  33  34
ATOM     34  N   UNL     1       2.871  -2.784   6.735  0.00  0.00    +0.376 N 
ATOM     35  C   UNL     1       3.751  -1.894   7.504  0.00  0.00    -0.097 C 
ATOM     36  C   UNL     1       2.710  -4.055   7.454  0.00  0.00    -0.097 C 
ATOM     37  H   UNL     1       3.278  -2.959   5.829  0.00  0.00    -0.083 HD
ENDBRANCH  33  34
ENDBRANCH  32  33
ENDBRANCH  31  32
ENDBRANCH  11  31
TORSDOF 8
