REMARK  Name = ZINC06149492
REMARK  15 active torsions:
REMARK  status: ('A' for Active; 'I' for Inactive)
REMARK    1  A    between atoms: C_1  and  C_2
REMARK    2  A    between atoms: C_2  and  C_3
REMARK    3  A    between atoms: C_3  and  C_4
REMARK    4  A    between atoms: C_3  and  C_5
REMARK    5  A    between atoms: C_3  and  N_6
REMARK    6  A    between atoms: C_7  and  C_11
REMARK    7  A    between atoms: C_11  and  C_13
REMARK    8  A    between atoms: C_11  and  N_72
REMARK    9  A    between atoms: C_17  and  O_25
REMARK   10  A    between atoms: O_25  and  C_26
REMARK   11  A    between atoms: C_26  and  C_27
REMARK   12  A    between atoms: C_30  and  C_33
REMARK   13  A    between atoms: C_33  and  O_35
REMARK   14  A    between atoms: O_35  and  C_36
REMARK   15  A    between atoms: C_36  and  C_37
REMARK                            x       y       z     vdW  Elec       q    Type
REMARK                         _______ _______ _______ _____ _____    ______ ____
ROOT
ATOM      1  C   UNL     1       3.531   0.711  -0.136  0.00  0.00    +0.039 C 
ENDROOT
BRANCH   1   2
ATOM      2  C   UNL     1       4.106   0.972   1.232  0.00  0.00    +0.011 A 
ATOM      3  C   UNL     1       4.849   0.018   1.846  0.00  0.00    +0.017 A 
ATOM      4  C   UNL     1       5.393   0.302   3.175  0.00  0.00    +0.002 A 
ATOM      5  C   UNL     1       6.167  -0.644   3.855  0.00  0.00    +0.055 A 
ATOM      6  C   UNL     1       6.665  -0.343   5.107  0.00  0.00    +0.121 A 
ATOM      7  C   UNL     1       6.401   0.894   5.691  0.00  0.00    +0.047 A 
ATOM      8  C   UNL     1       5.639   1.833   5.031  0.00  0.00    +0.030 A 
ATOM      9  C   UNL     1       5.128   1.550   3.768  0.00  0.00    +0.049 A 
ATOM     10  N   UNL     1       4.364   2.479   3.091  0.00  0.00    -0.322 N 
ATOM     11  H   UNL     1       4.173   3.364   3.515  0.00  0.00    +0.169 HD
ATOM     12  C   UNL     1       3.874   2.210   1.868  0.00  0.00    +0.251 A 
ATOM     13  O   UNL     1       3.207   3.056   1.296  0.00  0.00    -0.268 OA
BRANCH   6  14
ATOM     14  O   UNL     1       7.418  -1.259   5.773  0.00  0.00    -0.492 OA
BRANCH  14  15
ATOM     15  C   UNL     1       7.902  -0.884   7.064  0.00  0.00    +0.225 C 
ATOM     16  C   UNL     1       8.722  -2.033   7.654  0.00  0.00    +0.048 C 
ENDBRANCH  14  15
ENDBRANCH   6  14
ENDBRANCH   1   2
BRANCH   1  22
ATOM     17  C   UNL     1       3.332   1.609  -2.376  0.00  0.00    -0.077 C 
ATOM     18  C   UNL     1       3.678   2.809  -3.260  0.00  0.00    -0.004 C 
ATOM     19  C   UNL     1       5.199   2.910  -3.402  0.00  0.00    +0.094 C 
ATOM     20  C   UNL     1       5.827   3.034  -2.010  0.00  0.00    -0.004 C 
ATOM     21  C   UNL     1       5.418   1.827  -1.163  0.00  0.00    -0.077 C 
ATOM     22  N   UNL     1       3.945   1.801  -1.044  0.00  0.00    +0.389 N 
ATOM     23  H   UNL     1       3.626   2.697  -0.657  0.00  0.00    -0.080 HD
BRANCH  19  24
ATOM     24  C   UNL     1       5.550   4.125  -4.222  0.00  0.00    +0.310 C 
ATOM     25  O   UNL     1       6.232   5.000  -3.745  0.00  0.00    -0.251 OA
BRANCH  24  26
ATOM     26  O   UNL     1       5.106   4.233  -5.484  0.00  0.00    -0.465 OA
BRANCH  26  27
ATOM     27  C   UNL     1       5.482   5.430  -6.215  0.00  0.00    +0.229 C 
ATOM     28  C   UNL     1       4.887   5.376  -7.624  0.00  0.00    +0.048 C 
ENDBRANCH  26  27
ENDBRANCH  24  26
ENDBRANCH  19  24
ENDBRANCH   1  22
BRANCH   1  30
ATOM     29  N   UNL     1       1.229  -0.383  -0.215  0.00  0.00    -0.225 N 
ATOM     30  C   UNL     1       2.026   0.689  -0.053  0.00  0.00    +0.143 A 
ATOM     31  N   UNL     1       1.241   1.709   0.191  0.00  0.00    -0.115 NA
ATOM     32  N   UNL     1       0.024   1.285   0.180  0.00  0.00    -0.023 NA
ATOM     33  N   UNL     1       0.013   0.022  -0.065  0.00  0.00    -0.043 NA
BRANCH  29  34
ATOM     34  C   UNL     1       1.660  -1.753  -0.507  0.00  0.00    +0.061 C 
ATOM     35  C   UNL     1       2.376  -1.785  -1.859  0.00  0.00    +0.036 C 
ATOM     36  C   UNL     1       2.616  -2.230   0.588  0.00  0.00    +0.036 C 
BRANCH  34  38
ATOM     37  C   UNL     1       0.889  -4.103  -0.859  0.00  0.00    +0.006 C 
ATOM     38  C   UNL     1       0.438  -2.673  -0.554  0.00  0.00    +0.026 C 
ENDBRANCH  34  38
ENDBRANCH  29  34
ENDBRANCH   1  30
TORSDOF 10
