REMARK  Name = ZINC47139509
REMARK  8 active torsions:
REMARK  status: ('A' for Active; 'I' for Inactive)
REMARK    1  A    between atoms: C_1  and  C_2
REMARK    2  A    between atoms: C_2  and  O_3
REMARK    3  A    between atoms: O_3  and  C_4
REMARK    4  A    between atoms: C_4  and  C_6
REMARK    5  A    between atoms: C_9  and  N_12
REMARK    6  A    between atoms: C_13  and  C_15
REMARK    7  A    between atoms: C_15  and  N_16
REMARK    8  A    between atoms: C_22  and  C_36
REMARK                            x       y       z     vdW  Elec       q    Type
REMARK                         _______ _______ _______ _____ _____    ______ ____
ROOT
ATOM      1  N   UNL     1      -8.131  -7.442  -0.261  0.00  0.00    -0.288 N 
ATOM      2  C   UNL     1      -8.029  -8.041  -1.478  0.00  0.00    +0.090 A 
ATOM      3  C   UNL     1      -7.949  -9.399  -1.453  0.00  0.00    +0.035 A 
ATOM      4  S   UNL     1      -8.015  -9.776   0.265  0.00  0.00    -0.030 S 
ATOM      5  C   UNL     1      -8.139  -8.203   0.858  0.00  0.00    +0.292 A 
ATOM      6  O   UNL     1      -8.219  -7.838   2.018  0.00  0.00    -0.259 OA
ATOM      7  C   UNL     1      -7.841 -10.229  -2.677  0.00  0.00    +0.099 C 
ATOM      8  C   UNL     1      -6.747  -9.742  -3.602  0.00  0.00    +0.021 C 
ATOM      9  C   UNL     1      -5.360 -10.036  -2.950  0.00  0.00    -0.006 C 
ATOM     10  C   UNL     1      -5.428  -9.331  -1.560  0.00  0.00    +0.004 C 
ATOM     11  C   UNL     1      -5.403  -7.820  -1.886  0.00  0.00    +0.005 C 
ATOM     12  C   UNL     1      -5.326  -7.754  -3.442  0.00  0.00    +0.003 C 
ATOM     13  C   UNL     1      -4.451  -9.041  -3.757  0.00  0.00    +0.008 C 
ATOM     14  C   UNL     1      -6.709  -8.252  -3.925  0.00  0.00    +0.060 C 
ATOM     15  S   UNL     1      -7.984  -7.282  -3.084  0.00  0.00    -0.103 S 
ENDROOT
BRANCH   7  16
ATOM     16  C   UNL     1      -9.155 -10.190  -3.413  0.00  0.00    +0.113 A 
ATOM     17  C   UNL     1      -9.933 -11.252  -3.691  0.00  0.00    +0.045 A 
ATOM     18  C   UNL     1     -11.060 -10.762  -4.389  0.00  0.00    +0.041 A 
ATOM     19  C   UNL     1     -10.905  -9.431  -4.496  0.00  0.00    +0.195 A 
ATOM     20  O   UNL     1      -9.752  -9.089  -3.898  0.00  0.00    -0.467 OA
ENDBRANCH   7  16
BRANCH   1  21
ATOM     21  C   UNL     1      -8.224  -5.984  -0.162  0.00  0.00    +0.222 C 
BRANCH  21  23
ATOM     22  N   UNL     1      -6.679  -4.063   0.043  0.00  0.00    -0.284 N 
ATOM     23  C   UNL     1      -6.840  -5.397  -0.058  0.00  0.00    +0.237 C 
ATOM     24  O   UNL     1      -5.870  -6.126  -0.067  0.00  0.00    -0.274 OA
ATOM     25  H   UNL     1      -7.454  -3.485   0.117  0.00  0.00    +0.155 HD
BRANCH  22  29
ATOM     26  C   UNL     1      -2.851  -2.421   0.042  0.00  0.00    +0.059 A 
ATOM     27  C   UNL     1      -3.082  -3.659   0.649  0.00  0.00    +0.017 A 
ATOM     28  C   UNL     1      -4.348  -4.198   0.648  0.00  0.00    +0.024 A 
ATOM     29  C   UNL     1      -5.398  -3.514   0.043  0.00  0.00    +0.033 A 
ATOM     30  C   UNL     1      -5.171  -2.282  -0.563  0.00  0.00    +0.024 A 
ATOM     31  C   UNL     1      -3.909  -1.733  -0.560  0.00  0.00    +0.017 A 
BRANCH  26  32
ATOM     32  C   UNL     1      -1.496  -1.840   0.041  0.00  0.00    +0.339 C 
ATOM     33  O   UNL     1      -1.297  -0.762  -0.483  0.00  0.00    -0.245 OA
BRANCH  32  34
ATOM     34  O   UNL     1      -0.477  -2.504   0.622  0.00  0.00    -0.461 OA
BRANCH  34  36
ATOM     35  C   UNL     1       1.830  -2.778   1.288  0.00  0.00    +0.048 C 
ATOM     36  C   UNL     1       0.809  -1.882   0.584  0.00  0.00    +0.229 C 
ENDBRANCH  34  36
ENDBRANCH  32  34
ENDBRANCH  26  32
ENDBRANCH  22  29
ENDBRANCH  21  23
ENDBRANCH   1  21
TORSDOF 7
