REMARK  Name = ZINC09046678
REMARK  6 active torsions:
REMARK  status: ('A' for Active; 'I' for Inactive)
REMARK    1  A    between atoms: C_3  and  N_10
REMARK    2  A    between atoms: C_5  and  N_7
REMARK    3  A    between atoms: N_10  and  C_11
REMARK    4  A    between atoms: C_12  and  C_13
REMARK    5  A    between atoms: C_12  and  C_15
REMARK    6  A    between atoms: C_17  and  C_20
REMARK                            x       y       z     vdW  Elec       q    Type
REMARK                         _______ _______ _______ _____ _____    ______ ____
ROOT
ATOM      1  C   UNL     1      -0.003  -0.002   0.054  0.00  0.00    +0.120 A 
ATOM      2  N   UNL     1      -1.040  -0.845   0.074  0.00  0.00    -0.238 NA
ATOM      3  C   UNL     1      -0.855  -2.134   0.082  0.00  0.00    +0.086 A 
ATOM      4  C   UNL     1       0.550  -2.603   0.080  0.00  0.00    +0.075 A 
ATOM      5  S   UNL     1       1.409  -1.094   0.058  0.00  0.00    -0.074 S 
ENDROOT
BRANCH   3   6
ATOM      6  C   UNL     1      -1.979  -3.073   0.100  0.00  0.00    +0.086 A 
ATOM      7  C   UNL     1      -3.295  -2.608   0.102  0.00  0.00    +0.028 A 
ATOM      8  C   UNL     1      -4.346  -3.551   0.118  0.00  0.00    +0.019 A 
ATOM      9  C   UNL     1      -5.684  -3.116   0.120  0.00  0.00    +0.026 A 
ATOM     10  C   UNL     1      -6.695  -4.032   0.136  0.00  0.00    +0.019 A 
ATOM     11  C   UNL     1      -6.414  -5.393   0.149  0.00  0.00    +0.019 A 
ATOM     12  C   UNL     1      -5.109  -5.842   0.147  0.00  0.00    +0.048 A 
ATOM     13  C   UNL     1      -4.060  -4.931   0.131  0.00  0.00    +0.139 A 
ATOM     14  O   UNL     1      -2.785  -5.376   0.129  0.00  0.00    -0.422 OA
ATOM     15  C   UNL     1      -1.744  -4.527   0.109  0.00  0.00    +0.347 A 
ATOM     16  O   UNL     1      -0.608  -4.959   0.102  0.00  0.00    -0.244 OA
ATOM     17 BR   UNL     1      -8.493  -3.445   0.139  0.00  0.00    -0.050 Br
ENDBRANCH   3   6
BRANCH   1  19
ATOM     18  C   UNL     1       1.193   2.121   0.024  0.00  0.00    +0.093 C 
ATOM     19  C   UNL     1      -0.020   1.401   0.039  0.00  0.00    +0.098 C 
BRANCH  18  20
ATOM     20  N   UNL     1       1.176   3.456   0.009  0.00  0.00    -0.319 N 
ATOM     21  H   UNL     1       0.334   3.930  -0.069  0.00  0.00    +0.152 HD
BRANCH  20  24
ATOM     22  C   UNL     1       4.766   4.204   0.190  0.00  0.00    +0.004 A 
ATOM     23  C   UNL     1       3.586   3.494   0.098  0.00  0.00    +0.023 A 
ATOM     24  C   UNL     1       2.368   4.167   0.107  0.00  0.00    +0.033 A 
ATOM     25  C   UNL     1       2.346   5.554   0.220  0.00  0.00    +0.056 A 
ATOM     26  C   UNL     1       3.530   6.256   0.316  0.00  0.00    +0.128 A 
ATOM     27  C   UNL     1       4.739   5.582   0.301  0.00  0.00    +0.033 A 
BRANCH  26  28
ATOM     28  N   UNL     1       3.508   7.731   0.436  0.00  0.00    +0.056 N 
ATOM     29  O   UNL     1       2.358   8.373   0.450  0.00  0.00    -0.126 OA
ATOM     30  O   UNL     1       4.637   8.402   0.528  0.00  0.00    -0.126 OA
ENDBRANCH  26  28
ENDBRANCH  20  24
ENDBRANCH  18  20
BRANCH  19  31
ATOM     31  C   UNL     1      -1.269   2.102   0.032  0.00  0.00    +0.103 C 
ATOM     32  N   UNL     1      -2.259   2.658   0.027  0.00  0.00    -0.191 NA
ENDBRANCH  19  31
ENDBRANCH   1  19
TORSDOF 6
