REMARK  Name = ZINC20791070
REMARK  5 active torsions:
REMARK  status: ('A' for Active; 'I' for Inactive)
REMARK    1  A    between atoms: C_1  and  C_2
REMARK    2  A    between atoms: C_3  and  C_17
REMARK    3  A    between atoms: C_4  and  C_10
REMARK    4  A    between atoms: N_19  and  C_20
REMARK    5  A    between atoms: C_24  and  N_26
REMARK                            x       y       z     vdW  Elec       q    Type
REMARK                         _______ _______ _______ _____ _____    ______ ____
ROOT
ATOM      1  C   UNL     1       0.307   0.356  -1.230  0.00  0.00    +0.061 C 
ATOM      2  C   UNL     1       0.067  -0.851  -0.362  0.00  0.00    +0.017 C 
ATOM      3  C   UNL     1      -1.159  -1.055   0.167  0.00  0.00    +0.056 C 
ATOM      4  C   UNL     1      -1.357  -2.282   1.034  0.00  0.00    +0.140 C 
ATOM      5  N   UNL     1      -0.189  -3.157   1.230  0.00  0.00    -0.315 N 
ATOM      6  C   UNL     1       0.972  -2.819   0.635  0.00  0.00    +0.135 C 
ATOM      7  S   UNL     1       2.338  -3.827   0.854  0.00  0.00    -0.019 S 
ATOM      8  N   UNL     1       1.090  -1.725  -0.127  0.00  0.00    -0.300 N 
ATOM      9  H   UNL     1      -0.254  -3.957   1.775  0.00  0.00    +0.149 HD
ATOM     10  H   UNL     1       1.952  -1.539  -0.531  0.00  0.00    +0.154 HD
ENDROOT
BRANCH   4  11
ATOM     11  C   UNL     1      -2.459  -3.109   0.423  0.00  0.00    -0.009 A 
ATOM     12  C   UNL     1      -2.158  -4.071  -0.523  0.00  0.00    +0.007 A 
ATOM     13  C   UNL     1      -3.168  -4.830  -1.083  0.00  0.00    +0.000 A 
ATOM     14  C   UNL     1      -4.480  -4.628  -0.698  0.00  0.00    +0.001 A 
ATOM     15  C   UNL     1      -4.782  -3.666   0.248  0.00  0.00    +0.015 A 
ATOM     16  C   UNL     1      -3.771  -2.910   0.813  0.00  0.00    +0.023 A 
ATOM     17 BR   UNL     1      -4.183  -1.599   2.112  0.00  0.00    -0.050 Br
ENDBRANCH   4  11
BRANCH   3  18
ATOM     18  C   UNL     1      -2.222  -0.153  -0.080  0.00  0.00    +0.248 C 
ATOM     19  O   UNL     1      -3.053  -0.410  -0.933  0.00  0.00    -0.270 OA
ATOM     20  N   UNL     1      -2.315   0.990   0.628  0.00  0.00    -0.282 N 
ATOM     21  H   UNL     1      -1.618   1.227   1.259  0.00  0.00    +0.155 HD
BRANCH  20  22
ATOM     22  C   UNL     1      -3.416   1.833   0.452  0.00  0.00    +0.036 A 
ATOM     23  C   UNL     1      -3.993   1.973  -0.804  0.00  0.00    +0.023 A 
ATOM     24  C   UNL     1      -5.080   2.808  -0.973  0.00  0.00    +0.004 A 
ATOM     25  C   UNL     1      -5.594   3.504   0.105  0.00  0.00    +0.033 A 
ATOM     26  C   UNL     1      -5.022   3.367   1.357  0.00  0.00    +0.128 A 
ATOM     27  C   UNL     1      -3.939   2.529   1.535  0.00  0.00    +0.056 A 
BRANCH  26  28
ATOM     28  N   UNL     1      -5.576   4.115   2.508  0.00  0.00    +0.056 N 
ATOM     29  O   UNL     1      -6.528   4.844   2.354  0.00  0.00    -0.126 OA
ATOM     30  O   UNL     1      -5.076   3.996   3.603  0.00  0.00    -0.126 OA
ENDBRANCH  26  28
ENDBRANCH  20  22
ENDBRANCH   3  18
TORSDOF 4
