REMARK  Name = ZINC38984626
REMARK  3 active torsions:
REMARK  status: ('A' for Active; 'I' for Inactive)
REMARK    1  A    between atoms: C_10  and  C_11
REMARK    2  A    between atoms: N_12  and  N_13
REMARK    3  A    between atoms: C_14  and  C_20
REMARK                            x       y       z     vdW  Elec       q    Type
REMARK                         _______ _______ _______ _____ _____    ______ ____
ROOT
ATOM      1  N   UNL     1       6.194   2.083  -0.249  0.00  0.00    -0.172 N 
ATOM      2  C   UNL     1       6.399   3.543  -0.255  0.00  0.00    +0.266 C 
ATOM      3  N   UNL     1       7.856   3.693  -0.397  0.00  0.00    -0.189 NA
ATOM      4  N   UNL     1       8.353   2.566  -0.458  0.00  0.00    -0.219 N 
ATOM      5  C   UNL     1       7.436   1.566  -0.372  0.00  0.00    +0.174 C 
ATOM      6  S   UNL     1       7.801  -0.106  -0.417  0.00  0.00    -0.015 S 
ATOM      7  H   UNL     1       9.306   2.409  -0.553  0.00  0.00    +0.176 HD
ENDROOT
BRANCH   2   8
ATOM      8  C   UNL     1       5.683   4.174  -1.421  0.00  0.00    +0.033 A 
ATOM      9  C   UNL     1       4.583   3.549  -1.977  0.00  0.00    +0.010 A 
ATOM     10  C   UNL     1       3.926   4.127  -3.046  0.00  0.00    +0.001 A 
ATOM     11  C   UNL     1       4.368   5.332  -3.562  0.00  0.00    +0.003 A 
ATOM     12  C   UNL     1       5.467   5.959  -3.007  0.00  0.00    +0.039 A 
ATOM     13  C   UNL     1       6.123   5.383  -1.932  0.00  0.00    +0.130 A 
ATOM     14  F   UNL     1       7.195   5.998  -1.386  0.00  0.00    -0.205 F 
ENDBRANCH   2   8
BRANCH   1  16
ATOM     15  C   UNL     1       4.985   0.093  -0.019  0.00  0.00    +0.139 C 
ATOM     16  N   UNL     1       4.983   1.388  -0.136  0.00  0.00    -0.183 NA
BRANCH  15  26
ATOM     17  C   UNL     1      -0.019   1.340  -0.133  0.00  0.00    +0.001 A 
ATOM     18  C   UNL     1       1.162   2.078  -0.112  0.00  0.00    +0.001 A 
ATOM     19  C   UNL     1       2.375   1.458  -0.083  0.00  0.00    +0.009 A 
ATOM     20  C   UNL     1       2.437   0.059  -0.073  0.00  0.00    -0.009 A 
ATOM     21  C   UNL     1       1.238  -0.695  -0.094  0.00  0.00    -0.017 A 
ATOM     22  C   UNL     1       0.005  -0.021  -0.124  0.00  0.00    +0.008 A 
ATOM     23  C   UNL     1       1.304  -2.098  -0.083  0.00  0.00    +0.008 A 
ATOM     24  C   UNL     1       2.506  -2.737  -0.053  0.00  0.00    +0.001 A 
ATOM     25  C   UNL     1       3.706  -2.039  -0.031  0.00  0.00    +0.010 A 
ATOM     26  C   UNL     1       3.716  -0.649  -0.042  0.00  0.00    +0.002 A 
ENDBRANCH  15  26
ENDBRANCH   1  16
TORSDOF 3
