REMARK  Name = ZINC60362664
REMARK  7 active torsions:
REMARK  status: ('A' for Active; 'I' for Inactive)
REMARK    1  A    between atoms: N_4  and  C_7
REMARK    2  A    between atoms: C_14  and  N_16
REMARK    3  A    between atoms: C_17  and  C_19
REMARK    4  A    between atoms: C_19  and  C_20
REMARK    5  A    between atoms: C_20  and  C_21
REMARK    6  A    between atoms: C_21  and  N_22
REMARK    7  A    between atoms: C_23  and  C_25
REMARK                            x       y       z     vdW  Elec       q    Type
REMARK                         _______ _______ _______ _____ _____    ______ ____
ROOT
ATOM      1  C   UNL     1       2.930  -0.516  -2.289  0.00  0.00    -0.025 C 
ATOM      2  C   UNL     1       4.390   0.010  -2.212  0.00  0.00    +0.152 C 
ATOM      3  S   UNL     1       5.227  -1.247  -3.275  0.00  0.00    -0.031 S 
ATOM      4  O   UNL     1       6.541  -1.475  -2.784  0.00  0.00    -0.174 OA
ATOM      5  O   UNL     1       5.037  -0.905  -4.641  0.00  0.00    -0.174 OA
ATOM      6  C   UNL     1       4.165  -2.692  -2.858  0.00  0.00    +0.186 C 
ATOM      7  C   UNL     1       2.915  -2.043  -2.236  0.00  0.00    +0.082 C 
ENDROOT
BRANCH   1  11
ATOM      8  C   UNL     1      -0.019   1.527   0.010  0.00  0.00    -0.004 C 
ATOM      9  C   UNL     1       1.422   2.047  -0.001  0.00  0.00    -0.019 C 
ATOM     10  C   UNL     1       2.152   1.484  -1.221  0.00  0.00    -0.078 C 
ATOM     11  N   UNL     1       2.161   0.018  -1.157  0.00  0.00    +0.384 N 
ATOM     12  C   UNL     1       0.785  -0.491  -1.219  0.00  0.00    -0.078 C 
ATOM     13  C   UNL     1       0.002  -0.004   0.002  0.00  0.00    -0.019 C 
ATOM     14  H   UNL     1       2.589  -0.278  -0.293  0.00  0.00    -0.081 HD
ENDBRANCH   1  11
BRANCH   7  15
ATOM     15  N   UNL     1       2.814  -2.462  -0.836  0.00  0.00    -0.312 N 
ATOM     16  C   UNL     1       2.290  -3.665  -0.529  0.00  0.00    +0.213 C 
ATOM     17  O   UNL     1       1.901  -4.400  -1.412  0.00  0.00    -0.276 OA
ATOM     18  H   UNL     1       3.126  -1.875  -0.130  0.00  0.00    +0.149 HD
BRANCH  16  19
ATOM     19  C   UNL     1       2.186  -4.097   0.911  0.00  0.00    +0.097 C 
BRANCH  19  20
ATOM     20  C   UNL     1       1.560  -5.491   0.982  0.00  0.00    +0.028 C 
BRANCH  20  21
ATOM     21  C   UNL     1       1.455  -5.929   2.444  0.00  0.00    +0.104 C 
BRANCH  21  22
ATOM     22  N   UNL     1       0.855  -7.264   2.512  0.00  0.00    -0.315 N 
ATOM     23  C   UNL     1       0.663  -7.857   3.707  0.00  0.00    +0.216 C 
ATOM     24  O   UNL     1       0.987  -7.285   4.726  0.00  0.00    -0.276 OA
ATOM     25  H   UNL     1       0.596  -7.722   1.697  0.00  0.00    +0.149 HD
BRANCH  23  26
ATOM     26  C   UNL     1       0.046  -9.230   3.777  0.00  0.00    +0.075 C 
ATOM     27  C   UNL     1      -1.357  -9.345   4.376  0.00  0.00    +0.013 C 
ATOM     28  C   UNL     1      -0.145  -9.849   5.163  0.00  0.00    +0.013 C 
ENDBRANCH  23  26
ENDBRANCH  21  22
ENDBRANCH  20  21
ENDBRANCH  19  20
ENDBRANCH  16  19
ENDBRANCH   7  15
TORSDOF 7
