REMARK  Name = ZINC23857876
REMARK  8 active torsions:
REMARK  status: ('A' for Active; 'I' for Inactive)
REMARK    1  A    between atoms: C_1  and  C_2
REMARK    2  A    between atoms: C_4  and  C_11
REMARK    3  A    between atoms: C_7  and  N_8
REMARK    4  A    between atoms: N_13  and  C_14
REMARK    5  A    between atoms: C_14  and  C_15
REMARK    6  A    between atoms: C_15  and  C_17
REMARK    7  A    between atoms: C_15  and  N_27
REMARK    8  A    between atoms: N_25  and  C_26
REMARK                            x       y       z     vdW  Elec       q    Type
REMARK                         _______ _______ _______ _____ _____    ______ ____
ROOT
ATOM      1  C   UNL     1      -3.676   5.336  -1.450  0.00  0.00    -0.020 C 
ENDROOT
BRANCH   1   2
ATOM      2  C   UNL     1      -2.954   4.426  -0.491  0.00  0.00    -0.059 A 
ATOM      3  C   UNL     1      -3.055   4.636   0.872  0.00  0.00    +0.004 A 
ATOM      4  C   UNL     1      -2.399   3.803   1.754  0.00  0.00    +0.023 A 
ATOM      5  C   UNL     1      -1.628   2.744   1.277  0.00  0.00    +0.033 A 
ATOM      6  C   UNL     1      -1.530   2.544  -0.095  0.00  0.00    -0.025 A 
ATOM      7  C   UNL     1      -2.190   3.378  -0.972  0.00  0.00    +0.007 A 
ATOM      8  C   UNL     1      -0.634   1.344  -0.329  0.00  0.00    +0.056 C 
ATOM      9  C   UNL     1       0.069   1.168   1.037  0.00  0.00    +0.109 C 
ATOM     10  N   UNL     1      -0.892   1.778   1.981  0.00  0.00    -0.332 N 
ATOM     11  C   UNL     1      -0.196   2.374   3.129  0.00  0.00    +0.129 C 
ENDBRANCH   1   2
BRANCH   1  12
ATOM     12  N   UNL     1      -5.006   5.657  -0.915  0.00  0.00    +0.385 N 
ATOM     13  C   UNL     1      -5.780   4.434  -0.661  0.00  0.00    -0.078 C 
ATOM     14  C   UNL     1      -7.097   4.796   0.029  0.00  0.00    -0.019 C 
ATOM     15  C   UNL     1      -7.892   5.749  -0.868  0.00  0.00    -0.004 C 
ATOM     16  C   UNL     1      -7.046   6.992  -1.156  0.00  0.00    -0.019 C 
ATOM     17  C   UNL     1      -5.730   6.566  -1.812  0.00  0.00    -0.078 C 
ATOM     18  H   UNL     1      -4.870   6.173   0.047  0.00  0.00    -0.081 HD
ENDBRANCH   1  12
BRANCH   1  19
ATOM     19  C   UNL     1      -2.875   6.627  -1.629  0.00  0.00    +0.094 C 
BRANCH  19  22
ATOM     20  C   UNL     1      -0.672   7.291  -2.431  0.00  0.00    +0.244 C 
ATOM     21  O   UNL     1      -0.905   8.421  -2.047  0.00  0.00    -0.270 OA
ATOM     22  N   UNL     1      -1.593   6.321  -2.269  0.00  0.00    -0.313 N 
ATOM     23  H   UNL     1      -1.382   5.299  -2.617  0.00  0.00    +0.149 HD
BRANCH  20  27
ATOM     24  C   UNL     1       3.816   8.771  -4.034  0.00  0.00    +0.046 C 
ATOM     25  C   UNL     1       2.783   7.690  -3.849  0.00  0.00    -0.020 A 
ATOM     26  C   UNL     1       1.578   7.985  -3.246  0.00  0.00    +0.018 A 
ATOM     27  C   UNL     1       0.622   6.982  -3.077  0.00  0.00    +0.037 A 
ATOM     28  C   UNL     1       0.895   5.685  -3.514  0.00  0.00    +0.015 A 
ATOM     29  C   UNL     1       2.102   5.405  -4.120  0.00  0.00    +0.034 A 
ATOM     30  C   UNL     1       3.045   6.403  -4.285  0.00  0.00    +0.129 A 
BRANCH  30  31
ATOM     31  N   UNL     1       4.340   6.094  -4.932  0.00  0.00    +0.057 N 
ATOM     32  O   UNL     1       4.387   5.298  -5.853  0.00  0.00    -0.126 OA
ATOM     33  O   UNL     1       5.360   6.635  -4.543  0.00  0.00    -0.126 OA
ENDBRANCH  30  31
ENDBRANCH  20  27
ENDBRANCH  19  22
ENDBRANCH   1  19
TORSDOF 6
