REMARK  Name = ZINC39387613
REMARK  10 active torsions:
REMARK  status: ('A' for Active; 'I' for Inactive)
REMARK    1  A    between atoms: C_1  and  C_2
REMARK    2  A    between atoms: C_2  and  O_3
REMARK    3  A    between atoms: O_3  and  C_4
REMARK    4  A    between atoms: C_4  and  C_6
REMARK    5  A    between atoms: C_8  and  N_22
REMARK    6  A    between atoms: N_13  and  C_15
REMARK    7  A    between atoms: C_20  and  C_21
REMARK    8  A    between atoms: N_22  and  C_23
REMARK    9  A    between atoms: C_23  and  C_24
REMARK   10  A    between atoms: C_24  and  C_25
REMARK                            x       y       z     vdW  Elec       q    Type
REMARK                         _______ _______ _______ _____ _____    ______ ____
ROOT
ATOM      1  C   UNL     1       1.468  -2.353  -2.550  0.00  0.00    +0.168 C 
ATOM      2  C   UNL     1       0.507  -2.330  -3.745  0.00  0.00    -0.033 C 
ATOM      3  C   UNL     1       1.286  -2.772  -4.989  0.00  0.00    +0.084 C 
ATOM      4  C   UNL     1       2.100  -3.993  -4.651  0.00  0.00    +0.232 C 
ATOM      5  O   UNL     1       2.546  -4.664  -5.557  0.00  0.00    -0.274 OA
ATOM      6  N   UNL     1       2.350  -4.365  -3.394  0.00  0.00    -0.204 N 
ATOM      7  N   UNL     1       1.872  -3.739  -2.290  0.00  0.00    -0.221 NA
ATOM      8  H   UNL     1       2.534  -3.787  -1.530  0.00  0.00    +0.146 HD
ENDROOT
BRANCH   6   9
ATOM      9  C   UNL     1       3.168  -5.484  -3.200  0.00  0.00    +0.056 A 
ATOM     10  C   UNL     1       4.550  -5.341  -3.184  0.00  0.00    +0.025 A 
ATOM     11  C   UNL     1       5.354  -6.447  -2.992  0.00  0.00    +0.002 A 
ATOM     12  C   UNL     1       4.786  -7.695  -2.818  0.00  0.00    +0.000 A 
ATOM     13  C   UNL     1       3.411  -7.841  -2.834  0.00  0.00    +0.005 A 
ATOM     14  C   UNL     1       2.601  -6.738  -3.018  0.00  0.00    -0.028 A 
ATOM     15  C   UNL     1       1.102  -6.896  -3.029  0.00  0.00    +0.046 C 
ENDBRANCH   6   9
BRANCH   2  16
ATOM     16  N   UNL     1      -0.609  -3.254  -3.503  0.00  0.00    +0.383 N 
ATOM     17  H   UNL     1      -0.260  -4.200  -3.463  0.00  0.00    -0.085 HD
ATOM     18  H   UNL     1      -1.054  -3.022  -2.628  0.00  0.00    -0.085 HD
BRANCH  16  19
ATOM     19  C   UNL     1      -1.586  -3.139  -4.594  0.00  0.00    -0.077 C 
BRANCH  19  20
ATOM     20  C   UNL     1      -2.748  -4.102  -4.342  0.00  0.00    +0.018 C 
BRANCH  20  21
ATOM     21  C   UNL     1      -3.750  -3.984  -5.462  0.00  0.00    -0.024 A 
ATOM     22  C   UNL     1      -3.705  -4.683  -6.748  0.00  0.00    +0.003 A 
ATOM     23  C   UNL     1      -2.824  -5.598  -7.325  0.00  0.00    +0.010 A 
ATOM     24  C   UNL     1      -3.070  -6.079  -8.581  0.00  0.00    +0.001 A 
ATOM     25  C   UNL     1      -4.190  -5.663  -9.287  0.00  0.00    +0.002 A 
ATOM     26  C   UNL     1      -5.073  -4.761  -8.737  0.00  0.00    +0.026 A 
ATOM     27  C   UNL     1      -4.843  -4.259  -7.460  0.00  0.00    +0.047 A 
ATOM     28  N   UNL     1      -5.518  -3.370  -6.655  0.00  0.00    -0.360 N 
ATOM     29  C   UNL     1      -4.856  -3.223  -5.466  0.00  0.00    +0.087 A 
ATOM     30  H   UNL     1      -6.343  -2.918  -6.893  0.00  0.00    +0.165 HD
ENDBRANCH  20  21
ENDBRANCH  19  20
ENDBRANCH  16  19
ENDBRANCH   2  16
BRANCH   1  31
ATOM     31  C   UNL     1       0.775  -1.794  -1.334  0.00  0.00    +0.324 C 
ATOM     32  O   UNL     1       0.314  -2.540  -0.504  0.00  0.00    -0.249 OA
BRANCH  31  33
ATOM     33  O   UNL     1       0.671  -0.465  -1.174  0.00  0.00    -0.464 OA
BRANCH  33  35
ATOM     34  C   UNL     1      -0.019   1.526   0.010  0.00  0.00    +0.048 C 
ATOM     35  C   UNL     1       0.002  -0.004   0.002  0.00  0.00    +0.229 C 
ENDBRANCH  33  35
ENDBRANCH  31  33
ENDBRANCH   1  31
TORSDOF 8
