REMARK  Name = ZINC08835081
REMARK  9 active torsions:
REMARK  status: ('A' for Active; 'I' for Inactive)
REMARK    1  A    between atoms: C_3  and  N_34
REMARK    2  A    between atoms: C_6  and  C_7
REMARK    3  A    between atoms: C_9  and  C_23
REMARK    4  A    between atoms: C_10  and  O_22
REMARK    5  A    between atoms: N_13  and  C_14
REMARK    6  A    between atoms: C_14  and  C_15
REMARK    7  A    between atoms: C_15  and  C_16
REMARK    8  A    between atoms: C_16  and  N_61
REMARK    9  A    between atoms: C_23  and  C_25
REMARK                            x       y       z     vdW  Elec       q    Type
REMARK                         _______ _______ _______ _____ _____    ______ ____
ROOT
ATOM      1  C   UNL     1      -1.550   3.417  -0.266  0.00  0.00    +0.144 C 
ATOM      2  C   UNL     1      -1.364   1.924  -0.135  0.00  0.00    +0.071 C 
ATOM      3  C   UNL     1      -2.599   1.372  -0.169  0.00  0.00    +0.188 C 
ATOM      4  C   UNL     1      -3.605   2.443  -0.325  0.00  0.00    +0.282 C 
ATOM      5  O   UNL     1      -4.806   2.268  -0.388  0.00  0.00    -0.267 OA
ATOM      6  N   UNL     1      -2.995   3.641  -0.386  0.00  0.00    -0.284 N 
ENDROOT
BRANCH   1  12
ATOM      7  C   UNL     1      -1.461   3.820  -2.735  0.00  0.00    +0.008 A 
ATOM      8  C   UNL     1      -0.818   4.286  -3.867  0.00  0.00    +0.033 A 
ATOM      9  C   UNL     1       0.443   4.843  -3.766  0.00  0.00    +0.126 A 
ATOM     10  C   UNL     1       1.059   4.939  -2.532  0.00  0.00    +0.033 A 
ATOM     11  C   UNL     1       0.414   4.477  -1.400  0.00  0.00    +0.008 A 
ATOM     12  C   UNL     1      -0.847   3.921  -1.501  0.00  0.00    -0.022 A 
BRANCH   9  13
ATOM     13  N   UNL     1       1.133   5.337  -4.978  0.00  0.00    +0.056 N 
ATOM     14  O   UNL     1       2.244   5.828  -4.889  0.00  0.00    -0.126 OA
ATOM     15  O   UNL     1       0.590   5.253  -6.065  0.00  0.00    -0.126 OA
ENDBRANCH   9  13
ENDBRANCH   1  12
BRANCH   3  16
ATOM     16  O   UNL     1      -2.870   0.050  -0.076  0.00  0.00    -0.502 OA
ATOM     17  H   UNL     1      -3.858  -0.093  -0.128  0.00  0.00    +0.292 HD
ENDBRANCH   3  16
BRANCH   2  18
ATOM     18  C   UNL     1      -0.091   1.210   0.008  0.00  0.00    +0.195 C 
ATOM     19  O   UNL     1       0.298   0.475  -0.880  0.00  0.00    -0.287 OA
BRANCH  18  20
ATOM     20  C   UNL     1       0.722   1.388   1.227  0.00  0.00    +0.026 A 
ATOM     21  C   UNL     1       0.317   2.293   2.213  0.00  0.00    +0.015 A 
ATOM     22  C   UNL     1       1.077   2.458   3.350  0.00  0.00    +0.050 A 
ATOM     23  C   UNL     1       2.247   1.728   3.522  0.00  0.00    +0.166 A 
ATOM     24  C   UNL     1       2.656   0.822   2.541  0.00  0.00    +0.167 A 
ATOM     25  C   UNL     1       1.895   0.649   1.402  0.00  0.00    +0.061 A 
ATOM     26  O   UNL     1       3.822   0.240   2.946  0.00  0.00    -0.453 OA
ATOM     27  C   UNL     1       3.906   0.493   4.361  0.00  0.00    +0.466 C 
ATOM     28  O   UNL     1       3.157   1.710   4.537  0.00  0.00    -0.453 OA
ENDBRANCH  18  20
ENDBRANCH   2  18
BRANCH   6  29
ATOM     29  C   UNL     1      -3.657   4.939  -0.539  0.00  0.00    +0.107 C 
BRANCH  29  30
ATOM     30  C   UNL     1      -3.981   5.512   0.842  0.00  0.00    +0.000 C 
BRANCH  30  31
ATOM     31  C   UNL     1      -4.672   6.867   0.683  0.00  0.00    -0.077 C 
BRANCH  31  37
ATOM     32  C   UNL     1      -5.990   6.597   2.697  0.00  0.00    -0.050 C 
ATOM     33  C   UNL     1      -6.240   7.170   4.095  0.00  0.00    +0.141 C 
ATOM     34  O   UNL     1      -6.642   8.538   3.979  0.00  0.00    -0.383 OA
ATOM     35  C   UNL     1      -5.684   9.366   3.314  0.00  0.00    +0.141 C 
ATOM     36  C   UNL     1      -5.429   8.815   1.909  0.00  0.00    -0.050 C 
ATOM     37  N   UNL     1      -4.961   7.417   2.025  0.00  0.00    +0.383 N 
ATOM     38  H   UNL     1      -4.101   7.399   2.586  0.00  0.00    -0.082 HD
ENDBRANCH  31  37
ENDBRANCH  30  31
ENDBRANCH  29  30
ENDBRANCH   6  29
TORSDOF 9
