REMARK  Name = ZINC08695310
REMARK  18 active torsions:
REMARK  status: ('A' for Active; 'I' for Inactive)
REMARK    1  A    between atoms: C_1  and  C_2
REMARK    2  A    between atoms: C_2  and  C_3
REMARK    3  A    between atoms: C_3  and  C_4
REMARK    4  A    between atoms: C_4  and  N_75
REMARK    5  A    between atoms: C_5  and  C_6
REMARK    6  A    between atoms: C_5  and  N_75
REMARK    7  A    between atoms: C_6  and  C_7
REMARK    8  A    between atoms: C_7  and  C_8
REMARK    9  A    between atoms: C_9  and  C_10
REMARK   10  A    between atoms: C_9  and  N_75
REMARK   11  A    between atoms: C_10  and  C_11
REMARK   12  A    between atoms: C_11  and  N_12
REMARK   13  A    between atoms: C_13  and  C_29
REMARK   14  A    between atoms: C_15  and  C_20
REMARK   15  A    between atoms: C_16  and  O_19
REMARK   16  A    between atoms: C_20  and  C_22
REMARK   17  A    between atoms: C_32  and  C_35
REMARK   18  A    between atoms: C_35  and  C_36
REMARK                            x       y       z     vdW  Elec       q    Type
REMARK                         _______ _______ _______ _____ _____    ______ ____
ROOT
ATOM      1  N   UNL     1      -4.315   1.773   1.623  0.00  0.00    -0.284 N 
ATOM      2  C   UNL     1      -3.817   1.462   0.278  0.00  0.00    +0.144 C 
ATOM      3  C   UNL     1      -5.006   1.577  -0.648  0.00  0.00    +0.071 C 
ATOM      4  C   UNL     1      -6.067   1.921   0.119  0.00  0.00    +0.188 C 
ATOM      5  C   UNL     1      -5.630   2.041   1.526  0.00  0.00    +0.282 C 
ATOM      6  O   UNL     1      -6.351   2.337   2.458  0.00  0.00    -0.267 OA
ENDROOT
BRANCH   2   7
ATOM      7  C   UNL     1      -2.752   2.450  -0.122  0.00  0.00    -0.022 A 
ATOM      8  C   UNL     1      -1.536   2.000  -0.600  0.00  0.00    +0.006 A 
ATOM      9  C   UNL     1      -0.561   2.906  -0.972  0.00  0.00    +0.004 A 
ATOM     10  C   UNL     1      -0.800   4.263  -0.861  0.00  0.00    -0.048 A 
ATOM     11  C   UNL     1      -2.014   4.714  -0.378  0.00  0.00    +0.004 A 
ATOM     12  C   UNL     1      -2.989   3.807  -0.005  0.00  0.00    +0.006 A 
BRANCH  10  13
ATOM     13  C   UNL     1       0.263   5.251  -1.267  0.00  0.00    +0.032 C 
ATOM     14  C   UNL     1       0.094   5.602  -2.747  0.00  0.00    +0.009 C 
ENDBRANCH  10  13
ENDBRANCH   2   7
BRANCH   4  15
ATOM     15  O   UNL     1      -7.326   2.123  -0.330  0.00  0.00    -0.502 OA
ATOM     16  H   UNL     1      -7.919   2.367   0.437  0.00  0.00    +0.292 HD
ENDBRANCH   4  15
BRANCH   3  17
ATOM     17  C   UNL     1      -5.009   1.358  -2.097  0.00  0.00    +0.195 C 
ATOM     18  O   UNL     1      -5.222   2.288  -2.852  0.00  0.00    -0.287 OA
BRANCH  17  19
ATOM     19  C   UNL     1      -4.755   0.007  -2.641  0.00  0.00    +0.022 A 
ATOM     20  C   UNL     1      -4.612  -1.081  -1.778  0.00  0.00    +0.013 A 
ATOM     21  C   UNL     1      -4.378  -2.339  -2.292  0.00  0.00    +0.016 A 
ATOM     22  C   UNL     1      -4.276  -2.523  -3.661  0.00  0.00    +0.018 A 
ATOM     23  C   UNL     1      -4.411  -1.447  -4.522  0.00  0.00    +0.016 A 
ATOM     24  C   UNL     1      -4.649  -0.185  -4.021  0.00  0.00    +0.013 A 
ATOM     25 BR   UNL     1      -3.949  -4.251  -4.357  0.00  0.00    -0.050 Br
ENDBRANCH  17  19
ENDBRANCH   3  17
BRANCH   1  26
ATOM     26  C   UNL     1      -3.520   1.790   2.854  0.00  0.00    +0.107 C 
BRANCH  26  27
ATOM     27  C   UNL     1      -2.944   3.190   3.070  0.00  0.00    +0.000 C 
BRANCH  27  28
ATOM     28  C   UNL     1      -2.114   3.207   4.356  0.00  0.00    -0.077 C 
BRANCH  28  29
ATOM     29  N   UNL     1      -1.582   4.571   4.562  0.00  0.00    +0.380 N 
ATOM     30  H   UNL     1      -2.356   5.243   4.502  0.00  0.00    -0.082 HD
BRANCH  29  31
ATOM     31  C   UNL     1      -0.959   4.673   5.898  0.00  0.00    -0.079 C 
BRANCH  31  32
ATOM     32  C   UNL     1      -2.065   4.826   6.944  0.00  0.00    -0.019 C 
BRANCH  32  34
ATOM     33  C   UNL     1      -2.545   5.090   9.382  0.00  0.00    +0.004 C 
ATOM     34  C   UNL     1      -1.439   4.937   8.336  0.00  0.00    -0.005 C 
ENDBRANCH  32  34
ENDBRANCH  31  32
ENDBRANCH  29  31
BRANCH  29  35
ATOM     35  C   UNL     1      -0.589   4.889   3.515  0.00  0.00    -0.079 C 
BRANCH  35  36
ATOM     36  C   UNL     1      -0.325   6.396   3.530  0.00  0.00    -0.019 C 
BRANCH  36  37
ATOM     37  C   UNL     1       0.694   6.747   2.443  0.00  0.00    -0.005 C 
ATOM     38  C   UNL     1       0.958   8.254   2.458  0.00  0.00    +0.004 C 
ENDBRANCH  36  37
ENDBRANCH  35  36
ENDBRANCH  29  35
ENDBRANCH  28  29
ENDBRANCH  27  28
ENDBRANCH  26  27
ENDBRANCH   1  26
TORSDOF 15
