REMARK  Name = ZINC19163269
REMARK  5 active torsions:
REMARK  status: ('A' for Active; 'I' for Inactive)
REMARK    1  A    between atoms: C_4  and  N_10
REMARK    2  A    between atoms: C_6  and  N_7
REMARK    3  A    between atoms: C_11  and  C_13
REMARK    4  A    between atoms: N_16  and  S_19
REMARK    5  A    between atoms: S_19  and  C_22
REMARK                            x       y       z     vdW  Elec       q    Type
REMARK                         _______ _______ _______ _____ _____    ______ ____
ROOT
ATOM      1  C   UNL     1       4.960  -2.727   0.154  0.00  0.00    +0.078 C 
ATOM      2  C   UNL     1       5.800  -2.429  -1.090  0.00  0.00    +0.030 C 
ATOM      3  C   UNL     1       7.151  -3.142  -0.972  0.00  0.00    +0.110 C 
ATOM      4  N   UNL     1       6.911  -4.572  -0.735  0.00  0.00    -0.177 NA
ATOM      5  C   UNL     1       6.043  -4.967   0.383  0.00  0.00    +0.110 C 
ATOM      6  C   UNL     1       4.705  -4.233   0.250  0.00  0.00    +0.030 C 
ENDROOT
BRANCH   1   8
ATOM      7  N   UNL     1       3.622  -0.656  -0.037  0.00  0.00    -0.283 N 
ATOM      8  C   UNL     1       3.644  -2.000   0.058  0.00  0.00    +0.220 C 
ATOM      9  O   UNL     1       2.604  -2.624   0.065  0.00  0.00    -0.275 OA
ATOM     10  H   UNL     1       4.452  -0.162  -0.123  0.00  0.00    +0.155 HD
BRANCH   7  14
ATOM     11  C   UNL     1      -0.015   1.380   0.043  0.00  0.00    +0.035 A 
ATOM     12  C   UNL     1       1.083   1.955  -0.571  0.00  0.00    +0.042 A 
ATOM     13  C   UNL     1       2.291   1.283  -0.600  0.00  0.00    +0.145 A 
ATOM     14  C   UNL     1       2.400   0.029  -0.010  0.00  0.00    +0.071 A 
ATOM     15  C   UNL     1       1.296  -0.544   0.606  0.00  0.00    +0.059 A 
ATOM     16  C   UNL     1       0.092   0.133   0.630  0.00  0.00    +0.128 A 
ATOM     17  F   UNL     1       3.363   1.845  -1.200  0.00  0.00    -0.204 F 
BRANCH  16  18
ATOM     18  N   UNL     1      -1.086  -0.477   1.287  0.00  0.00    +0.056 N 
ATOM     19  O   UNL     1      -2.140   0.114   1.310  0.00  0.00    -0.126 OA
ATOM     20  O   UNL     1      -0.994  -1.568   1.801  0.00  0.00    -0.126 OA
ENDBRANCH  16  18
ENDBRANCH   7  14
ENDBRANCH   1   8
BRANCH   4  21
ATOM     21  S   UNL     1       7.607  -5.717  -1.708  0.00  0.00    +0.061 S 
ATOM     22  O   UNL     1       6.794  -6.879  -1.613  0.00  0.00    -0.153 OA
ATOM     23  O   UNL     1       7.885  -5.081  -2.948  0.00  0.00    -0.153 OA
BRANCH  21  24
ATOM     24  C   UNL     1       9.164  -6.131  -0.994  0.00  0.00    +0.106 A 
ATOM     25  C   UNL     1      10.300  -5.428  -1.350  0.00  0.00    +0.029 A 
ATOM     26  C   UNL     1      11.515  -5.760  -0.789  0.00  0.00    +0.006 A 
ATOM     27  C   UNL     1      11.608  -6.796   0.132  0.00  0.00    -0.044 A 
ATOM     28  C   UNL     1      10.476  -7.493   0.490  0.00  0.00    -0.042 A 
ATOM     29  C   UNL     1       9.253  -7.155  -0.074  0.00  0.00    +0.032 A 
ATOM     30  C   UNL     1      10.499  -8.616   1.494  0.00  0.00    +0.035 C 
ATOM     31  C   UNL     1      11.923  -9.133   1.688  0.00  0.00    +0.005 C 
ATOM     32  C   UNL     1      12.838  -7.937   1.977  0.00  0.00    +0.005 C 
ATOM     33  C   UNL     1      12.967  -7.110   0.699  0.00  0.00    +0.035 C 
ENDBRANCH  21  24
ENDBRANCH   4  21
TORSDOF 5
