REMARK  Name = ZINC36531125
REMARK  12 active torsions:
REMARK  status: ('A' for Active; 'I' for Inactive)
REMARK    1  A    between atoms: C_1  and  C_2
REMARK    2  A    between atoms: C_5  and  S_8
REMARK    3  A    between atoms: S_8  and  C_11
REMARK    4  A    between atoms: C_11  and  N_12
REMARK    5  A    between atoms: C_13  and  C_15
REMARK    6  A    between atoms: C_15  and  C_17
REMARK    7  A    between atoms: C_15  and  N_26
REMARK    8  A    between atoms: C_20  and  N_23
REMARK    9  A    between atoms: N_26  and  C_27
REMARK   10  A    between atoms: C_28  and  C_30
REMARK   11  A    between atoms: C_31  and  O_37
REMARK   12  A    between atoms: C_35  and  O_36
REMARK                            x       y       z     vdW  Elec       q    Type
REMARK                         _______ _______ _______ _____ _____    ______ ____
ROOT
ATOM      1  C   UNL     1       3.256  -4.899   3.568  0.00  0.00    +0.192 C 
ENDROOT
BRANCH   1   2
ATOM      2  C   UNL     1       4.653  -4.335   3.580  0.00  0.00    -0.018 A 
ATOM      3  C   UNL     1       4.856  -2.997   3.865  0.00  0.00    +0.008 A 
ATOM      4  C   UNL     1       6.138  -2.479   3.876  0.00  0.00    +0.033 A 
ATOM      5  C   UNL     1       7.216  -3.299   3.601  0.00  0.00    +0.126 A 
ATOM      6  C   UNL     1       7.014  -4.636   3.317  0.00  0.00    +0.033 A 
ATOM      7  C   UNL     1       5.733  -5.155   3.311  0.00  0.00    +0.008 A 
BRANCH   5   8
ATOM      8  N   UNL     1       8.589  -2.744   3.611  0.00  0.00    +0.056 N 
ATOM      9  O   UNL     1       8.766  -1.574   3.860  0.00  0.00    -0.126 OA
ATOM     10  O   UNL     1       9.532  -3.461   3.372  0.00  0.00    -0.126 OA
ENDBRANCH   5   8
ENDBRANCH   1   2
BRANCH   1  12
ATOM     11  N   UNL     1       2.901  -4.443   1.163  0.00  0.00    -0.294 N 
ATOM     12  C   UNL     1       2.903  -5.338   2.170  0.00  0.00    +0.239 C 
ATOM     13  O   UNL     1       2.621  -6.497   1.952  0.00  0.00    -0.273 OA
ATOM     14  H   UNL     1       3.126  -3.515   1.338  0.00  0.00    +0.150 HD
BRANCH  11  15
ATOM     15  C   UNL     1       2.558  -4.869  -0.196  0.00  0.00    +0.278 C 
BRANCH  15  16
ATOM     16  S   UNL     1       0.795  -4.565  -0.498  0.00  0.00    +0.013 S 
ATOM     17  O   UNL     1       0.021  -5.045   0.593  0.00  0.00    -0.168 OA
ATOM     18  O   UNL     1       0.460  -4.915  -1.834  0.00  0.00    -0.168 OA
BRANCH  16  23
ATOM     19  C   UNL     1       0.195   1.435  -0.284  0.00  0.00    +0.044 C 
ATOM     20  C   UNL     1       0.345  -0.064  -0.338  0.00  0.00    -0.050 A 
ATOM     21  C   UNL     1       0.627  -0.688  -1.538  0.00  0.00    +0.005 A 
ATOM     22  C   UNL     1       0.765  -2.062  -1.587  0.00  0.00    +0.027 A 
ATOM     23  C   UNL     1       0.621  -2.813  -0.435  0.00  0.00    +0.090 A 
ATOM     24  C   UNL     1       0.339  -2.189   0.766  0.00  0.00    +0.027 A 
ATOM     25  C   UNL     1       0.206  -0.814   0.815  0.00  0.00    +0.005 A 
ENDBRANCH  16  23
ENDBRANCH  15  16
ENDBRANCH  11  15
ENDBRANCH   1  12
BRANCH   1  26
ATOM     26  N   UNL     1       3.187  -6.049   4.473  0.00  0.00    -0.285 N 
ATOM     27  C   UNL     1       3.991  -7.243   4.204  0.00  0.00    +0.133 C 
ATOM     28  C   UNL     1       2.383  -6.008   5.554  0.00  0.00    +0.254 C 
ATOM     29  O   UNL     1       1.715  -5.017   5.778  0.00  0.00    -0.270 OA
BRANCH  28  30
ATOM     30  C   UNL     1       2.313  -7.164   6.464  0.00  0.00    +0.119 A 
ATOM     31  C   UNL     1       3.182  -7.253   7.561  0.00  0.00    +0.133 A 
ATOM     32  C   UNL     1       3.108  -8.345   8.411  0.00  0.00    +0.046 A 
ATOM     33  C   UNL     1       2.181  -9.344   8.181  0.00  0.00    +0.007 A 
ATOM     34  C   UNL     1       1.319  -9.267   7.102  0.00  0.00    +0.046 A 
ATOM     35  C   UNL     1       1.373  -8.181   6.243  0.00  0.00    +0.133 A 
BRANCH  35  36
ATOM     36  O   UNL     1       0.522  -8.104   5.189  0.00  0.00    -0.506 OA
ATOM     37  H   UNL     1       0.860  -8.513   4.380  0.00  0.00    +0.292 HD
ENDBRANCH  35  36
BRANCH  31  38
ATOM     38  O   UNL     1       4.093  -6.274   7.788  0.00  0.00    -0.506 OA
ATOM     39  H   UNL     1       3.770  -5.560   8.355  0.00  0.00    +0.292 HD
ENDBRANCH  31  38
ENDBRANCH  28  30
ENDBRANCH   1  26
TORSDOF 10
