REMARK  Name = ZINC49967627
REMARK  8 active torsions:
REMARK  status: ('A' for Active; 'I' for Inactive)
REMARK    1  A    between atoms: C_1  and  C_2
REMARK    2  A    between atoms: C_5  and  C_8
REMARK    3  A    between atoms: C_10  and  C_22
REMARK    4  A    between atoms: C_11  and  C_18
REMARK    5  A    between atoms: C_18  and  O_20
REMARK    6  A    between atoms: O_20  and  C_21
REMARK    7  A    between atoms: C_22  and  C_24
REMARK    8  A    between atoms: C_27  and  C_30
REMARK                            x       y       z     vdW  Elec       q    Type
REMARK                         _______ _______ _______ _____ _____    ______ ____
ROOT
ATOM      1  C   UNL     1       0.059  -4.275  -0.021  0.00  0.00    +0.159 C 
ATOM      2  C   UNL     1       1.311  -4.781   0.704  0.00  0.00    +0.145 C 
ATOM      3  C   UNL     1       1.155  -4.683   2.195  0.00  0.00    +0.142 C 
ATOM      4  N   UNL     1       0.006  -4.840   2.792  0.00  0.00    -0.207 NA
ATOM      5  C   UNL     1      -1.097  -5.050   2.032  0.00  0.00    +0.270 A 
ATOM      6  N   UNL     1      -1.116  -4.789   0.685  0.00  0.00    -0.201 N 
ATOM      7  N   UNL     1      -2.285  -5.079   0.262  0.00  0.00    -0.042 NA
ATOM      8  N   UNL     1      -2.995  -5.508   1.251  0.00  0.00    -0.021 NA
ATOM      9  N   UNL     1      -2.290  -5.498   2.338  0.00  0.00    -0.088 NA
ENDROOT
BRANCH   1  14
ATOM     10  C   UNL     1      -0.018   1.503   0.010  0.00  0.00    +0.044 C 
ATOM     11  C   UNL     1       0.002  -0.004   0.002  0.00  0.00    -0.050 A 
ATOM     12  C   UNL     1       0.006  -0.689  -1.199  0.00  0.00    +0.004 A 
ATOM     13  C   UNL     1       0.025  -2.071  -1.206  0.00  0.00    +0.006 A 
ATOM     14  C   UNL     1       0.040  -2.768  -0.013  0.00  0.00    -0.022 A 
ATOM     15  C   UNL     1       0.037  -2.084   1.188  0.00  0.00    +0.006 A 
ATOM     16  C   UNL     1       0.023  -0.702   1.195  0.00  0.00    +0.004 A 
ENDBRANCH   1  14
BRANCH   3  17
ATOM     17  C   UNL     1       2.346  -4.397   3.014  0.00  0.00    +0.354 C 
ATOM     18  O   UNL     1       3.428  -4.246   2.482  0.00  0.00    -0.244 OA
BRANCH  17  19
ATOM     19  O   UNL     1       2.236  -4.304   4.355  0.00  0.00    -0.464 OA
ATOM     20  C   UNL     1       3.432  -4.025   5.086  0.00  0.00    +0.280 C 
ENDBRANCH  17  19
ENDBRANCH   3  17
BRANCH   2  21
ATOM     21  C   UNL     1       2.496  -3.954   0.277  0.00  0.00    +0.175 C 
ATOM     22  O   UNL     1       2.343  -2.796  -0.047  0.00  0.00    -0.291 OA
BRANCH  21  23
ATOM     23  C   UNL     1       3.841  -4.553   0.253  0.00  0.00    +0.018 A 
ATOM     24  C   UNL     1       4.021  -5.890   0.621  0.00  0.00    +0.011 A 
ATOM     25  C   UNL     1       5.283  -6.444   0.595  0.00  0.00    +0.004 A 
ATOM     26  C   UNL     1       6.370  -5.680   0.207  0.00  0.00    -0.050 A 
ATOM     27  C   UNL     1       6.200  -4.356  -0.157  0.00  0.00    +0.004 A 
ATOM     28  C   UNL     1       4.943  -3.789  -0.142  0.00  0.00    +0.011 A 
ATOM     29  C   UNL     1       7.747  -6.294   0.182  0.00  0.00    +0.044 C 
ENDBRANCH  21  23
ENDBRANCH   2  21
TORSDOF 5
