REMARK  Name = ZINC39793632
REMARK  7 active torsions:
REMARK  status: ('A' for Active; 'I' for Inactive)
REMARK    1  A    between atoms: C_4  and  O_27
REMARK    2  A    between atoms: C_5  and  C_7
REMARK    3  A    between atoms: N_11  and  C_15
REMARK    4  A    between atoms: C_15  and  C_16
REMARK    5  A    between atoms: C_22  and  C_24
REMARK    6  A    between atoms: C_24  and  C_25
REMARK    7  A    between atoms: O_27  and  C_28
REMARK                            x       y       z     vdW  Elec       q    Type
REMARK                         _______ _______ _______ _____ _____    ______ ____
ROOT
ATOM      1  C   UNL     1       1.804  -2.025   0.156  0.00  0.00    +0.031 C 
ATOM      2  C   UNL     1       0.793  -2.929   0.226  0.00  0.00    +0.077 C 
ATOM      3  C   UNL     1       0.811  -4.327   0.701  0.00  0.00    +0.259 C 
ATOM      4  O   UNL     1       1.831  -4.849   1.113  0.00  0.00    -0.269 OA
ATOM      5  N   UNL     1      -0.336  -4.983   0.657  0.00  0.00    -0.246 N 
ATOM      6  C   UNL     1      -1.464  -4.400   0.200  0.00  0.00    +0.121 C 
ATOM      7  S   UNL     1      -3.030  -5.077   0.066  0.00  0.00    -0.027 S 
ATOM      8  S   UNL     1      -0.928  -2.751  -0.224  0.00  0.00    -0.061 S 
ENDROOT
BRANCH   1  13
ATOM      9  C   UNL     1      -0.049   1.183  -0.409  0.00  0.00    +0.001 A 
ATOM     10  C   UNL     1       0.972   2.014  -0.840  0.00  0.00    +0.004 A 
ATOM     11  C   UNL     1       2.264   1.536  -0.950  0.00  0.00    +0.046 A 
ATOM     12  C   UNL     1       2.548   0.219  -0.627  0.00  0.00    +0.128 A 
ATOM     13  C   UNL     1       1.516  -0.628  -0.189  0.00  0.00    +0.018 A 
ATOM     14  C   UNL     1       0.212  -0.130  -0.084  0.00  0.00    +0.011 A 
BRANCH  12  15
ATOM     15  O   UNL     1       3.817  -0.251  -0.734  0.00  0.00    -0.488 OA
BRANCH  15  16
ATOM     16  C   UNL     1       4.825   0.685  -1.119  0.00  0.00    +0.173 C 
ATOM     17  C   UNL     1       4.799   0.867  -2.638  0.00  0.00    +0.044 C 
ATOM     18  C   UNL     1       5.879   1.869  -3.051  0.00  0.00    +0.004 C 
ATOM     19  C   UNL     1       7.251   1.345  -2.623  0.00  0.00    +0.000 C 
ATOM     20  C   UNL     1       7.277   1.163  -1.105  0.00  0.00    +0.004 C 
ATOM     21  C   UNL     1       6.198   0.161  -0.692  0.00  0.00    +0.044 C 
ENDBRANCH  15  16
ENDBRANCH  12  15
ENDBRANCH   1  13
BRANCH   5  22
ATOM     22  C   UNL     1      -0.384  -6.373   1.114  0.00  0.00    +0.211 C 
BRANCH  22  23
ATOM     23  C   UNL     1      -0.704  -6.407   2.587  0.00  0.00    +0.237 C 
ATOM     24  O   UNL     1      -0.875  -5.372   3.194  0.00  0.00    -0.274 OA
ATOM     25  N   UNL     1      -0.799  -7.589   3.228  0.00  0.00    -0.262 N 
ATOM     26  C   UNL     1      -1.095  -7.620   4.587  0.00  0.00    +0.188 A 
ATOM     27  N   UNL     1      -1.318  -6.617   5.413  0.00  0.00    -0.126 NA
ATOM     28  N   UNL     1      -1.577  -6.803   6.635  0.00  0.00    -0.145 NA
ATOM     29  C   UNL     1      -1.625  -8.036   7.100  0.00  0.00    +0.105 A 
ATOM     30  S   UNL     1      -1.267  -8.951   5.607  0.00  0.00    -0.035 S 
ATOM     31  H   UNL     1      -0.662  -8.417   2.743  0.00  0.00    +0.157 HD
BRANCH  29  32
ATOM     32  C   UNL     1      -1.908  -8.532   8.494  0.00  0.00    +0.080 C 
BRANCH  32  33
ATOM     33  C   UNL     1      -3.412  -8.762   8.659  0.00  0.00    +0.115 C 
ATOM     34 CL   UNL     1      -3.750  -9.357  10.327  0.00  0.00    -0.125 Cl
ENDBRANCH  32  33
ENDBRANCH  29  32
ENDBRANCH  22  23
ENDBRANCH   5  22
TORSDOF 7
