REMARK  Name = ZINC21465894
REMARK  8 active torsions:
REMARK  status: ('A' for Active; 'I' for Inactive)
REMARK    1  A    between atoms: C_2  and  C_3
REMARK    2  A    between atoms: C_3  and  N_4
REMARK    3  A    between atoms: C_8  and  C_10
REMARK    4  A    between atoms: C_10  and  S_11
REMARK    5  A    between atoms: S_11  and  C_12
REMARK    6  A    between atoms: N_22  and  C_23
REMARK    7  A    between atoms: C_23  and  C_24
REMARK    8  A    between atoms: C_24  and  C_25
REMARK                            x       y       z     vdW  Elec       q    Type
REMARK                         _______ _______ _______ _____ _____    ______ ____
ROOT
ATOM      1  C   UNL     1      -1.119  -2.036   0.003  0.00  0.00    +0.173 A 
ATOM      2  N   UNL     1      -1.136  -0.726   0.009  0.00  0.00    -0.223 NA
ATOM      3  C   UNL     1       0.002  -0.004   0.002  0.00  0.00    +0.079 A 
ATOM      4  C   UNL     1      -0.017   1.394   0.010  0.00  0.00    +0.028 A 
ATOM      5  C   UNL     1       1.161   2.086   0.002  0.00  0.00    +0.002 A 
ATOM      6  C   UNL     1       2.381   1.422  -0.013  0.00  0.00    +0.001 A 
ATOM      7  C   UNL     1       2.432   0.055  -0.021  0.00  0.00    +0.015 A 
ATOM      8  C   UNL     1       1.245  -0.677  -0.013  0.00  0.00    +0.065 A 
ATOM      9  C   UNL     1       1.239  -2.146  -0.021  0.00  0.00    +0.262 A 
ATOM     10  O   UNL     1       2.277  -2.782  -0.035  0.00  0.00    -0.267 OA
ATOM     11  N   UNL     1       0.036  -2.766  -0.012  0.00  0.00    -0.287 N 
ENDROOT
BRANCH   1  12
ATOM     12  S   UNL     1      -2.656  -2.897   0.014  0.00  0.00    -0.078 S 
BRANCH  12  13
ATOM     13  C   UNL     1      -3.801  -1.496   0.032  0.00  0.00    +0.173 C 
BRANCH  13  18
ATOM     14  N   UNL     1      -8.545  -0.721   0.083  0.00  0.00    -0.296 N 
ATOM     15  C   UNL     1      -7.516  -1.591   0.068  0.00  0.00    +0.306 C 
ATOM     16  O   UNL     1      -7.732  -2.787   0.065  0.00  0.00    -0.252 OA
ATOM     17  N   UNL     1      -6.248  -1.135   0.058  0.00  0.00    -0.239 N 
ATOM     18  C   UNL     1      -5.219  -2.005   0.044  0.00  0.00    +0.231 C 
ATOM     19  O   UNL     1      -5.434  -3.199   0.040  0.00  0.00    -0.274 OA
ATOM     20  H   UNL     1      -8.350   0.362   0.086  0.00  0.00    +0.151 HD
ATOM     21  H   UNL     1      -6.053  -0.053   0.061  0.00  0.00    +0.159 HD
BRANCH  14  22
ATOM     22  C   UNL     1      -9.924  -1.216   0.094  0.00  0.00    +0.132 C 
BRANCH  22  24
ATOM     23  C   UNL     1     -11.805   0.051  -0.811  0.00  0.00    +0.005 C 
ATOM     24  C   UNL     1     -10.877  -0.049   0.109  0.00  0.00    -0.016 C 
ENDBRANCH  22  24
ENDBRANCH  14  22
ENDBRANCH  13  18
ENDBRANCH  12  13
ENDBRANCH   1  12
BRANCH  11  25
ATOM     25  C   UNL     1      -0.028  -4.229  -0.019  0.00  0.00    +0.132 C 
BRANCH  25  26
ATOM     26  C   UNL     1      -0.036  -4.747   1.420  0.00  0.00    +0.058 C 
BRANCH  26  27
ATOM     27  C   UNL     1      -0.103  -6.252   1.413  0.00  0.00    -0.027 A 
ATOM     28  C   UNL     1       1.047  -6.995   1.605  0.00  0.00    +0.006 A 
ATOM     29  C   UNL     1       0.987  -8.376   1.599  0.00  0.00    +0.020 A 
ATOM     30  C   UNL     1      -0.224  -9.015   1.400  0.00  0.00    +0.042 A 
ATOM     31  C   UNL     1      -1.374  -8.272   1.208  0.00  0.00    +0.040 A 
ATOM     32  C   UNL     1      -1.315  -6.890   1.219  0.00  0.00    +0.046 A 
ATOM     33 CL   UNL     1      -2.759  -5.957   0.984  0.00  0.00    -0.083 Cl
ATOM     34 CL   UNL     1      -0.299 -10.750   1.392  0.00  0.00    -0.083 Cl
ENDBRANCH  26  27
ENDBRANCH  25  26
ENDBRANCH  11  25
TORSDOF 8
