REMARK  Name = ZINC02687320
REMARK  11 active torsions:
REMARK  status: ('A' for Active; 'I' for Inactive)
REMARK    1  A    between atoms: C_5  and  C_7
REMARK    2  A    between atoms: C_7  and  N_8
REMARK    3  A    between atoms: C_9  and  C_11
REMARK    4  A    between atoms: C_11  and  C_12
REMARK    5  A    between atoms: C_12  and  C_13
REMARK    6  A    between atoms: C_13  and  C_14
REMARK    7  A    between atoms: C_14  and  C_15
REMARK    8  A    between atoms: C_15  and  N_16
REMARK    9  A    between atoms: N_24  and  C_27
REMARK   10  A    between atoms: C_27  and  C_28
REMARK   11  A    between atoms: C_33  and  C_34
REMARK                            x       y       z     vdW  Elec       q    Type
REMARK                         _______ _______ _______ _____ _____    ______ ____
ROOT
ATOM      1  N   UNL     1       3.901  -1.149  -0.020  0.00  0.00    -0.260 N 
ATOM      2  C   UNL     1       2.561  -1.331  -0.033  0.00  0.00    +0.271 A 
ATOM      3  O   UNL     1       2.090  -2.454  -0.035  0.00  0.00    -0.266 OA
ATOM      4  C   UNL     1       1.724  -0.210  -0.042  0.00  0.00    +0.100 A 
ATOM      5  C   UNL     1       2.242   1.089  -0.040  0.00  0.00    +0.066 A 
ATOM      6  C   UNL     1       1.285   2.099  -0.050  0.00  0.00    +0.034 A 
ATOM      7  C   UNL     1      -0.031   1.784  -0.060  0.00  0.00    +0.048 A 
ATOM      8  S   UNL     1      -0.029   0.049  -0.057  0.00  0.00    -0.090 S 
ATOM      9  N   UNL     1       3.643   1.192  -0.028  0.00  0.00    -0.288 N 
ATOM     10  C   UNL     1       4.412   0.094  -0.018  0.00  0.00    +0.333 A 
ATOM     11  O   UNL     1       5.621   0.228  -0.009  0.00  0.00    -0.246 OA
ENDROOT
BRANCH   1  12
ATOM     12  C   UNL     1       4.797  -2.308  -0.010  0.00  0.00    +0.130 C 
BRANCH  12  13
ATOM     13  C   UNL     1       5.096  -2.709   1.436  0.00  0.00    +0.022 C 
BRANCH  13  14
ATOM     14  C   UNL     1       6.031  -3.920   1.446  0.00  0.00    +0.002 C 
BRANCH  14  15
ATOM     15  C   UNL     1       6.330  -4.320   2.893  0.00  0.00    +0.009 C 
BRANCH  15  16
ATOM     16  C   UNL     1       7.265  -5.531   2.903  0.00  0.00    +0.096 C 
BRANCH  16  18
ATOM     17  N   UNL     1       8.368  -6.974   4.583  0.00  0.00    -0.311 N 
ATOM     18  C   UNL     1       7.560  -5.926   4.327  0.00  0.00    +0.213 C 
ATOM     19  O   UNL     1       7.070  -5.300   5.244  0.00  0.00    -0.276 OA
ATOM     20  H   UNL     1       8.759  -7.474   3.850  0.00  0.00    +0.149 HD
BRANCH  17  21
ATOM     21  C   UNL     1       8.654  -7.358   5.968  0.00  0.00    +0.141 C 
BRANCH  21  26
ATOM     22  C   UNL     1       9.908 -10.912   6.195  0.00  0.00    +0.000 A 
ATOM     23  C   UNL     1      11.265 -10.739   5.998  0.00  0.00    +0.001 A 
ATOM     24  C   UNL     1      11.779  -9.473   5.792  0.00  0.00    +0.020 A 
ATOM     25  C   UNL     1      10.933  -8.377   5.782  0.00  0.00    +0.046 A 
ATOM     26  C   UNL     1       9.575  -8.550   5.978  0.00  0.00    -0.012 A 
ATOM     27  C   UNL     1       9.064  -9.817   6.190  0.00  0.00    +0.006 A 
ATOM     28 CL   UNL     1      11.577  -6.786   5.523  0.00  0.00    -0.083 Cl
ENDBRANCH  21  26
ENDBRANCH  17  21
ENDBRANCH  16  18
ENDBRANCH  15  16
ENDBRANCH  14  15
ENDBRANCH  13  14
ENDBRANCH  12  13
ENDBRANCH   1  12
BRANCH   9  29
ATOM     29  C   UNL     1       4.271   2.516  -0.024  0.00  0.00    +0.163 C 
BRANCH  29  30
ATOM     30  C   UNL     1       4.381   3.016   1.393  0.00  0.00    -0.010 A 
ATOM     31  C   UNL     1       4.030   2.196   2.445  0.00  0.00    +0.006 A 
ATOM     32  C   UNL     1       4.130   2.653   3.747  0.00  0.00    +0.000 A 
ATOM     33  C   UNL     1       4.582   3.936   4.003  0.00  0.00    +0.001 A 
ATOM     34  C   UNL     1       4.937   4.767   2.961  0.00  0.00    +0.019 A 
ATOM     35  C   UNL     1       4.843   4.309   1.645  0.00  0.00    +0.057 A 
BRANCH  35  36
ATOM     36  C   UNL     1       5.215   5.164   0.558  0.00  0.00    +0.099 C 
ATOM     37  N   UNL     1       5.509   5.843  -0.304  0.00  0.00    -0.191 NA
ENDBRANCH  35  36
ENDBRANCH  29  30
ENDBRANCH   9  29
TORSDOF 11
