REMARK  Name = ZINC49432212
REMARK  1 active torsions:
REMARK  status: ('A' for Active; 'I' for Inactive)
REMARK    1  A    between atoms: N_9  and  C_10
REMARK                            x       y       z     vdW  Elec       q    Type
REMARK                         _______ _______ _______ _____ _____    ______ ____
ROOT
ATOM      1  C   UNL     1      -0.017   1.379   0.010  0.00  0.00    +0.083 A 
ATOM      2  C   UNL     1       1.201   2.061   0.002  0.00  0.00    +0.126 A 
ATOM      3  N   UNL     1       2.332   1.362  -0.013  0.00  0.00    -0.200 NA
ATOM      4  C   UNL     1       2.308   0.038  -0.020  0.00  0.00    +0.216 A 
ATOM      5  N   UNL     1       1.168  -0.636  -0.013  0.00  0.00    -0.203 NA
ATOM      6  C   UNL     1       0.002  -0.004   0.002  0.00  0.00    +0.136 A 
ATOM      7 CL   UNL     1      -1.484  -0.902   0.012  0.00  0.00    -0.062 Cl
ATOM      8  N   UNL     1       3.504  -0.658  -0.035  0.00  0.00    -0.327 N 
ATOM      9  N   UNL     1       1.231   3.446   0.008  0.00  0.00    -0.318 N 
ATOM     10  H   UNL     1       4.345  -0.177  -0.041  0.00  0.00    +0.145 HD
ATOM     11  H   UNL     1       3.500  -1.629  -0.041  0.00  0.00    +0.145 HD
ATOM     12  H   UNL     1       2.081   3.913   0.003  0.00  0.00    +0.148 HD
ENDROOT
BRANCH   9  13
ATOM     13  C   UNL     1      -0.022   4.205   0.024  0.00  0.00    +0.158 C 
ATOM     14  C   UNL     1       0.223   5.590   0.629  0.00  0.00    +0.032 C 
ATOM     15  C   UNL     1      -1.059   6.157   1.212  0.00  0.00    +0.004 C 
ATOM     16  C   UNL     1      -2.117   6.473   0.171  0.00  0.00    +0.019 C 
ATOM     17  C   UNL     1      -2.638   5.193  -0.485  0.00  0.00    +0.104 C 
ATOM     18  N   UNL     1      -1.757   4.850  -1.613  0.00  0.00    -0.314 N 
ATOM     19  C   UNL     1      -0.530   4.378  -1.392  0.00  0.00    +0.233 C 
ATOM     20  O   UNL     1       0.184   4.091  -2.329  0.00  0.00    -0.274 OA
ATOM     21  H   UNL     1      -2.072   4.965  -2.523  0.00  0.00    +0.149 HD
ENDBRANCH   9  13
TORSDOF 1
