REMARK  Name = ZINC27990738
REMARK  13 active torsions:
REMARK  status: ('A' for Active; 'I' for Inactive)
REMARK    1  A    between atoms: C_1  and  N_2
REMARK    2  A    between atoms: N_2  and  C_3
REMARK    3  A    between atoms: N_2  and  C_4
REMARK    4  A    between atoms: C_4  and  C_6
REMARK    5  A    between atoms: C_4  and  C_22
REMARK    6  A    between atoms: C_6  and  N_7
REMARK    7  A    between atoms: N_7  and  C_8
REMARK    8  A    between atoms: C_9  and  C_20
REMARK    9  A    between atoms: C_11  and  C_13
REMARK   10  A    between atoms: C_25  and  O_30
REMARK   11  A    between atoms: C_26  and  O_28
REMARK   12  A    between atoms: O_28  and  C_29
REMARK   13  A    between atoms: O_30  and  C_31
REMARK                            x       y       z     vdW  Elec       q    Type
REMARK                         _______ _______ _______ _____ _____    ______ ____
ROOT
ATOM      1  C   UNL     1       0.889   4.144  -0.610  0.00  0.00    +0.094 C 
ENDROOT
BRANCH   1   2
ATOM      2  N   UNL     1       1.948   3.144  -0.447  0.00  0.00    -0.314 N 
ATOM      3  H   UNL     1       2.942   3.449  -0.088  0.00  0.00    +0.149 HD
BRANCH   2   4
ATOM      4  C   UNL     1       1.698   1.822  -0.742  0.00  0.00    +0.225 A 
ATOM      5  C   UNL     1       2.593   0.767  -0.639  0.00  0.00    +0.201 A 
ATOM      6  N   UNL     1       1.930  -0.353  -1.030  0.00  0.00    -0.196 NA
ATOM      7  C   UNL     1       0.707  -0.023  -1.355  0.00  0.00    +0.231 A 
ATOM      8  O   UNL     1       0.539   1.303  -1.188  0.00  0.00    -0.421 OA
BRANCH   7   9
ATOM      9  C   UNL     1      -0.331  -0.960  -1.833  0.00  0.00    +0.037 A 
ATOM     10  C   UNL     1      -1.608  -0.491  -2.145  0.00  0.00    +0.014 A 
ATOM     11  C   UNL     1      -2.571  -1.370  -2.595  0.00  0.00    +0.021 A 
ATOM     12  C   UNL     1      -2.277  -2.716  -2.727  0.00  0.00    +0.041 A 
ATOM     13  C   UNL     1      -1.013  -3.188  -2.413  0.00  0.00    +0.021 A 
ATOM     14  C   UNL     1      -0.040  -2.319  -1.967  0.00  0.00    +0.014 A 
ATOM     15 CL   UNL     1      -3.496  -3.817  -3.287  0.00  0.00    -0.084 Cl
ENDBRANCH   7   9
BRANCH   5  16
ATOM     16  C   UNL     1       3.955   0.844  -0.203  0.00  0.00    +0.124 C 
ATOM     17  N   UNL     1       5.035   0.905   0.142  0.00  0.00    -0.189 NA
ENDBRANCH   5  16
ENDBRANCH   2   4
ENDBRANCH   1   2
BRANCH   1  18
ATOM     18  C   UNL     1       1.424   5.522  -0.216  0.00  0.00    -0.021 C 
BRANCH  18  19
ATOM     19  C   UNL     1       0.376   6.567  -0.500  0.00  0.00    -0.056 A 
ATOM     20  C   UNL     1      -0.100   6.734  -1.788  0.00  0.00    +0.006 A 
ATOM     21  C   UNL     1      -1.065   7.688  -2.052  0.00  0.00    +0.049 A 
ATOM     22  C   UNL     1      -1.549   8.487  -1.028  0.00  0.00    +0.161 A 
ATOM     23  C   UNL     1      -1.065   8.322   0.266  0.00  0.00    +0.162 A 
ATOM     24  C   UNL     1      -0.102   7.361   0.526  0.00  0.00    +0.051 A 
BRANCH  23  25
ATOM     25  O   UNL     1      -1.538   9.103   1.274  0.00  0.00    -0.491 OA
ATOM     26  C   UNL     1      -0.996   8.878   2.577  0.00  0.00    +0.277 C 
ENDBRANCH  23  25
BRANCH  22  27
ATOM     27  O   UNL     1      -2.494   9.429  -1.288  0.00  0.00    -0.491 OA
ATOM     28  C   UNL     1      -2.944   9.542  -2.640  0.00  0.00    +0.277 C 
ENDBRANCH  22  27
ENDBRANCH  18  19
BRANCH  18  30
ATOM     29  C   UNL     1       2.574   5.190  -2.321  0.00  0.00    -0.096 C 
ATOM     30  N   UNL     1       2.635   5.818  -0.995  0.00  0.00    +0.382 N 
ATOM     31  C   UNL     1       2.847   7.267  -1.107  0.00  0.00    -0.096 C 
ATOM     32  H   UNL     1       3.494   5.391  -0.458  0.00  0.00    -0.082 HD
ENDBRANCH  18  30
ENDBRANCH   1  18
TORSDOF 9
