REMARK  Name = ZINC06556873
REMARK  7 active torsions:
REMARK  status: ('A' for Active; 'I' for Inactive)
REMARK    1  A    between atoms: C_1  and  C_2
REMARK    2  A    between atoms: C_5  and  N_9
REMARK    3  A    between atoms: C_7  and  C_8
REMARK    4  A    between atoms: C_12  and  S_19
REMARK    5  A    between atoms: S_19  and  C_20
REMARK    6  A    between atoms: C_20  and  C_21
REMARK    7  A    between atoms: C_20  and  C_22
REMARK                            x       y       z     vdW  Elec       q    Type
REMARK                         _______ _______ _______ _____ _____    ______ ____
ROOT
ATOM      1  N   UNL     1       0.057  -4.171  -0.021  0.00  0.00    -0.214 N 
ATOM      2  C   UNL     1      -0.567  -4.975  -0.932  0.00  0.00    +0.171 A 
ATOM      3  N   UNL     1      -1.324  -4.758  -2.005  0.00  0.00    -0.202 NA
ATOM      4  C   UNL     1      -1.800  -5.772  -2.709  0.00  0.00    +0.194 A 
ATOM      5  N   UNL     1      -1.554  -7.038  -2.390  0.00  0.00    -0.183 NA
ATOM      6  C   UNL     1      -0.810  -7.348  -1.337  0.00  0.00    +0.285 A 
ATOM      7  O   UNL     1      -0.566  -8.641  -1.020  0.00  0.00    -0.265 OA
ATOM      8  C   UNL     1      -0.282  -6.303  -0.557  0.00  0.00    +0.105 A 
ATOM      9  C   UNL     1       0.528  -6.241   0.599  0.00  0.00    +0.150 A 
ATOM     10  N   UNL     1       0.724  -4.989   0.900  0.00  0.00    -0.172 NA
ENDROOT
BRANCH   1  15
ATOM     11  C   UNL     1      -0.018   1.503   0.010  0.00  0.00    +0.044 C 
ATOM     12  C   UNL     1       0.002  -0.004   0.002  0.00  0.00    -0.047 A 
ATOM     13  C   UNL     1       0.006  -0.688  -1.200  0.00  0.00    +0.006 A 
ATOM     14  C   UNL     1       0.024  -2.068  -1.211  0.00  0.00    +0.028 A 
ATOM     15  C   UNL     1       0.039  -2.771  -0.013  0.00  0.00    +0.068 A 
ATOM     16  C   UNL     1       0.036  -2.082   1.192  0.00  0.00    +0.031 A 
ATOM     17  C   UNL     1       0.023  -0.700   1.196  0.00  0.00    -0.046 A 
ATOM     18  C   UNL     1       0.025   0.049   2.504  0.00  0.00    +0.044 C 
ENDBRANCH   1  15
BRANCH   4  19
ATOM     19  S   UNL     1      -2.796  -5.430  -4.122  0.00  0.00    -0.083 S 
BRANCH  19  20
ATOM     20  C   UNL     1      -3.220  -7.072  -4.767  0.00  0.00    +0.048 C 
ATOM     21  C   UNL     1      -4.089  -7.812  -3.748  0.00  0.00    +0.019 C 
ATOM     22  C   UNL     1      -3.990  -6.921  -6.080  0.00  0.00    +0.019 C 
ENDBRANCH  19  20
ENDBRANCH   4  19
TORSDOF 3
