REMARK  Name = ZINC31476058
REMARK  12 active torsions:
REMARK  status: ('A' for Active; 'I' for Inactive)
REMARK    1  A    between atoms: C_1  and  C_2
REMARK    2  A    between atoms: C_3  and  C_35
REMARK    3  A    between atoms: C_4  and  C_26
REMARK    4  A    between atoms: C_6  and  C_17
REMARK    5  A    between atoms: C_7  and  C_16
REMARK    6  A    between atoms: N_8  and  C_9
REMARK    7  A    between atoms: C_9  and  C_10
REMARK    8  A    between atoms: C_17  and  O_19
REMARK    9  A    between atoms: O_19  and  C_20
REMARK   10  A    between atoms: C_30  and  N_32
REMARK   11  A    between atoms: C_35  and  O_37
REMARK   12  A    between atoms: O_37  and  C_38
REMARK                            x       y       z     vdW  Elec       q    Type
REMARK                         _______ _______ _______ _____ _____    ______ ____
ROOT
ATOM      1  C   UNL     1       0.347   1.396  -0.673  0.00  0.00    +0.061 C 
ATOM      2  C   UNL     1       0.180  -0.060  -0.325  0.00  0.00    +0.019 C 
ATOM      3  C   UNL     1       0.143  -0.978  -1.307  0.00  0.00    +0.065 C 
ATOM      4  C   UNL     1      -0.032  -2.439  -1.006  0.00  0.00    +0.096 C 
ATOM      5  C   UNL     1       0.243  -2.721   0.444  0.00  0.00    +0.065 C 
ATOM      6  C   UNL     1       0.276  -1.734   1.355  0.00  0.00    +0.019 C 
ATOM      7  N   UNL     1       0.074  -0.433   0.987  0.00  0.00    -0.302 N 
ATOM      8  C   UNL     1       0.546  -2.064   2.801  0.00  0.00    +0.061 C 
ENDROOT
BRANCH   4   9
ATOM      9  C   UNL     1      -1.445  -2.848  -1.332  0.00  0.00    -0.033 A 
ATOM     10  C   UNL     1      -2.506  -2.237  -0.689  0.00  0.00    +0.005 A 
ATOM     11  C   UNL     1      -3.803  -2.612  -0.987  0.00  0.00    +0.003 A 
ATOM     12  C   UNL     1      -4.039  -3.596  -1.929  0.00  0.00    +0.033 A 
ATOM     13  C   UNL     1      -2.978  -4.206  -2.572  0.00  0.00    +0.126 A 
ATOM     14  C   UNL     1      -1.681  -3.828  -2.277  0.00  0.00    +0.037 A 
BRANCH  13  15
ATOM     15  N   UNL     1      -3.231  -5.260  -3.579  0.00  0.00    +0.056 N 
ATOM     16  O   UNL     1      -4.365  -5.588  -3.840  0.00  0.00    -0.126 OA
ATOM     17  O   UNL     1      -2.303  -5.793  -4.142  0.00  0.00    -0.126 OA
ENDBRANCH  13  15
ENDBRANCH   4   9
BRANCH   5  18
ATOM     18  C   UNL     1       0.470  -4.054   0.858  0.00  0.00    +0.338 C 
ATOM     19  O   UNL     1       1.562  -4.565   0.692  0.00  0.00    -0.245 OA
BRANCH  18  20
ATOM     20  O   UNL     1      -0.524  -4.759   1.439  0.00  0.00    -0.460 OA
BRANCH  20  21
ATOM     21  C   UNL     1      -0.224  -6.099   1.833  0.00  0.00    +0.158 C 
ATOM     22  C   UNL     1       0.223  -6.147   3.318  0.00  0.00    +0.024 C 
ATOM     23  C   UNL     1      -0.161  -7.595   3.713  0.00  0.00    -0.079 C 
ATOM     24  N   UNL     1      -1.428  -7.859   2.998  0.00  0.00    +0.381 N 
ATOM     25  C   UNL     1      -1.498  -6.970   1.820  0.00  0.00    -0.037 C 
ATOM     26  H   UNL     1      -1.453  -8.821   2.696  0.00  0.00    -0.086 HD
ATOM     27  H   UNL     1      -2.208  -7.675   3.611  0.00  0.00    -0.086 HD
ENDBRANCH  20  21
ENDBRANCH  18  20
ENDBRANCH   5  18
BRANCH   3  28
ATOM     28  C   UNL     1       0.270  -0.558  -2.651  0.00  0.00    +0.337 C 
ATOM     29  O   UNL     1      -0.720  -0.446  -3.350  0.00  0.00    -0.245 OA
BRANCH  28  30
ATOM     30  O   UNL     1       1.489  -0.281  -3.159  0.00  0.00    -0.465 OA
ATOM     31  C   UNL     1       1.543   0.138  -4.524  0.00  0.00    +0.280 C 
ENDBRANCH  28  30
ENDBRANCH   3  28
BRANCH   7  32
ATOM     32  C   UNL     1      -0.265   0.566   2.004  0.00  0.00    +0.145 C 
BRANCH  32  33
ATOM     33  C   UNL     1      -1.762   0.633   2.163  0.00  0.00    -0.030 A 
ATOM     34  C   UNL     1      -2.501   1.505   1.384  0.00  0.00    +0.005 A 
ATOM     35  C   UNL     1      -3.874   1.567   1.530  0.00  0.00    +0.000 A 
ATOM     36  C   UNL     1      -4.509   0.757   2.453  0.00  0.00    +0.000 A 
ATOM     37  C   UNL     1      -3.770  -0.115   3.231  0.00  0.00    +0.000 A 
ATOM     38  C   UNL     1      -2.397  -0.180   3.082  0.00  0.00    +0.005 A 
ENDBRANCH  32  33
ENDBRANCH   7  32
TORSDOF 9
