REMARK  Name = ZINC01849321
REMARK  10 active torsions:
REMARK  status: ('A' for Active; 'I' for Inactive)
REMARK    1  A    between atoms: C_4  and  C_7
REMARK    2  A    between atoms: C_7  and  O_8
REMARK    3  A    between atoms: O_8  and  C_9
REMARK    4  A    between atoms: C_13  and  C_15
REMARK    5  A    between atoms: N_16  and  N_17
REMARK    6  A    between atoms: C_18  and  C_20
REMARK    7  A    between atoms: C_20  and  S_21
REMARK    8  A    between atoms: S_21  and  C_22
REMARK    9  A    between atoms: C_25  and  C_33
REMARK   10  A    between atoms: N_26  and  C_27
REMARK                            x       y       z     vdW  Elec       q    Type
REMARK                         _______ _______ _______ _____ _____    ______ ____
ROOT
ATOM      1  N   UNL     1       9.120  -3.748   5.688  0.00  0.00    -0.206 N 
ATOM      2  C   UNL     1      10.289  -4.402   5.841  0.00  0.00    +0.242 C 
ATOM      3  O   UNL     1      10.921  -4.752   4.867  0.00  0.00    -0.273 OA
ATOM      4  H   UNL     1       8.615  -3.469   6.467  0.00  0.00    +0.177 HD
ENDROOT
BRANCH   1   6
ATOM      5  C   UNL     1       7.511  -2.842   4.255  0.00  0.00    +0.138 C 
ATOM      6  N   UNL     1       8.636  -3.472   4.403  0.00  0.00    -0.188 NA
BRANCH   5  11
ATOM      7  C   UNL     1       5.319  -1.605   1.466  0.00  0.00    +0.122 A 
ATOM      8  C   UNL     1       6.048  -2.007   0.355  0.00  0.00    +0.046 A 
ATOM      9  C   UNL     1       7.246  -2.678   0.514  0.00  0.00    +0.004 A 
ATOM     10  C   UNL     1       7.727  -2.952   1.778  0.00  0.00    +0.010 A 
ATOM     11  C   UNL     1       7.001  -2.551   2.902  0.00  0.00    -0.002 A 
ATOM     12  C   UNL     1       5.793  -1.869   2.740  0.00  0.00    +0.055 A 
BRANCH   7  13
ATOM     13  O   UNL     1       4.141  -0.946   1.304  0.00  0.00    -0.487 OA
BRANCH  13  14
ATOM     14  C   UNL     1       3.711  -0.707  -0.038  0.00  0.00    +0.264 C 
BRANCH  14  18
ATOM     15  C   UNL     1      -0.017   1.378   0.010  0.00  0.00    +0.000 A 
ATOM     16  C   UNL     1       1.171   2.086   0.002  0.00  0.00    +0.000 A 
ATOM     17  C   UNL     1       2.377   1.411  -0.013  0.00  0.00    +0.007 A 
ATOM     18  C   UNL     1       2.396   0.029  -0.020  0.00  0.00    -0.010 A 
ATOM     19  C   UNL     1       1.208  -0.679  -0.012  0.00  0.00    +0.007 A 
ATOM     20  C   UNL     1       0.002  -0.004   0.002  0.00  0.00    +0.000 A 
ENDBRANCH  14  18
ENDBRANCH  13  14
ENDBRANCH   7  13
ENDBRANCH   5  11
ENDBRANCH   1   6
BRANCH   2  21
ATOM     21  C   UNL     1      10.810  -4.700   7.224  0.00  0.00    +0.174 C 
BRANCH  21  22
ATOM     22  S   UNL     1      12.389  -5.582   7.098  0.00  0.00    -0.076 S 
BRANCH  22  23
ATOM     23  C   UNL     1      12.861  -5.854   8.774  0.00  0.00    +0.197 A 
ATOM     24  N   UNL     1      12.188  -5.489   9.842  0.00  0.00    -0.122 NA
ATOM     25  N   UNL     1      12.818  -5.844  10.904  0.00  0.00    -0.128 NA
ATOM     26  C   UNL     1      13.933  -6.458  10.582  0.00  0.00    +0.169 A 
ATOM     27  N   UNL     1      13.993  -6.489   9.206  0.00  0.00    -0.270 N 
BRANCH  26  28
ATOM     28  C   UNL     1      14.931  -7.015  11.518  0.00  0.00    +0.020 A 
ATOM     29  C   UNL     1      16.207  -7.353  11.063  0.00  0.00    +0.012 A 
ATOM     30  C   UNL     1      17.134  -7.873  11.941  0.00  0.00    +0.016 A 
ATOM     31  C   UNL     1      16.803  -8.060  13.272  0.00  0.00    +0.018 A 
ATOM     32  C   UNL     1      15.539  -7.727  13.730  0.00  0.00    +0.016 A 
ATOM     33  C   UNL     1      14.605  -7.200  12.863  0.00  0.00    +0.012 A 
ATOM     34 BR   UNL     1      18.081  -8.773  14.470  0.00  0.00    -0.050 Br
ENDBRANCH  26  28
BRANCH  27  35
ATOM     35  C   UNL     1      15.005  -7.051   8.414  0.00  0.00    +0.051 A 
ATOM     36  C   UNL     1      15.220  -8.422   8.431  0.00  0.00    +0.026 A 
ATOM     37  C   UNL     1      16.218  -8.973   7.651  0.00  0.00    +0.002 A 
ATOM     38  C   UNL     1      17.001  -8.160   6.852  0.00  0.00    +0.000 A 
ATOM     39  C   UNL     1      16.789  -6.793   6.833  0.00  0.00    +0.002 A 
ATOM     40  C   UNL     1      15.789  -6.238   7.607  0.00  0.00    +0.026 A 
ENDBRANCH  27  35
ENDBRANCH  22  23
ENDBRANCH  21  22
ENDBRANCH   2  21
TORSDOF 10
