REMARK  Name = ZINC15670114
REMARK  7 active torsions:
REMARK  status: ('A' for Active; 'I' for Inactive)
REMARK    1  A    between atoms: C_1  and  C_2
REMARK    2  A    between atoms: C_5  and  C_8
REMARK    3  A    between atoms: C_17  and  C_19
REMARK    4  A    between atoms: C_20  and  C_26
REMARK    5  A    between atoms: C_29  and  O_32
REMARK    6  A    between atoms: O_32  and  C_33
REMARK    7  A    between atoms: C_33  and  C_34
REMARK                            x       y       z     vdW  Elec       q    Type
REMARK                         _______ _______ _______ _____ _____    ______ ____
ROOT
ATOM      1  C   UNL     1      -3.953 -10.600  -2.336  0.00  0.00    +0.095 A 
ATOM      2  C   UNL     1      -3.386 -11.642  -1.594  0.00  0.00    +0.163 A 
ATOM      3  N   UNL     1      -2.195 -11.469  -1.051  0.00  0.00    -0.152 NA
ATOM      4  N   UNL     1      -1.562 -10.358  -1.201  0.00  0.00    -0.109 NA
ATOM      5  C   UNL     1      -2.076  -9.356  -1.899  0.00  0.00    +0.273 A 
ATOM      6  N   UNL     1      -3.270  -9.464  -2.464  0.00  0.00    -0.208 NA
ATOM      7  N   UNL     1      -1.355  -8.171  -2.035  0.00  0.00    -0.182 N 
ATOM      8  C   UNL     1      -0.136  -7.915  -1.513  0.00  0.00    +0.136 A 
ATOM      9  C   UNL     1       0.222  -6.652  -1.902  0.00  0.00    +0.023 A 
ATOM     10  C   UNL     1      -0.817  -6.124  -2.655  0.00  0.00    +0.066 A 
ATOM     11  N   UNL     1      -1.765  -7.027  -2.739  0.00  0.00    -0.167 NA
ATOM     12  C   UNL     1      -0.850  -4.749  -3.272  0.00  0.00    +0.068 C 
ATOM     13  C   UNL     1       1.544  -6.036  -1.520  0.00  0.00    +0.063 C 
ATOM     14  C   UNL     1       1.991  -6.644  -0.186  0.00  0.00    +0.109 C 
ATOM     15  C   UNL     1       1.784  -8.132  -0.170  0.00  0.00    +0.219 C 
ATOM     16  O   UNL     1       2.614  -8.835   0.366  0.00  0.00    -0.275 OA
ATOM     17  N   UNL     1       0.702  -8.710  -0.734  0.00  0.00    -0.270 N 
ATOM     18  H   UNL     1       0.514  -9.652  -0.601  0.00  0.00    +0.156 HD
ENDROOT
BRANCH   1  23
ATOM     19  C   UNL     1      -9.140 -11.203  -4.762  0.00  0.00    +0.044 C 
ATOM     20  C   UNL     1      -7.783 -11.045  -4.127  0.00  0.00    -0.050 A 
ATOM     21  C   UNL     1      -7.283 -12.045  -3.312  0.00  0.00    +0.004 A 
ATOM     22  C   UNL     1      -6.040 -11.906  -2.728  0.00  0.00    +0.010 A 
ATOM     23  C   UNL     1      -5.288 -10.755  -2.961  0.00  0.00    +0.002 A 
ATOM     24  C   UNL     1      -5.800  -9.749  -3.778  0.00  0.00    +0.010 A 
ATOM     25  C   UNL     1      -7.042  -9.901  -4.361  0.00  0.00    +0.004 A 
ENDBRANCH   1  23
BRANCH  13  26
ATOM     26  C   UNL     1       1.386  -4.544  -1.371  0.00  0.00    -0.039 A 
ATOM     27  C   UNL     1       2.143  -3.689  -2.149  0.00  0.00    +0.008 A 
ATOM     28  C   UNL     1       2.000  -2.321  -2.014  0.00  0.00    +0.046 A 
ATOM     29  C   UNL     1       1.095  -1.807  -1.097  0.00  0.00    +0.121 A 
ATOM     30  C   UNL     1       0.341  -2.668  -0.313  0.00  0.00    +0.046 A 
ATOM     31  C   UNL     1       0.484  -4.034  -0.455  0.00  0.00    +0.008 A 
BRANCH  29  32
ATOM     32  O   UNL     1       0.952  -0.462  -0.962  0.00  0.00    -0.488 OA
BRANCH  32  33
ATOM     33  C   UNL     1       0.002  -0.004   0.002  0.00  0.00    +0.256 C 
BRANCH  33  34
ATOM     34  C   UNL     1      -0.018   1.503   0.010  0.00  0.00    +0.006 C 
ATOM     35  C   UNL     1      -1.162   2.142   0.019  0.00  0.00    +0.007 C 
ENDBRANCH  33  34
ENDBRANCH  32  33
ENDBRANCH  29  32
ENDBRANCH  13  26
TORSDOF 5
