REMARK  Name = ZINC09307940
REMARK  7 active torsions:
REMARK  status: ('A' for Active; 'I' for Inactive)
REMARK    1  A    between atoms: C_4  and  C_7
REMARK    2  A    between atoms: C_7  and  C_8
REMARK    3  A    between atoms: C_13  and  C_14
REMARK    4  A    between atoms: C_13  and  N_67
REMARK    5  A    between atoms: C_15  and  C_25
REMARK    6  A    between atoms: N_27  and  N_28
REMARK    7  A    between atoms: C_29  and  C_30
REMARK                            x       y       z     vdW  Elec       q    Type
REMARK                         _______ _______ _______ _____ _____    ______ ____
ROOT
ATOM      1  C   UNL     1      -0.497   5.389   0.052  0.00  0.00    +0.063 A 
ATOM      2  C   UNL     1       0.764   5.914   0.056  0.00  0.00    +0.170 A 
ATOM      3  N   UNL     1       1.647   4.901   0.045  0.00  0.00    -0.124 NA
ATOM      4  N   UNL     1       1.016   3.778   0.040  0.00  0.00    -0.058 NA
ATOM      5  N   UNL     1      -0.360   4.045   0.039  0.00  0.00    -0.194 N 
ATOM      6  C   UNL     1      -1.393   3.100   0.031  0.00  0.00    +0.240 A 
ATOM      7  C   UNL     1      -1.224   1.645   0.017  0.00  0.00    +0.206 A 
ATOM      8  N   UNL     1      -2.408   1.094   0.020  0.00  0.00    -0.032 NA
ATOM      9  O   UNL     1      -3.369   2.134   0.030  0.00  0.00    -0.239 OA
ATOM     10  N   UNL     1      -2.669   3.366   0.033  0.00  0.00    -0.027 NA
ATOM     11  N   UNL     1      -0.011   0.966   0.007  0.00  0.00    -0.337 N 
ATOM     12  H   UNL     1       0.002  -0.004   0.002  0.00  0.00    +0.144 HD
ATOM     13  H   UNL     1       0.822   1.462   0.002  0.00  0.00    +0.144 HD
ENDROOT
BRANCH   2  14
ATOM     14  C   UNL     1       1.100   7.350   0.070  0.00  0.00    +0.285 C 
ATOM     15  O   UNL     1       0.213   8.182   0.080  0.00  0.00    -0.267 OA
ATOM     16  N   UNL     1       2.390   7.740   0.072  0.00  0.00    -0.202 N 
ATOM     17  H   UNL     1       3.097   7.077   0.064  0.00  0.00    +0.178 HD
BRANCH  16  18
ATOM     18  N   UNL     1       2.709   9.105   0.085  0.00  0.00    -0.192 NA
ATOM     19  C   UNL     1       3.934   9.475   0.087  0.00  0.00    +0.107 C 
BRANCH  19  20
ATOM     20  C   UNL     1       4.277  10.943   0.102  0.00  0.00    +0.036 C 
ATOM     21  C   UNL     1       5.105  11.291  -1.142  0.00  0.00    +0.013 C 
ATOM     22  C   UNL     1       5.286  12.809  -1.193  0.00  0.00    +0.027 C 
ATOM     23  C   UNL     1       5.761  13.319   0.136  0.00  0.00    -0.031 C 
ATOM     24  C   UNL     1       5.681  12.648   1.240  0.00  0.00    -0.030 C 
ATOM     25  C   UNL     1       5.107  11.265   1.347  0.00  0.00    +0.036 C 
ENDBRANCH  19  20
ENDBRANCH  16  18
ENDBRANCH   2  14
BRANCH   1  26
ATOM     26  C   UNL     1      -1.792   6.161   0.061  0.00  0.00    -0.020 C 
BRANCH  26  32
ATOM     27  C   UNL     1      -4.003   6.389   3.713  0.00  0.00    -0.010 C 
ATOM     28  C   UNL     1      -3.648   7.677   2.965  0.00  0.00    -0.015 C 
ATOM     29  C   UNL     1      -3.334   7.343   1.505  0.00  0.00    -0.078 C 
ATOM     30  C   UNL     1      -2.546   5.135   2.120  0.00  0.00    -0.078 C 
ATOM     31  C   UNL     1      -2.837   5.404   3.598  0.00  0.00    -0.015 C 
ATOM     32  N   UNL     1      -2.188   6.410   1.462  0.00  0.00    +0.383 N 
ATOM     33  H   UNL     1      -1.396   6.831   1.962  0.00  0.00    -0.081 HD
BRANCH  27  34
ATOM     34  C   UNL     1      -4.261   6.709   5.187  0.00  0.00    +0.038 C 
BRANCH  34  38
ATOM     35  C   UNL     1      -5.588   3.182   7.199  0.00  0.00    +0.000 A 
ATOM     36  C   UNL     1      -4.239   3.473   7.132  0.00  0.00    +0.000 A 
ATOM     37  C   UNL     1      -3.809   4.614   6.481  0.00  0.00    +0.003 A 
ATOM     38  C   UNL     1      -4.729   5.465   5.896  0.00  0.00    -0.047 A 
ATOM     39  C   UNL     1      -6.079   5.176   5.968  0.00  0.00    +0.003 A 
ATOM     40  C   UNL     1      -6.508   4.032   6.615  0.00  0.00    +0.000 A 
ENDBRANCH  34  38
ENDBRANCH  27  34
ENDBRANCH  26  32
ENDBRANCH   1  26
TORSDOF 7
