REMARK  Name = ZINC03504503
REMARK  5 active torsions:
REMARK  status: ('A' for Active; 'I' for Inactive)
REMARK    1  A    between atoms: C_1  and  C_2
REMARK    2  A    between atoms: C_7  and  C_8
REMARK    3  A    between atoms: C_7  and  N_62
REMARK    4  A    between atoms: C_22  and  C_29
REMARK    5  A    between atoms: C_25  and  C_28
REMARK                            x       y       z     vdW  Elec       q    Type
REMARK                         _______ _______ _______ _____ _____    ______ ____
ROOT
ATOM      1  C   UNL     1      -2.220  -4.298   1.185  0.00  0.00    +0.116 A 
ATOM      2  N   UNL     1      -2.600  -4.631  -0.036  0.00  0.00    -0.219 NA
ATOM      3  C   UNL     1      -3.788  -5.160  -0.284  0.00  0.00    +0.133 A 
ATOM      4  C   UNL     1      -4.685  -5.378   0.797  0.00  0.00    +0.051 A 
ATOM      5  C   UNL     1      -6.041  -5.949   0.759  0.00  0.00    -0.025 A 
ATOM      6  C   UNL     1      -6.690  -6.049   1.931  0.00  0.00    -0.004 A 
ATOM      7  S   UNL     1      -5.559  -5.405   3.143  0.00  0.00    -0.073 S 
ATOM      8  C   UNL     1      -4.211  -5.000   2.066  0.00  0.00    +0.114 A 
ATOM      9  N   UNL     1      -3.008  -4.482   2.227  0.00  0.00    -0.227 NA
ATOM     10  C   UNL     1      -8.065  -6.641   1.770  0.00  0.00    +0.043 C 
ATOM     11  C   UNL     1      -8.370  -6.508   0.262  0.00  0.00    +0.010 C 
ATOM     12  C   UNL     1      -6.953  -6.493  -0.344  0.00  0.00    +0.037 C 
ATOM     13  N   UNL     1      -4.150  -5.496  -1.576  0.00  0.00    -0.314 N 
ATOM     14  C   UNL     1      -3.310  -6.583  -2.093  0.00  0.00    +0.109 C 
ATOM     15  C   UNL     1      -3.831  -7.026  -3.463  0.00  0.00    +0.004 C 
ATOM     16  C   UNL     1      -3.803  -5.833  -4.423  0.00  0.00    +0.009 C 
ATOM     17  C   UNL     1      -4.646  -4.697  -3.838  0.00  0.00    +0.004 C 
ATOM     18  C   UNL     1      -4.101  -4.322  -2.458  0.00  0.00    +0.109 C 
ATOM     19  C   UNL     1      -6.100  -5.155  -3.707  0.00  0.00    +0.009 C 
ATOM     20  C   UNL     1      -2.942  -8.144  -4.011  0.00  0.00    +0.009 C 
ENDROOT
BRANCH   1  21
ATOM     21  C   UNL     1      -0.853  -3.700   1.393  0.00  0.00    -0.001 C 
BRANCH  21  28
ATOM     22  C   UNL     1      -0.720   1.870   0.118  0.00  0.00    +0.007 C 
ATOM     23  C   UNL     1      -0.542   0.351   0.062  0.00  0.00    -0.018 C 
ATOM     24  C   UNL     1      -1.914  -0.327   0.102  0.00  0.00    -0.016 C 
ATOM     25  C   UNL     1      -1.728  -1.845   0.107  0.00  0.00    -0.078 C 
ATOM     26  C   UNL     1       0.404  -1.637   1.240  0.00  0.00    -0.078 C 
ATOM     27  C   UNL     1       0.282  -0.112   1.268  0.00  0.00    -0.016 C 
ATOM     28  N   UNL     1      -0.949  -2.229   1.304  0.00  0.00    +0.384 N 
ATOM     29  H   UNL     1      -1.428  -1.875   2.140  0.00  0.00    -0.081 HD
ENDBRANCH  21  28
ENDBRANCH   1  21
TORSDOF 2
