REMARK  Name = ZINC22011597
REMARK  5 active torsions:
REMARK  status: ('A' for Active; 'I' for Inactive)
REMARK    1  A    between atoms: C_3  and  C_6
REMARK    2  A    between atoms: N_15  and  C_16
REMARK    3  A    between atoms: C_16  and  C_17
REMARK    4  A    between atoms: C_26  and  S_28
REMARK    5  A    between atoms: S_28  and  N_31
REMARK                            x       y       z     vdW  Elec       q    Type
REMARK                         _______ _______ _______ _____ _____    ______ ____
ROOT
ATOM      1  C   UNL     1      -1.973   5.088  -6.008  0.00  0.00    +0.203 C 
ATOM      2  O   UNL     1      -2.458   4.020  -6.317  0.00  0.00    -0.277 OA
ATOM      3  N   UNL     1      -1.534   5.291  -4.751  0.00  0.00    -0.272 N 
ATOM      4  C   UNL     1      -0.932   6.534  -4.261  0.00  0.00    +0.118 C 
ATOM      5  C   UNL     1      -0.602   6.268  -2.784  0.00  0.00    +0.056 C 
ATOM      6  C   UNL     1      -1.058   4.847  -2.541  0.00  0.00    -0.023 A 
ATOM      7  C   UNL     1      -1.586   4.346  -3.721  0.00  0.00    +0.040 A 
ATOM      8  C   UNL     1      -2.077   3.040  -3.743  0.00  0.00    +0.026 A 
ATOM      9  C   UNL     1      -2.036   2.262  -2.605  0.00  0.00    +0.030 A 
ATOM     10  C   UNL     1      -1.507   2.771  -1.433  0.00  0.00    +0.105 A 
ATOM     11  C   UNL     1      -1.024   4.066  -1.403  0.00  0.00    +0.034 A 
ENDROOT
BRANCH  10  12
ATOM     12  S   UNL     1      -1.456   1.774   0.019  0.00  0.00    +0.056 S 
ATOM     13  O   UNL     1      -2.472   0.792  -0.128  0.00  0.00    -0.153 OA
ATOM     14  O   UNL     1      -1.413   2.667   1.123  0.00  0.00    -0.153 OA
BRANCH  12  15
ATOM     15  N   UNL     1      -0.011   0.966   0.007  0.00  0.00    -0.204 NA
ATOM     16  H   UNL     1       0.060   0.329   0.902  0.00  0.00    +0.144 HD
ATOM     17  H   UNL     1       0.815   1.692   0.007  0.00  0.00    +0.144 HD
ENDBRANCH  12  15
ENDBRANCH  10  12
BRANCH   1  18
ATOM     18  C   UNL     1      -1.862   6.189  -7.032  0.00  0.00    +0.020 C 
BRANCH  18  27
ATOM     19  C   UNL     1      -2.075   6.656  -9.398  0.00  0.00    +0.002 C 
ATOM     20  C   UNL     1      -2.685   6.133 -10.695  0.00  0.00    -0.046 A 
ATOM     21  C   UNL     1      -2.278   6.540 -11.964  0.00  0.00    +0.010 A 
ATOM     22  C   UNL     1      -2.872   6.021 -13.064  0.00  0.00    +0.045 A 
ATOM     23  S   UNL     1      -4.066   4.902 -12.345  0.00  0.00    -0.101 S 
ATOM     24  C   UNL     1      -3.686   5.210 -10.644  0.00  0.00    -0.010 A 
ATOM     25  C   UNL     1      -4.294   4.621  -9.413  0.00  0.00    +0.024 C 
ATOM     26  C   UNL     1      -3.853   5.480  -8.216  0.00  0.00    -0.072 C 
ATOM     27  N   UNL     1      -2.406   5.722  -8.314  0.00  0.00    +0.393 N 
ATOM     28  H   UNL     1      -1.933   4.760  -8.560  0.00  0.00    -0.080 HD
BRANCH  19  31
ATOM     29  C   UNL     1       1.559   7.691  -9.882  0.00  0.00    +0.008 A 
ATOM     30  C   UNL     1       0.188   7.842  -9.787  0.00  0.00    +0.010 A 
ATOM     31  C   UNL     1      -0.579   6.750  -9.544  0.00  0.00    -0.019 A 
ATOM     32  S   UNL     1       0.646   5.456  -9.434  0.00  0.00    -0.103 S 
ATOM     33  C   UNL     1       2.096   6.455  -9.729  0.00  0.00    +0.045 A 
ENDBRANCH  19  31
ENDBRANCH  18  27
ENDBRANCH   1  18
TORSDOF 5
