REMARK  Name = ZINC39736424
REMARK  16 active torsions:
REMARK  status: ('A' for Active; 'I' for Inactive)
REMARK    1  A    between atoms: C_1  and  C_2
REMARK    2  A    between atoms: C_2  and  N_3
REMARK    3  A    between atoms: N_3  and  C_4
REMARK    4  A    between atoms: N_3  and  C_6
REMARK    5  A    between atoms: C_4  and  C_5
REMARK    6  A    between atoms: C_6  and  C_7
REMARK    7  A    between atoms: C_7  and  N_8
REMARK    8  A    between atoms: C_13  and  C_19
REMARK    9  A    between atoms: C_15  and  C_18
REMARK   10  A    between atoms: C_20  and  C_22
REMARK   11  A    between atoms: C_25  and  S_28
REMARK   12  A    between atoms: S_28  and  N_31
REMARK   13  A    between atoms: N_31  and  C_32
REMARK   14  A    between atoms: N_31  and  C_33
REMARK   15  A    between atoms: C_33  and  C_34
REMARK   16  A    between atoms: C_33  and  C_35
REMARK                            x       y       z     vdW  Elec       q    Type
REMARK                         _______ _______ _______ _____ _____    ______ ____
ROOT
ATOM      1  N   UNL     1       1.029  -4.476  -3.046  0.00  0.00    -0.248 N 
ATOM      2  C   UNL     1       0.230  -5.119  -3.976  0.00  0.00    +0.168 A 
ATOM      3  N   UNL     1      -0.241  -4.662  -5.113  0.00  0.00    -0.224 NA
ATOM      4  C   UNL     1      -1.016  -5.408  -5.930  0.00  0.00    +0.081 A 
ATOM      5  C   UNL     1      -1.584  -5.039  -7.171  0.00  0.00    +0.032 A 
ATOM      6  C   UNL     1      -2.354  -5.925  -7.880  0.00  0.00    -0.048 A 
ATOM      7  C   UNL     1      -2.603  -7.206  -7.410  0.00  0.00    +0.008 A 
ATOM      8  C   UNL     1      -2.063  -7.600  -6.199  0.00  0.00    -0.034 A 
ATOM      9  C   UNL     1      -1.291  -6.720  -5.483  0.00  0.00    +0.044 A 
ATOM     10  S   UNL     1      -0.416  -6.785  -3.938  0.00  0.00    -0.052 S 
ATOM     11  C   UNL     1      -2.322  -8.987  -5.670  0.00  0.00    +0.045 C 
ATOM     12  C   UNL     1      -2.943  -5.496  -9.199  0.00  0.00    +0.044 C 
ATOM     13  C   UNL     1       1.418  -5.124  -1.930  0.00  0.00    +0.252 C 
ATOM     14  O   UNL     1       1.114  -6.289  -1.766  0.00  0.00    -0.270 OA
ENDROOT
BRANCH  13  15
ATOM     15  C   UNL     1       2.216  -4.417  -0.906  0.00  0.00    +0.037 A 
ATOM     16  C   UNL     1       2.065  -3.041  -0.727  0.00  0.00    +0.015 A 
ATOM     17  C   UNL     1       2.812  -2.387   0.231  0.00  0.00    +0.029 A 
ATOM     18  C   UNL     1       3.710  -3.092   1.013  0.00  0.00    +0.106 A 
ATOM     19  C   UNL     1       3.865  -4.456   0.840  0.00  0.00    +0.029 A 
ATOM     20  C   UNL     1       3.119  -5.123  -0.110  0.00  0.00    +0.015 A 
BRANCH  18  21
ATOM     21  S   UNL     1       4.662  -2.249   2.233  0.00  0.00    +0.061 S 
ATOM     22  O   UNL     1       5.879  -2.970   2.368  0.00  0.00    -0.153 OA
ATOM     23  O   UNL     1       4.627  -0.870   1.893  0.00  0.00    -0.153 OA
BRANCH  21  24
ATOM     24  N   UNL     1       3.858  -2.403   3.672  0.00  0.00    -0.177 NA
ATOM     25  C   UNL     1       4.219  -3.476   4.602  0.00  0.00    +0.132 C 
BRANCH  24  26
ATOM     26  C   UNL     1       2.786  -1.465   4.017  0.00  0.00    +0.073 C 
ATOM     27  C   UNL     1       1.507  -2.245   4.328  0.00  0.00    +0.025 C 
ATOM     28  C   UNL     1       3.197  -0.649   5.244  0.00  0.00    +0.025 C 
ENDBRANCH  24  26
ENDBRANCH  21  24
ENDBRANCH  18  21
ENDBRANCH  13  15
BRANCH   1  29
ATOM     29  C   UNL     1       1.450  -3.092  -3.275  0.00  0.00    +0.097 C 
BRANCH  29  30
ATOM     30  C   UNL     1       0.292  -2.146  -2.954  0.00  0.00    -0.059 C 
BRANCH  30  31
ATOM     31  N   UNL     1       0.750  -0.755  -3.063  0.00  0.00    +0.380 N 
ATOM     32  H   UNL     1       1.548  -0.616  -2.462  0.00  0.00    -0.082 HD
BRANCH  31  34
ATOM     33  C   UNL     1       1.724   0.934  -4.545  0.00  0.00    -0.017 C 
ATOM     34  C   UNL     1       1.130  -0.472  -4.454  0.00  0.00    -0.082 C 
ENDBRANCH  31  34
BRANCH  31  35
ATOM     35  C   UNL     1      -0.333   0.151  -2.657  0.00  0.00    -0.082 C 
ATOM     36  C   UNL     1      -0.610  -0.023  -1.163  0.00  0.00    -0.017 C 
ENDBRANCH  31  35
ENDBRANCH  30  31
ENDBRANCH  29  30
ENDBRANCH   1  29
TORSDOF 9
