REMARK  Name = ZINC12867090
REMARK  15 active torsions:
REMARK  status: ('A' for Active; 'I' for Inactive)
REMARK    1  A    between atoms: C_1  and  C_2
REMARK    2  A    between atoms: C_2  and  C_3
REMARK    3  A    between atoms: C_3  and  C_4
REMARK    4  A    between atoms: C_4  and  N_5
REMARK    5  A    between atoms: C_6  and  N_40
REMARK    6  A    between atoms: C_7  and  N_14
REMARK    7  A    between atoms: N_14  and  C_15
REMARK    8  A    between atoms: C_15  and  C_16
REMARK    9  A    between atoms: C_16  and  C_17
REMARK   10  A    between atoms: C_16  and  C_18
REMARK   11  A    between atoms: C_19  and  C_21
REMARK   12  A    between atoms: C_24  and  S_27
REMARK   13  A    between atoms: S_27  and  N_30
REMARK   14  A    between atoms: C_32  and  C_39
REMARK   15  A    between atoms: C_35  and  C_38
REMARK                            x       y       z     vdW  Elec       q    Type
REMARK                         _______ _______ _______ _____ _____    ______ ____
ROOT
ATOM      1  N   UNL     1       5.211  -3.747   3.256  0.00  0.00    -0.260 N 
ATOM      2  C   UNL     1       5.915  -2.856   2.530  0.00  0.00    +0.251 C 
ATOM      3  O   UNL     1       7.000  -2.473   2.923  0.00  0.00    -0.270 OA
ENDROOT
BRANCH   1   6
ATOM      4  N   UNL     1       1.563  -4.184   3.241  0.00  0.00    -0.280 N 
ATOM      5  C   UNL     1       2.822  -3.818   3.657  0.00  0.00    +0.127 A 
ATOM      6  C   UNL     1       3.908  -4.109   2.857  0.00  0.00    +0.140 A 
ATOM      7  C   UNL     1       3.692  -4.774   1.635  0.00  0.00    +0.277 A 
ATOM      8  O   UNL     1       4.633  -5.045   0.909  0.00  0.00    -0.266 OA
ATOM      9  N   UNL     1       2.438  -5.111   1.274  0.00  0.00    -0.273 N 
ATOM     10  H   UNL     1       2.289  -5.570   0.432  0.00  0.00    +0.173 HD
ATOM     11  C   UNL     1       1.393  -4.823   2.069  0.00  0.00    +0.331 A 
ATOM     12  O   UNL     1       0.272  -5.143   1.721  0.00  0.00    -0.246 OA
BRANCH   5  13
ATOM     13  N   UNL     1       2.996  -3.169   4.856  0.00  0.00    -0.343 N 
ATOM     14  H   UNL     1       2.224  -2.913   5.386  0.00  0.00    +0.144 HD
ATOM     15  H   UNL     1       3.890  -2.966   5.173  0.00  0.00    +0.144 HD
ENDBRANCH   5  13
BRANCH   4  16
ATOM     16  C   UNL     1       0.401  -3.880   4.080  0.00  0.00    +0.128 C 
BRANCH  16  17
ATOM     17  C   UNL     1       0.150  -5.043   5.043  0.00  0.00    +0.021 C 
BRANCH  17  19
ATOM     18  C   UNL     1      -1.314  -5.888   6.882  0.00  0.00    +0.004 C 
ATOM     19  C   UNL     1      -1.063  -4.726   5.919  0.00  0.00    -0.002 C 
ENDBRANCH  17  19
ENDBRANCH  16  17
ENDBRANCH   4  16
ENDBRANCH   1   6
BRANCH   2  20
ATOM     20  C   UNL     1       5.367  -2.345   1.255  0.00  0.00    +0.037 A 
ATOM     21  C   UNL     1       3.987  -2.251   1.073  0.00  0.00    +0.015 A 
ATOM     22  C   UNL     1       3.483  -1.772  -0.119  0.00  0.00    +0.029 A 
ATOM     23  C   UNL     1       4.343  -1.387  -1.132  0.00  0.00    +0.106 A 
ATOM     24  C   UNL     1       5.712  -1.478  -0.958  0.00  0.00    +0.029 A 
ATOM     25  C   UNL     1       6.229  -1.948   0.232  0.00  0.00    +0.015 A 
BRANCH  23  26
ATOM     26  S   UNL     1       3.691  -0.778  -2.652  0.00  0.00    +0.061 S 
ATOM     27  O   UNL     1       4.689  -0.997  -3.639  0.00  0.00    -0.153 OA
ATOM     28  O   UNL     1       2.376  -1.304  -2.769  0.00  0.00    -0.153 OA
BRANCH  26  29
ATOM     29  N   UNL     1       3.532   0.863  -2.495  0.00  0.00    -0.172 NA
ATOM     30  C   UNL     1       2.290   1.457  -1.976  0.00  0.00    +0.140 C 
ATOM     31  C   UNL     1       1.841   2.558  -2.944  0.00  0.00    +0.131 C 
ATOM     32  O   UNL     1       2.929   3.458  -3.171  0.00  0.00    -0.371 OA
ATOM     33  C   UNL     1       4.066   2.854  -3.793  0.00  0.00    +0.131 C 
ATOM     34  C   UNL     1       4.632   1.768  -2.863  0.00  0.00    +0.140 C 
ATOM     35  C   UNL     1       5.136   3.919  -4.043  0.00  0.00    +0.039 C 
ATOM     36  C   UNL     1       0.663   3.323  -2.337  0.00  0.00    +0.039 C 
ENDBRANCH  26  29
ENDBRANCH  23  26
ENDBRANCH   2  20
BRANCH   1  37
ATOM     37  C   UNL     1       5.799  -4.338   4.460  0.00  0.00    +0.117 C 
BRANCH  37  38
ATOM     38  C   UNL     1       6.426  -5.689   4.110  0.00  0.00    +0.001 C 
ATOM     39  C   UNL     1       7.605  -5.473   3.159  0.00  0.00    +0.009 C 
ATOM     40  C   UNL     1       6.920  -6.369   5.389  0.00  0.00    +0.009 C 
ENDBRANCH  37  38
ENDBRANCH   1  37
TORSDOF 10
