REMARK  Name = ZINC38701963
REMARK  8 active torsions:
REMARK  status: ('A' for Active; 'I' for Inactive)
REMARK    1  A    between atoms: C_1  and  C_2
REMARK    2  A    between atoms: C_2  and  O_3
REMARK    3  A    between atoms: O_3  and  C_4
REMARK    4  A    between atoms: C_8  and  C_10
REMARK    5  A    between atoms: C_13  and  C_29
REMARK    6  A    between atoms: N_20  and  C_21
REMARK    7  A    between atoms: C_31  and  C_36
REMARK    8  A    between atoms: C_34  and  O_35
REMARK                            x       y       z     vdW  Elec       q    Type
REMARK                         _______ _______ _______ _____ _____    ______ ____
ROOT
ATOM      1  C   UNL     1      -4.482  -4.338  -0.010  0.00  0.00    +0.142 C 
ATOM      2  C   UNL     1      -4.690  -4.952   1.347  0.00  0.00    +0.035 A 
ATOM      3  C   UNL     1      -4.772  -4.756   2.730  0.00  0.00    +0.102 A 
ATOM      4  N   UNL     1      -5.002  -5.931   3.282  0.00  0.00    -0.173 NA
ATOM      5  N   UNL     1      -5.074  -6.849   2.385  0.00  0.00    -0.272 N 
ATOM      6  H   UNL     1      -5.237  -7.789   2.561  0.00  0.00    +0.189 HD
ATOM      7  C   UNL     1      -4.887  -6.304   1.146  0.00  0.00    +0.126 A 
ATOM      8  C   UNL     1      -4.812  -6.577  -0.293  0.00  0.00    +0.266 C 
ATOM      9  O   UNL     1      -4.944  -7.675  -0.800  0.00  0.00    -0.268 OA
ATOM     10  N   UNL     1      -4.578  -5.440  -0.976  0.00  0.00    -0.280 N 
ENDROOT
BRANCH  10  11
ATOM     11  C   UNL     1      -4.442  -5.322  -2.429  0.00  0.00    +0.100 C 
ATOM     12  C   UNL     1      -5.722  -5.829  -3.114  0.00  0.00    +0.047 C 
ATOM     13  C   UNL     1      -5.473  -6.010  -4.631  0.00  0.00    +0.168 C 
ATOM     14  S   UNL     1      -3.670  -6.366  -4.705  0.00  0.00    -0.029 S 
ATOM     15  O   UNL     1      -3.482  -7.719  -5.097  0.00  0.00    -0.174 OA
ATOM     16  O   UNL     1      -3.024  -5.331  -5.432  0.00  0.00    -0.174 OA
ATOM     17  C   UNL     1      -3.252  -6.197  -2.918  0.00  0.00    +0.188 C 
ENDBRANCH  10  11
BRANCH   3  18
ATOM     18  C   UNL     1      -4.625  -3.464   3.445  0.00  0.00    +0.044 A 
ATOM     19  C   UNL     1      -5.298  -2.333   2.989  0.00  0.00    +0.017 A 
ATOM     20  C   UNL     1      -5.159  -1.133   3.657  0.00  0.00    -0.050 A 
ATOM     21  C   UNL     1      -4.353  -1.049   4.779  0.00  0.00    +0.007 A 
ATOM     22  C   UNL     1      -3.681  -2.166   5.239  0.00  0.00    +0.046 A 
ATOM     23  C   UNL     1      -3.817  -3.378   4.582  0.00  0.00    +0.126 A 
ATOM     24  C   UNL     1      -5.886   0.091   3.163  0.00  0.00    +0.044 C 
BRANCH  23  25
ATOM     25  O   UNL     1      -3.162  -4.478   5.037  0.00  0.00    -0.506 OA
ATOM     26  H   UNL     1      -2.252  -4.553   4.720  0.00  0.00    +0.292 HD
ENDBRANCH  23  25
ENDBRANCH   3  18
BRANCH   1  31
ATOM     27  C   UNL     1      -1.750  -1.733  -0.187  0.00  0.00    +0.121 A 
ATOM     28  C   UNL     1      -0.614  -2.529  -0.229  0.00  0.00    +0.045 A 
ATOM     29  C   UNL     1      -0.735  -3.905  -0.200  0.00  0.00    +0.004 A 
ATOM     30  C   UNL     1      -1.987  -4.489  -0.129  0.00  0.00    +0.006 A 
ATOM     31  C   UNL     1      -3.120  -3.698  -0.087  0.00  0.00    -0.019 A 
ATOM     32  C   UNL     1      -3.004  -2.321  -0.110  0.00  0.00    +0.051 A 
BRANCH  27  33
ATOM     33  O   UNL     1      -1.634  -0.380  -0.215  0.00  0.00    -0.492 OA
BRANCH  33  35
ATOM     34  C   UNL     1      -0.381   1.685  -0.316  0.00  0.00    +0.048 C 
ATOM     35  C   UNL     1      -0.311   0.156  -0.295  0.00  0.00    +0.225 C 
ENDBRANCH  33  35
ENDBRANCH  27  33
ENDBRANCH   1  31
TORSDOF 6
