REMARK  Name = ZINC01850502
REMARK  8 active torsions:
REMARK  status: ('A' for Active; 'I' for Inactive)
REMARK    1  A    between atoms: C_4  and  C_7
REMARK    2  A    between atoms: C_7  and  N_8
REMARK    3  A    between atoms: C_9  and  C_26
REMARK    4  A    between atoms: C_12  and  S_13
REMARK    5  A    between atoms: S_13  and  C_14
REMARK    6  A    between atoms: C_14  and  C_15
REMARK    7  A    between atoms: N_17  and  N_18
REMARK    8  A    between atoms: C_19  and  C_21
REMARK                            x       y       z     vdW  Elec       q    Type
REMARK                         _______ _______ _______ _____ _____    ______ ____
ROOT
ATOM      1  N   UNL     1      -2.927   0.722   1.401  0.00  0.00    -0.296 N 
ATOM      2  C   UNL     1      -2.604  -0.369   2.176  0.00  0.00    +0.184 A 
ATOM      3  N   UNL     1      -3.179  -0.196   3.344  0.00  0.00    -0.127 NA
ATOM      4  N   UNL     1      -3.836   0.908   3.350  0.00  0.00    -0.122 NA
ATOM      5  C   UNL     1      -3.716   1.511   2.186  0.00  0.00    +0.193 A 
ENDROOT
BRANCH   2   6
ATOM      6  C   UNL     1      -1.768  -1.517   1.771  0.00  0.00    +0.109 A 
ATOM      7  C   UNL     1      -1.535  -2.556   2.689  0.00  0.00    +0.032 A 
ATOM      8  C   UNL     1      -0.765  -3.620   2.327  0.00  0.00    +0.012 A 
ATOM      9  C   UNL     1      -0.223  -3.641   1.026  0.00  0.00    +0.000 A 
ATOM     10  C   UNL     1       0.579  -4.707   0.589  0.00  0.00    +0.010 A 
ATOM     11  C   UNL     1       1.087  -4.695  -0.674  0.00  0.00    +0.001 A 
ATOM     12  C   UNL     1       0.821  -3.638  -1.542  0.00  0.00    +0.002 A 
ATOM     13  C   UNL     1       0.049  -2.587  -1.152  0.00  0.00    +0.028 A 
ATOM     14  C   UNL     1      -0.494  -2.564   0.146  0.00  0.00    +0.072 A 
ATOM     15  N   UNL     1      -1.260  -1.547   0.551  0.00  0.00    -0.244 NA
ENDBRANCH   2   6
BRANCH   1  16
ATOM     16  C   UNL     1      -2.514   0.980   0.019  0.00  0.00    +0.161 C 
BRANCH  16  20
ATOM     17  C   UNL     1       1.156   3.165   0.008  0.00  0.00    +0.000 A 
ATOM     18  C   UNL     1       1.175   1.783   0.000  0.00  0.00    +0.000 A 
ATOM     19  C   UNL     1      -0.013   1.076   0.008  0.00  0.00    +0.005 A 
ATOM     20  C   UNL     1      -1.219   1.751   0.017  0.00  0.00    -0.028 A 
ATOM     21  C   UNL     1      -1.238   3.133   0.030  0.00  0.00    +0.005 A 
ATOM     22  C   UNL     1      -0.050   3.840   0.022  0.00  0.00    +0.000 A 
ENDBRANCH  16  20
ENDBRANCH   1  16
BRANCH   5  23
ATOM     23  S   UNL     1      -4.440   3.050   1.726  0.00  0.00    -0.077 S 
BRANCH  23  24
ATOM     24  C   UNL     1      -5.310   3.459   3.260  0.00  0.00    +0.174 C 
BRANCH  24  25
ATOM     25  C   UNL     1      -6.024   4.776   3.097  0.00  0.00    +0.239 C 
ATOM     26  O   UNL     1      -5.951   5.379   2.048  0.00  0.00    -0.273 OA
ATOM     27  N   UNL     1      -6.742   5.283   4.118  0.00  0.00    -0.233 N 
ATOM     28  H   UNL     1      -6.800   4.801   4.958  0.00  0.00    +0.173 HD
BRANCH  27  29
ATOM     29  N   UNL     1      -7.406   6.508   3.967  0.00  0.00    -0.230 N 
ATOM     30  C   UNL     1      -8.125   7.015   4.988  0.00  0.00    +0.267 C 
ATOM     31  O   UNL     1      -8.197   6.410   6.041  0.00  0.00    -0.268 OA
ATOM     32  H   UNL     1      -7.348   6.990   3.127  0.00  0.00    +0.173 HD
BRANCH  30  33
ATOM     33  C   UNL     1      -8.819   8.296   4.830  0.00  0.00    +0.075 A 
ATOM     34  C   UNL     1      -9.606   8.982   5.742  0.00  0.00    +0.021 A 
ATOM     35  C   UNL     1     -10.140  10.178   5.331  0.00  0.00    +0.008 A 
ATOM     36  C   UNL     1      -9.887  10.621   4.072  0.00  0.00    +0.046 A 
ATOM     37  S   UNL     1      -8.878   9.376   3.410  0.00  0.00    -0.092 S 
ENDBRANCH  30  33
ENDBRANCH  27  29
ENDBRANCH  24  25
ENDBRANCH  23  24
ENDBRANCH   5  23
TORSDOF 8
