REMARK  Name = ZINC19941422
REMARK  8 active torsions:
REMARK  status: ('A' for Active; 'I' for Inactive)
REMARK    1  A    between atoms: C_1  and  C_2
REMARK    2  A    between atoms: C_2  and  C_3
REMARK    3  A    between atoms: C_10  and  C_15
REMARK    4  A    between atoms: C_15  and  C_17
REMARK    5  A    between atoms: C_15  and  N_27
REMARK    6  A    between atoms: N_21  and  C_22
REMARK    7  A    between atoms: N_30  and  C_33
REMARK    8  A    between atoms: C_38  and  C_39
REMARK                            x       y       z     vdW  Elec       q    Type
REMARK                         _______ _______ _______ _____ _____    ______ ____
ROOT
ATOM      1  C   UNL     1      -1.332   7.432   0.058  0.00  0.00    +0.162 C 
ENDROOT
BRANCH   1   9
ATOM      2  C   UNL     1      -1.875   1.669  -2.129  0.00  0.00    -0.047 A 
ATOM      3  C   UNL     1      -1.427   1.025  -0.984  0.00  0.00    +0.005 A 
ATOM      4  C   UNL     1      -1.059   1.747   0.131  0.00  0.00    +0.026 A 
ATOM      5  C   UNL     1      -1.124   3.136   0.106  0.00  0.00    +0.049 A 
ATOM      6  C   UNL     1      -1.578   3.786  -1.058  0.00  0.00    -0.001 A 
ATOM      7  C   UNL     1      -1.952   3.032  -2.175  0.00  0.00    +0.013 A 
ATOM      8  C   UNL     1      -1.648   5.248  -1.072  0.00  0.00    +0.021 A 
ATOM      9  C   UNL     1      -1.272   5.926   0.040  0.00  0.00    +0.042 A 
ATOM     10  C   UNL     1      -0.824   5.226   1.181  0.00  0.00    +0.254 A 
ATOM     11  O   UNL     1      -0.490   5.855   2.171  0.00  0.00    -0.268 OA
ATOM     12  N   UNL     1      -0.756   3.884   1.204  0.00  0.00    -0.322 N 
ATOM     13  H   UNL     1      -0.400   3.383   2.116  0.00  0.00    +0.169 HD
BRANCH   2  15
ATOM     14  C   UNL     1      -3.768   0.522  -3.246  0.00  0.00    +0.009 C 
ATOM     15  C   UNL     1      -2.278   0.858  -3.333  0.00  0.00    +0.032 C 
ENDBRANCH   2  15
ENDBRANCH   1   9
BRANCH   1  16
ATOM     16  N   UNL     1      -2.233   7.873   1.130  0.00  0.00    -0.286 NA
ATOM     17  C   UNL     1      -3.564   7.269   0.981  0.00  0.00    +0.104 C 
ATOM     18  C   UNL     1      -4.448   7.690   2.158  0.00  0.00    +0.120 C 
ATOM     19  N   UNL     1      -4.540   9.156   2.199  0.00  0.00    -0.327 N 
ATOM     20  C   UNL     1      -3.209   9.760   2.348  0.00  0.00    +0.120 C 
ATOM     21  C   UNL     1      -2.325   9.339   1.171  0.00  0.00    +0.104 C 
BRANCH  19  22
ATOM     22  C   UNL     1      -5.397   9.576   3.218  0.00  0.00    +0.034 A 
ATOM     23  C   UNL     1      -5.085   9.307   4.545  0.00  0.00    +0.043 A 
ATOM     24  C   UNL     1      -5.933   9.728   5.551  0.00  0.00    +0.043 A 
ATOM     25  C   UNL     1      -7.098  10.407   5.237  0.00  0.00    +0.020 A 
ATOM     26  C   UNL     1      -7.413  10.671   3.917  0.00  0.00    +0.006 A 
ATOM     27  C   UNL     1      -6.567  10.257   2.907  0.00  0.00    -0.029 A 
ATOM     28  C   UNL     1      -6.912  10.546   1.469  0.00  0.00    +0.045 C 
ATOM     29 CL   UNL     1      -5.542   9.398   7.210  0.00  0.00    -0.083 Cl
ENDBRANCH  19  22
ENDBRANCH   1  16
BRANCH   1  30
ATOM     30  C   UNL     1      -1.846   7.930  -1.268  0.00  0.00    +0.173 A 
ATOM     31  N   UNL     1      -3.086   7.891  -1.691  0.00  0.00    -0.111 NA
ATOM     32  N   UNL     1      -3.121   8.411  -2.869  0.00  0.00    -0.023 NA
ATOM     33  N   UNL     1      -1.936   8.782  -3.208  0.00  0.00    -0.044 NA
ATOM     34  N   UNL     1      -1.123   8.507  -2.245  0.00  0.00    -0.224 N 
BRANCH  34  35
ATOM     35  C   UNL     1       0.318   8.770  -2.221  0.00  0.00    +0.111 C 
ATOM     36  C   UNL     1       0.584  10.277  -2.421  0.00  0.00    +0.027 C 
ATOM     37  C   UNL     1       1.866  10.324  -3.290  0.00  0.00    +0.002 C 
ATOM     38  C   UNL     1       1.666   9.133  -4.260  0.00  0.00    +0.002 C 
ATOM     39  C   UNL     1       1.006   8.043  -3.390  0.00  0.00    +0.027 C 
ENDBRANCH  34  35
ENDBRANCH   1  30
TORSDOF 6
