REMARK  Name = ZINC12808047
REMARK  11 active torsions:
REMARK  status: ('A' for Active; 'I' for Inactive)
REMARK    1  A    between atoms: C_1  and  N_66
REMARK    2  A    between atoms: C_2  and  N_66
REMARK    3  A    between atoms: C_3  and  C_5
REMARK    4  A    between atoms: C_3  and  C_28
REMARK    5  A    between atoms: C_3  and  N_66
REMARK    6  A    between atoms: C_5  and  N_6
REMARK    7  A    between atoms: C_7  and  C_9
REMARK    8  A    between atoms: C_12  and  S_15
REMARK    9  A    between atoms: S_15  and  N_18
REMARK   10  A    between atoms: C_33  and  O_34
REMARK   11  A    between atoms: O_34  and  C_35
REMARK                            x       y       z     vdW  Elec       q    Type
REMARK                         _______ _______ _______ _____ _____    ______ ____
ROOT
ATOM      1  C   UNL     1       3.853   6.746  -3.376  0.00  0.00    +0.037 A 
ATOM      2  C   UNL     1       4.983   7.009  -2.600  0.00  0.00    +0.015 A 
ATOM      3  C   UNL     1       5.948   7.878  -3.065  0.00  0.00    +0.029 A 
ATOM      4  C   UNL     1       5.793   8.497  -4.293  0.00  0.00    +0.109 A 
ATOM      5  C   UNL     1       4.672   8.245  -5.064  0.00  0.00    +0.029 A 
ATOM      6  C   UNL     1       3.703   7.373  -4.614  0.00  0.00    +0.015 A 
ENDROOT
BRANCH   1   8
ATOM      7  N   UNL     1       2.966   5.207  -1.691  0.00  0.00    -0.313 N 
ATOM      8  C   UNL     1       2.818   5.811  -2.886  0.00  0.00    +0.244 C 
ATOM      9  O   UNL     1       1.832   5.587  -3.562  0.00  0.00    -0.270 OA
ATOM     10  H   UNL     1       3.753   5.385  -1.152  0.00  0.00    +0.149 HD
BRANCH   7  11
ATOM     11  C   UNL     1       1.940   4.280  -1.206  0.00  0.00    +0.094 C 
BRANCH  11  12
ATOM     12  C   UNL     1       2.297   3.819   0.209  0.00  0.00    -0.017 C 
BRANCH  12  13
ATOM     13  C   UNL     1       3.577   3.025   0.170  0.00  0.00    -0.018 A 
ATOM     14  C   UNL     1       4.772   3.621   0.524  0.00  0.00    +0.005 A 
ATOM     15  C   UNL     1       5.947   2.893   0.489  0.00  0.00    +0.000 A 
ATOM     16  C   UNL     1       5.930   1.568   0.093  0.00  0.00    +0.004 A 
ATOM     17  C   UNL     1       4.737   0.966  -0.256  0.00  0.00    +0.046 A 
ATOM     18  C   UNL     1       3.557   1.694  -0.221  0.00  0.00    +0.122 A 
BRANCH  18  19
ATOM     19  O   UNL     1       2.383   1.105  -0.570  0.00  0.00    -0.495 OA
ATOM     20  C   UNL     1       2.437  -0.268  -0.962  0.00  0.00    +0.277 C 
ENDBRANCH  18  19
ENDBRANCH  12  13
BRANCH  12  23
ATOM     21  C   UNL     1       1.313   5.887   0.994  0.00  0.00    -0.096 C 
ATOM     22  C   UNL     1       2.730   4.586   2.464  0.00  0.00    -0.096 C 
ATOM     23  N   UNL     1       2.497   5.006   1.067  0.00  0.00    +0.382 N 
ATOM     24  H   UNL     1       3.319   5.524   0.733  0.00  0.00    -0.082 HD
ENDBRANCH  12  23
ENDBRANCH  11  12
ENDBRANCH   7  11
ENDBRANCH   1   8
BRANCH   4  25
ATOM     25  S   UNL     1       7.027   9.610  -4.877  0.00  0.00    +0.075 S 
ATOM     26  O   UNL     1       8.236   9.259  -4.218  0.00  0.00    -0.150 OA
ATOM     27  O   UNL     1       6.912   9.639  -6.293  0.00  0.00    -0.150 OA
BRANCH  25  28
ATOM     28  N   UNL     1       6.617  11.122  -4.338  0.00  0.00    -0.203 N 
ATOM     29  C   UNL     1       5.857  12.040  -5.198  0.00  0.00    +0.132 C 
ATOM     30  C   UNL     1       6.504  13.423  -5.101  0.00  0.00    +0.025 C 
ATOM     31  C   UNL     1       6.393  13.924  -3.662  0.00  0.00    +0.038 C 
ATOM     32  C   UNL     1       6.903  12.884  -2.700  0.00  0.00    -0.025 A 
ATOM     33  C   UNL     1       6.994  11.548  -3.060  0.00  0.00    +0.054 A 
ATOM     34  C   UNL     1       7.465  10.612  -2.146  0.00  0.00    +0.025 A 
ATOM     35  C   UNL     1       7.844  11.012  -0.880  0.00  0.00    +0.002 A 
ATOM     36  C   UNL     1       7.756  12.345  -0.523  0.00  0.00    +0.000 A 
ATOM     37  C   UNL     1       7.288  13.277  -1.430  0.00  0.00    +0.005 A 
ENDBRANCH  25  28
ENDBRANCH   4  25
TORSDOF 8
