REMARK  Name = ZINC36531321
REMARK  9 active torsions:
REMARK  status: ('A' for Active; 'I' for Inactive)
REMARK    1  A    between atoms: C_1  and  N_2
REMARK    2  A    between atoms: N_2  and  C_3
REMARK    3  A    between atoms: C_3  and  C_5
REMARK    4  A    between atoms: C_3  and  C_12
REMARK    5  A    between atoms: C_10  and  O_11
REMARK    6  A    between atoms: N_14  and  C_15
REMARK    7  A    between atoms: C_21  and  C_23
REMARK    8  A    between atoms: C_27  and  O_30
REMARK    9  A    between atoms: C_28  and  O_29
REMARK                            x       y       z     vdW  Elec       q    Type
REMARK                         _______ _______ _______ _____ _____    ______ ____
ROOT
ATOM      1  C   UNL     1       0.581  -0.864   1.223  0.00  0.00    +0.196 C 
ENDROOT
BRANCH   1   2
ATOM      2  C   UNL     1      -0.262  -0.133   2.236  0.00  0.00    +0.023 A 
ATOM      3  C   UNL     1       0.343   0.618   3.225  0.00  0.00    +0.009 A 
ATOM      4  C   UNL     1      -0.430   1.289   4.155  0.00  0.00    +0.001 A 
ATOM      5  C   UNL     1      -1.809   1.209   4.098  0.00  0.00    +0.004 A 
ATOM      6  C   UNL     1      -2.418   0.459   3.111  0.00  0.00    +0.046 A 
ATOM      7  C   UNL     1      -1.646  -0.210   2.173  0.00  0.00    +0.122 A 
BRANCH   7   8
ATOM      8  O   UNL     1      -2.243  -0.944   1.198  0.00  0.00    -0.506 OA
ATOM      9  H   UNL     1      -2.470  -1.845   1.467  0.00  0.00    +0.292 HD
ENDBRANCH   7   8
ENDBRANCH   1   2
BRANCH   1  11
ATOM     10  C   UNL     1       0.985   1.296  -0.045  0.00  0.00    +0.133 C 
ATOM     11  N   UNL     1       0.591  -0.115  -0.036  0.00  0.00    -0.285 N 
ATOM     12  C   UNL     1       0.238  -0.723  -1.185  0.00  0.00    +0.251 C 
ATOM     13  O   UNL     1      -0.189  -1.861  -1.165  0.00  0.00    -0.270 OA
BRANCH  12  14
ATOM     14  C   UNL     1       0.369  -0.008  -2.469  0.00  0.00    +0.082 A 
ATOM     15  C   UNL     1       1.519   0.740  -2.742  0.00  0.00    +0.017 A 
ATOM     16  C   UNL     1       1.638   1.406  -3.942  0.00  0.00    +0.005 A 
ATOM     17  C   UNL     1       0.624   1.340  -4.883  0.00  0.00    +0.049 A 
ATOM     18  C   UNL     1      -0.521   0.605  -4.627  0.00  0.00    +0.159 A 
ATOM     19  C   UNL     1      -0.654  -0.079  -3.422  0.00  0.00    +0.171 A 
BRANCH  19  20
ATOM     20  O   UNL     1      -1.772  -0.806  -3.170  0.00  0.00    -0.503 OA
ATOM     21  H   UNL     1      -2.478  -0.305  -2.739  0.00  0.00    +0.292 HD
ENDBRANCH  19  20
BRANCH  18  22
ATOM     22  O   UNL     1      -1.513   0.545  -5.556  0.00  0.00    -0.503 OA
ATOM     23  H   UNL     1      -1.421  -0.185  -6.183  0.00  0.00    +0.292 HD
ENDBRANCH  18  22
ENDBRANCH  12  14
ENDBRANCH   1  11
BRANCH   1  24
ATOM     24  C   UNL     1       1.990  -0.995   1.742  0.00  0.00    +0.238 C 
ATOM     25  O   UNL     1       2.869  -0.293   1.290  0.00  0.00    -0.273 OA
ATOM     26  N   UNL     1       2.272  -1.891   2.707  0.00  0.00    -0.311 N 
ATOM     27  H   UNL     1       1.586  -2.505   3.015  0.00  0.00    +0.149 HD
BRANCH  26  28
ATOM     28  C   UNL     1       3.614  -1.940   3.292  0.00  0.00    +0.073 C 
ATOM     29  C   UNL     1       4.519  -2.813   2.421  0.00  0.00    +0.022 C 
ATOM     30  C   UNL     1       5.921  -2.864   3.032  0.00  0.00    +0.002 C 
ATOM     31  C   UNL     1       5.842  -3.457   4.440  0.00  0.00    +0.000 C 
ATOM     32  C   UNL     1       4.937  -2.583   5.312  0.00  0.00    +0.002 C 
ATOM     33  C   UNL     1       3.535  -2.533   4.701  0.00  0.00    +0.022 C 
ENDBRANCH  26  28
ENDBRANCH   1  24
TORSDOF 8
