REMARK  Name = ZINC40153487
REMARK  7 active torsions:
REMARK  status: ('A' for Active; 'I' for Inactive)
REMARK    1  A    between atoms: C_1  and  C_2
REMARK    2  A    between atoms: C_3  and  S_8
REMARK    3  A    between atoms: C_4  and  C_7
REMARK    4  A    between atoms: S_8  and  N_11
REMARK    5  A    between atoms: C_21  and  C_24
REMARK    6  A    between atoms: C_24  and  O_26
REMARK    7  A    between atoms: O_26  and  C_27
REMARK                            x       y       z     vdW  Elec       q    Type
REMARK                         _______ _______ _______ _____ _____    ______ ____
ROOT
ATOM      1  N   UNL     1       1.440   0.309  -3.308  0.00  0.00    -0.175 NA
ATOM      2  C   UNL     1       2.252   1.487  -3.197  0.00  0.00    +0.111 C 
ATOM      3  C   UNL     1       2.113   2.283  -4.506  0.00  0.00    +0.036 C 
ATOM      4  C   UNL     1       2.930   1.707  -5.586  0.00  0.00    +0.108 C 
ATOM      5  N   UNL     1       2.542   0.298  -5.830  0.00  0.00    -0.312 N 
ATOM      6  C   UNL     1       2.988  -0.736  -4.939  0.00  0.00    +0.123 C 
ATOM      7  C   UNL     1       1.994  -0.992  -3.775  0.00  0.00    +0.128 C 
ATOM      8  C   UNL     1       1.748  -0.022  -6.919  0.00  0.00    +0.144 A 
ATOM      9  C   UNL     1       1.141   0.991  -7.663  0.00  0.00    +0.048 A 
ATOM     10  C   UNL     1       0.357   0.624  -8.742  0.00  0.00    +0.040 A 
ATOM     11  C   UNL     1       0.221  -0.742  -9.022  0.00  0.00    +0.170 A 
ATOM     12  N   UNL     1       0.837  -1.637  -8.258  0.00  0.00    -0.141 NA
ATOM     13  N   UNL     1       1.568  -1.294  -7.260  0.00  0.00    -0.133 NA
ENDROOT
BRANCH   1  14
ATOM     14  S   UNL     1      -0.161   0.397  -2.896  0.00  0.00    +0.066 S 
ATOM     15  O   UNL     1      -0.817  -0.655  -3.590  0.00  0.00    -0.153 OA
ATOM     16  O   UNL     1      -0.543   1.758  -3.039  0.00  0.00    -0.153 OA
BRANCH  14  19
ATOM     17  C   UNL     1      -0.019   2.433  -0.263  0.00  0.00    +0.071 C 
ATOM     18  C   UNL     1      -0.209   0.945  -0.123  0.00  0.00    +0.107 A 
ATOM     19  C   UNL     1      -0.279   0.019  -1.179  0.00  0.00    +0.170 A 
ATOM     20  C   UNL     1      -0.453  -1.208  -0.650  0.00  0.00    +0.161 A 
ATOM     21  O   UNL     1      -0.493  -1.081   0.685  0.00  0.00    -0.358 OA
ATOM     22  N   UNL     1      -0.331   0.291   0.997  0.00  0.00    -0.081 NA
ATOM     23  C   UNL     1      -0.580  -2.495  -1.422  0.00  0.00    +0.091 C 
ENDBRANCH  14  19
ENDBRANCH   1  14
BRANCH  11  24
ATOM     24  C   UNL     1      -0.606  -1.186 -10.163  0.00  0.00    +0.359 C 
ATOM     25  O   UNL     1      -1.169  -0.366 -10.860  0.00  0.00    -0.243 OA
BRANCH  24  26
ATOM     26  O   UNL     1      -0.735  -2.500 -10.430  0.00  0.00    -0.463 OA
ATOM     27  C   UNL     1      -1.550  -2.857 -11.549  0.00  0.00    +0.280 C 
ENDBRANCH  24  26
ENDBRANCH  11  24
TORSDOF 4
