REMARK  Name = ZINC39996793
REMARK  8 active torsions:
REMARK  status: ('A' for Active; 'I' for Inactive)
REMARK    1  A    between atoms: C_1  and  C_2
REMARK    2  A    between atoms: C_2  and  C_4
REMARK    3  A    between atoms: C_2  and  S_18
REMARK    4  A    between atoms: N_6  and  C_7
REMARK    5  A    between atoms: C_8  and  C_15
REMARK    6  A    between atoms: S_18  and  C_19
REMARK    7  A    between atoms: C_23  and  C_28
REMARK    8  A    between atoms: N_24  and  C_25
REMARK                            x       y       z     vdW  Elec       q    Type
REMARK                         _______ _______ _______ _____ _____    ______ ____
ROOT
ATOM      1  S   UNL     1       1.060  -0.435   1.652  0.00  0.00    -0.106 S 
ENDROOT
BRANCH   1   2
ATOM      2  C   UNL     1      -0.188  -0.092   2.923  0.00  0.00    +0.238 C 
ATOM      3  N   UNL     1      -0.395   1.359   3.062  0.00  0.00    -0.237 N 
ATOM      4  N   UNL     1      -1.736   1.601   2.741  0.00  0.00    -0.169 NA
ATOM      5  C   UNL     1      -2.357   0.494   2.429  0.00  0.00    +0.147 C 
ATOM      6  N   UNL     1      -1.501  -0.611   2.509  0.00  0.00    -0.282 N 
ATOM      7  H   UNL     1       0.266   2.018   3.325  0.00  0.00    +0.171 HD
BRANCH   5   8
ATOM      8  C   UNL     1      -3.710   0.422   2.063  0.00  0.00    +0.022 C 
ATOM      9  C   UNL     1      -4.590   1.488   1.870  0.00  0.00    +0.006 A 
ATOM     10  C   UNL     1      -4.429   2.886   1.967  0.00  0.00    +0.010 A 
ATOM     11  C   UNL     1      -5.483   3.705   1.716  0.00  0.00    +0.001 A 
ATOM     12  C   UNL     1      -6.734   3.197   1.361  0.00  0.00    +0.002 A 
ATOM     13  C   UNL     1      -6.960   1.865   1.248  0.00  0.00    +0.026 A 
ATOM     14  C   UNL     1      -5.906   0.947   1.495  0.00  0.00    +0.043 A 
ATOM     15  N   UNL     1      -5.869  -0.370   1.453  0.00  0.00    -0.380 N 
ATOM     16  C   UNL     1      -4.518  -0.827   1.790  0.00  0.00    +0.152 C 
ATOM     17  H   UNL     1      -6.617  -0.946   1.230  0.00  0.00    +0.160 HD
ENDBRANCH   5   8
BRANCH   6  18
ATOM     18  C   UNL     1      -1.843  -2.009   2.234  0.00  0.00    +0.078 C 
ATOM     19  C   UNL     1      -0.761  -3.062   2.479  0.00  0.00    +0.024 C 
ATOM     20  C   UNL     1      -1.152  -2.686   1.049  0.00  0.00    +0.024 C 
ENDBRANCH   6  18
ENDBRANCH   1   2
BRANCH   1  22
ATOM     21  C   UNL     1       0.366   1.888   0.385  0.00  0.00    +0.029 C 
ATOM     22  C   UNL     1       0.406   0.374   0.166  0.00  0.00    +0.133 C 
BRANCH  22  23
ATOM     23  C   UNL     1       1.296   0.060  -1.010  0.00  0.00    +0.230 C 
ATOM     24  O   UNL     1       2.435  -0.314  -0.825  0.00  0.00    -0.274 OA
ATOM     25  N   UNL     1       0.827   0.196  -2.266  0.00  0.00    -0.278 N 
ATOM     26  H   UNL     1      -0.084   0.496  -2.413  0.00  0.00    +0.155 HD
BRANCH  25  27
ATOM     27  C   UNL     1       1.645  -0.093  -3.347  0.00  0.00    +0.084 A 
ATOM     28  C   UNL     1       1.339  -0.006  -4.692  0.00  0.00    +0.068 A 
ATOM     29  C   UNL     1       2.388  -0.370  -5.643  0.00  0.00    -0.023 A 
ATOM     30  C   UNL     1       3.542  -0.752  -5.067  0.00  0.00    -0.004 A 
ATOM     31  S   UNL     1       3.237  -0.619  -3.324  0.00  0.00    -0.077 S 
ATOM     32  C   UNL     1       4.584  -1.118  -6.088  0.00  0.00    +0.043 C 
ATOM     33  C   UNL     1       3.791  -1.326  -7.398  0.00  0.00    +0.010 C 
ATOM     34  C   UNL     1       2.552  -0.440  -7.160  0.00  0.00    +0.037 C 
BRANCH  28  35
ATOM     35  C   UNL     1       0.015   0.431  -5.147  0.00  0.00    +0.244 C 
ATOM     36  O   UNL     1      -0.199   1.612  -5.348  0.00  0.00    -0.270 OA
ATOM     37  N   UNL     1      -0.964  -0.474  -5.341  0.00  0.00    -0.325 N 
ATOM     38  H   UNL     1      -0.793  -1.415  -5.181  0.00  0.00    +0.145 HD
ATOM     39  H   UNL     1      -1.840  -0.185  -5.642  0.00  0.00    +0.145 HD
ENDBRANCH  28  35
ENDBRANCH  25  27
ENDBRANCH  22  23
ENDBRANCH   1  22
TORSDOF 7
