REMARK  Name = ZINC01603622
REMARK  8 active torsions:
REMARK  status: ('A' for Active; 'I' for Inactive)
REMARK    1  A    between atoms: C_6  and  C_7
REMARK    2  A    between atoms: C_6  and  N_51
REMARK    3  A    between atoms: C_8  and  C_22
REMARK    4  A    between atoms: C_9  and  C_16
REMARK    5  A    between atoms: C_10  and  O_15
REMARK    6  A    between atoms: C_11  and  O_14
REMARK    7  A    between atoms: C_12  and  O_13
REMARK    8  A    between atoms: C_16  and  N_53
REMARK                            x       y       z     vdW  Elec       q    Type
REMARK                         _______ _______ _______ _____ _____    ______ ____
ROOT
ATOM      1  C   UNL     1      -0.631   1.859   0.568  0.00  0.00    -0.004 A 
ATOM      2  C   UNL     1      -1.013   0.563   0.209  0.00  0.00    +0.073 A 
ATOM      3  C   UNL     1      -0.038  -0.388  -0.102  0.00  0.00    -0.004 A 
ATOM      4  C   UNL     1       1.300  -0.045  -0.055  0.00  0.00    +0.164 A 
ATOM      5  C   UNL     1       1.677   1.247   0.302  0.00  0.00    +0.201 A 
ATOM      6  C   UNL     1       0.708   2.197   0.613  0.00  0.00    +0.164 A 
ENDROOT
BRANCH   2   7
ATOM      7  C   UNL     1      -2.441   0.200   0.161  0.00  0.00    +0.387 C 
ATOM      8  O   UNL     1      -3.053   0.279  -0.886  0.00  0.00    -0.241 OA
ATOM      9  O   UNL     1      -3.068  -0.218   1.277  0.00  0.00    -0.241 OA
ENDBRANCH   2   7
BRANCH   6  10
ATOM     10  O   UNL     1       1.080   3.458   0.961  0.00  0.00    -0.503 OA
ATOM     11  H   UNL     1       1.220   3.579   1.910  0.00  0.00    +0.292 HD
ENDBRANCH   6  10
BRANCH   5  12
ATOM     12  O   UNL     1       2.994   1.581   0.347  0.00  0.00    -0.501 OA
ATOM     13  H   UNL     1       3.342   1.922  -0.488  0.00  0.00    +0.292 HD
ENDBRANCH   5  12
BRANCH   4  14
ATOM     14  O   UNL     1       2.250  -0.971  -0.358  0.00  0.00    -0.503 OA
ATOM     15  H   UNL     1       2.492  -0.995  -1.294  0.00  0.00    +0.292 HD
ENDBRANCH   4  14
BRANCH   1  16
ATOM     16  C   UNL     1      -1.680   2.890   0.898  0.00  0.00    -0.038 C 
BRANCH  16  22
ATOM     17  C   UNL     1      -3.011   5.612  -2.118  0.00  0.00    -0.004 C 
ATOM     18  C   UNL     1      -4.022   4.683  -1.443  0.00  0.00    -0.019 C 
ATOM     19  C   UNL     1      -3.451   4.199  -0.108  0.00  0.00    -0.078 C 
ATOM     20  C   UNL     1      -1.185   4.374  -0.949  0.00  0.00    -0.078 C 
ATOM     21  C   UNL     1      -1.689   4.863  -2.309  0.00  0.00    -0.019 C 
ATOM     22  N   UNL     1      -2.193   3.465  -0.362  0.00  0.00    +0.382 N 
ATOM     23  H   UNL     1      -2.380   2.703  -1.025  0.00  0.00    -0.081 HD
ENDBRANCH  16  22
ENDBRANCH   1  16
BRANCH   3  24
ATOM     24  C   UNL     1      -0.445  -1.787  -0.489  0.00  0.00    -0.038 C 
BRANCH  24  30
ATOM     25  C   UNL     1       0.619  -2.901   1.379  0.00  0.00    -0.078 C 
ATOM     26  C   UNL     1       0.352  -3.607   2.710  0.00  0.00    -0.019 C 
ATOM     27  C   UNL     1      -0.439  -4.893   2.450  0.00  0.00    -0.004 C 
ATOM     28  C   UNL     1      -1.741  -4.543   1.725  0.00  0.00    -0.019 C 
ATOM     29  C   UNL     1      -1.413  -3.810   0.422  0.00  0.00    -0.078 C 
ATOM     30  N   UNL     1      -0.674  -2.570   0.743  0.00  0.00    +0.382 N 
ATOM     31  H   UNL     1      -1.232  -2.009   1.396  0.00  0.00    -0.081 HD
ENDBRANCH  24  30
ENDBRANCH   3  24
TORSDOF 8
