REMARK  Name = ZINC32593952
REMARK  6 active torsions:
REMARK  status: ('A' for Active; 'I' for Inactive)
REMARK    1  A    between atoms: C_6  and  C_7
REMARK    2  A    between atoms: C_7  and  C_9
REMARK    3  A    between atoms: C_7  and  N_28
REMARK    4  A    between atoms: C_9  and  N_10
REMARK    5  A    between atoms: C_11  and  C_13
REMARK    6  A    between atoms: C_15  and  C_18
REMARK                            x       y       z     vdW  Elec       q    Type
REMARK                         _______ _______ _______ _____ _____    ______ ____
ROOT
ATOM      1  N   UNL     1      -7.940  -2.568  -0.029  0.00  0.00    -0.311 N 
ATOM      2  C   UNL     1      -7.283  -1.392  -0.066  0.00  0.00    +0.266 C 
ATOM      3  O   UNL     1      -7.906  -0.349  -0.088  0.00  0.00    -0.268 OA
ATOM      4  H   UNL     1      -7.376  -3.513  -0.008  0.00  0.00    +0.149 HD
ENDROOT
BRANCH   2   5
ATOM      5  C   UNL     1      -5.800  -1.370  -0.080  0.00  0.00    +0.168 A 
ATOM      6  C   UNL     1      -4.966  -0.223  -0.113  0.00  0.00    +0.086 A 
ATOM      7  C   UNL     1      -3.700  -0.739  -0.115  0.00  0.00    +0.168 A 
ATOM      8  O   UNL     1      -3.836  -2.077  -0.077  0.00  0.00    -0.354 OA
ATOM      9  N   UNL     1      -4.998  -2.408  -0.058  0.00  0.00    -0.073 NA
BRANCH   7  10
ATOM     10  C   UNL     1      -2.433   0.021  -0.147  0.00  0.00    +0.024 A 
ATOM     11  C   UNL     1      -2.455   1.417  -0.184  0.00  0.00    +0.015 A 
ATOM     12  C   UNL     1      -1.272   2.123  -0.219  0.00  0.00    +0.050 A 
ATOM     13  C   UNL     1      -0.056   1.453  -0.209  0.00  0.00    +0.162 A 
ATOM     14  C   UNL     1      -0.027   0.062  -0.169  0.00  0.00    +0.163 A 
ATOM     15  C   UNL     1      -1.212  -0.653  -0.139  0.00  0.00    +0.061 A 
ATOM     16  O   UNL     1       1.157  -0.610  -0.158  0.00  0.00    -0.485 OA
ATOM     17  C   UNL     1       2.317   0.123  -0.567  0.00  0.00    +0.270 C 
ATOM     18  C   UNL     1       2.296   1.486   0.139  0.00  0.00    +0.270 C 
ATOM     19  O   UNL     1       1.099   2.171  -0.245  0.00  0.00    -0.485 OA
ENDBRANCH   7  10
ENDBRANCH   2   5
BRANCH   1  20
ATOM     20  C   UNL     1      -9.405  -2.590  -0.015  0.00  0.00    +0.094 C 
BRANCH  20  21
ATOM     21  C   UNL     1      -9.893  -4.039   0.028  0.00  0.00    -0.020 C 
BRANCH  21  27
ATOM     22  C   UNL     1     -12.028  -3.117   0.953  0.00  0.00    +0.003 A 
ATOM     23  C   UNL     1     -13.405  -3.132   1.076  0.00  0.00    +0.020 A 
ATOM     24  C   UNL     1     -14.147  -4.098   0.419  0.00  0.00    +0.041 A 
ATOM     25  C   UNL     1     -13.511  -5.044  -0.365  0.00  0.00    +0.020 A 
ATOM     26  C   UNL     1     -12.135  -5.024  -0.491  0.00  0.00    +0.003 A 
ATOM     27  C   UNL     1     -11.394  -4.060   0.166  0.00  0.00    -0.059 A 
ATOM     28 CL   UNL     1     -15.875  -4.122   0.579  0.00  0.00    -0.084 Cl
ENDBRANCH  21  27
BRANCH  21  29
ATOM     29  N   UNL     1      -9.287  -4.726   1.176  0.00  0.00    +0.385 N 
ATOM     30  C   UNL     1      -9.799  -4.176   2.457  0.00  0.00    -0.078 C 
ATOM     31  C   UNL     1      -9.496  -5.304   3.474  0.00  0.00    -0.020 C 
ATOM     32  C   UNL     1      -9.770  -6.588   2.658  0.00  0.00    -0.020 C 
ATOM     33  C   UNL     1      -9.643  -6.162   1.183  0.00  0.00    -0.078 C 
ATOM     34  H   UNL     1      -8.201  -4.581   1.073  0.00  0.00    -0.081 HD
ENDBRANCH  21  29
ENDBRANCH  20  21
ENDBRANCH   1  20
TORSDOF 6
