REMARK  Name = ZINC14480286
REMARK  8 active torsions:
REMARK  status: ('A' for Active; 'I' for Inactive)
REMARK    1  A    between atoms: C_1  and  C_2
REMARK    2  A    between atoms: C_2  and  C_3
REMARK    3  A    between atoms: C_3  and  C_5
REMARK    4  A    between atoms: C_3  and  N_6
REMARK    5  A    between atoms: N_6  and  S_7
REMARK    6  A    between atoms: S_7  and  C_10
REMARK    7  A    between atoms: C_23  and  C_26
REMARK    8  A    between atoms: C_30  and  C_32
REMARK                            x       y       z     vdW  Elec       q    Type
REMARK                         _______ _______ _______ _____ _____    ______ ____
ROOT
ATOM      1  C   UNL     1       0.252   3.455   3.840  0.00  0.00    +0.106 A 
ATOM      2  C   UNL     1       0.105   4.590   3.062  0.00  0.00    +0.030 A 
ATOM      3  C   UNL     1      -0.568   5.683   3.567  0.00  0.00    +0.025 A 
ATOM      4  C   UNL     1      -1.087   5.646   4.855  0.00  0.00    +0.031 A 
ATOM      5  C   UNL     1      -0.937   4.514   5.641  0.00  0.00    -0.018 A 
ATOM      6  C   UNL     1      -0.262   3.418   5.120  0.00  0.00    +0.034 A 
ATOM      7  C   UNL     1      -1.476   4.428   7.034  0.00  0.00    +0.049 C 
ATOM      8  C   UNL     1      -2.716   3.568   7.094  0.00  0.00    -0.023 C 
ATOM      9  C   UNL     1      -3.561   4.034   7.965  0.00  0.00    -0.030 C 
ATOM     10  C   UNL     1      -3.017   5.297   8.603  0.00  0.00    +0.033 C 
ATOM     11  C   UNL     1      -1.953   5.789   7.578  0.00  0.00    +0.029 C 
ATOM     12  C   UNL     1      -2.696   6.559   6.483  0.00  0.00    +0.105 C 
ATOM     13  N   UNL     1      -1.796   6.750   5.342  0.00  0.00    -0.336 N 
ATOM     14  H   UNL     1      -1.683   7.625   4.939  0.00  0.00    +0.147 HD
ENDROOT
BRANCH  12  15
ATOM     15  C   UNL     1      -3.905   5.772   6.045  0.00  0.00    -0.027 A 
ATOM     16  C   UNL     1      -3.761   4.720   5.159  0.00  0.00    +0.005 A 
ATOM     17  C   UNL     1      -4.870   3.999   4.758  0.00  0.00    +0.001 A 
ATOM     18  C   UNL     1      -6.122   4.328   5.243  0.00  0.00    +0.003 A 
ATOM     19  C   UNL     1      -6.265   5.379   6.130  0.00  0.00    -0.050 A 
ATOM     20  C   UNL     1      -5.156   6.098   6.534  0.00  0.00    +0.008 A 
ATOM     21  C   UNL     1      -7.630   5.737   6.659  0.00  0.00    +0.044 C 
ENDBRANCH  12  15
BRANCH   1  22
ATOM     22  S   UNL     1       1.106   2.055   3.196  0.00  0.00    +0.059 S 
ATOM     23  O   UNL     1       1.588   1.324   4.315  0.00  0.00    -0.153 OA
ATOM     24  O   UNL     1       1.966   2.538   2.173  0.00  0.00    -0.153 OA
BRANCH  22  25
ATOM     25  N   UNL     1      -0.020   1.094   2.454  0.00  0.00    -0.187 NA
ATOM     26  H   UNL     1      -0.211   0.210   2.804  0.00  0.00    +0.148 HD
BRANCH  25  27
ATOM     27  C   UNL     1      -0.729   1.579   1.267  0.00  0.00    +0.073 C 
ATOM     28  C   UNL     1      -0.013   1.086   0.008  0.00  0.00    +0.025 C 
BRANCH  27  30
ATOM     29  C   UNL     1      -2.918   1.643   2.470  0.00  0.00    +0.005 C 
ATOM     30  C   UNL     1      -2.164   1.050   1.278  0.00  0.00    +0.017 C 
ENDBRANCH  27  30
ENDBRANCH  25  27
ENDBRANCH  22  25
ENDBRANCH   1  22
TORSDOF 5
