REMARK  Name = ZINC14749364
REMARK  12 active torsions:
REMARK  status: ('A' for Active; 'I' for Inactive)
REMARK    1  A    between atoms: C_1  and  C_2
REMARK    2  A    between atoms: C_2  and  C_3
REMARK    3  A    between atoms: C_2  and  C_4
REMARK    4  A    between atoms: C_4  and  C_5
REMARK    5  A    between atoms: C_5  and  N_6
REMARK    6  A    between atoms: N_9  and  C_28
REMARK    7  A    between atoms: C_17  and  C_18
REMARK    8  A    between atoms: C_17  and  N_75
REMARK    9  A    between atoms: N_20  and  C_27
REMARK   10  A    between atoms: C_28  and  C_29
REMARK   11  A    between atoms: C_33  and  O_35
REMARK   12  A    between atoms: O_35  and  C_36
REMARK                            x       y       z     vdW  Elec       q    Type
REMARK                         _______ _______ _______ _____ _____    ______ ____
ROOT
ATOM      1  N   UNL     1       2.219   0.705  -0.151  0.00  0.00    -0.271 N 
ATOM      2  C   UNL     1       1.160  -0.124  -0.075  0.00  0.00    +0.312 C 
ATOM      3  O   UNL     1       1.251  -1.322   0.109  0.00  0.00    -0.252 OA
ATOM      4  N   UNL     1      -0.004   0.519  -0.225  0.00  0.00    -0.220 N 
ATOM      5  C   UNL     1       0.180   1.842  -0.415  0.00  0.00    +0.247 C 
ATOM      6  O   UNL     1      -0.674   2.686  -0.585  0.00  0.00    -0.273 OA
ATOM      7  C   UNL     1       1.677   2.050  -0.377  0.00  0.00    +0.112 C 
ATOM      8  C   UNL     1       2.058   2.981   0.769  0.00  0.00    +0.017 C 
ATOM      9  C   UNL     1       3.575   3.194   0.765  0.00  0.00    -0.076 C 
ATOM     10  C   UNL     1       3.685   2.834  -1.630  0.00  0.00    -0.076 C 
ATOM     11  C   UNL     1       2.172   2.609  -1.707  0.00  0.00    +0.017 C 
ATOM     12  N   UNL     1       3.972   3.782  -0.532  0.00  0.00    +0.383 N 
ATOM     13  H   UNL     1       3.433   4.643  -0.686  0.00  0.00    -0.081 HD
ENDROOT
BRANCH   1  14
ATOM     14  C   UNL     1       3.632   0.337  -0.031  0.00  0.00    +0.110 C 
BRANCH  14  15
ATOM     15  C   UNL     1       4.034  -0.536  -1.221  0.00  0.00    +0.022 C 
BRANCH  15  17
ATOM     16  C   UNL     1       5.859  -1.646   0.075  0.00  0.00    +0.007 C 
ATOM     17  C   UNL     1       5.538  -0.811  -1.166  0.00  0.00    -0.016 C 
ATOM     18  C   UNL     1       5.963  -1.578  -2.420  0.00  0.00    +0.007 C 
ENDBRANCH  15  17
ENDBRANCH  14  15
ENDBRANCH   1  14
BRANCH  12  19
ATOM     19  C   UNL     1       5.411   4.114  -0.516  0.00  0.00    -0.041 C 
BRANCH  19  20
ATOM     20  C   UNL     1       5.638   5.238   0.462  0.00  0.00    -0.039 A 
ATOM     21  C   UNL     1       5.769   6.541   0.165  0.00  0.00    +0.088 A 
ATOM     22  N   UNL     1       5.963   7.263   1.310  0.00  0.00    -0.349 N 
ATOM     23  C   UNL     1       5.961   6.422   2.401  0.00  0.00    +0.049 A 
ATOM     24  C   UNL     1       5.752   5.117   1.917  0.00  0.00    +0.001 A 
ATOM     25  C   UNL     1       5.708   4.044   2.808  0.00  0.00    +0.010 A 
ATOM     26  C   UNL     1       5.859   4.267   4.148  0.00  0.00    +0.001 A 
ATOM     27  C   UNL     1       6.060   5.553   4.630  0.00  0.00    +0.002 A 
ATOM     28  C   UNL     1       6.111   6.627   3.768  0.00  0.00    +0.026 A 
ATOM     29  C   UNL     1       6.145   8.716   1.369  0.00  0.00    +0.149 C 
ENDBRANCH  19  20
ENDBRANCH  12  19
BRANCH   4  30
ATOM     30  C   UNL     1      -1.316  -0.132  -0.189  0.00  0.00    +0.153 C 
BRANCH  30  31
ATOM     31  C   UNL     1      -1.700  -0.566  -1.579  0.00  0.00    -0.026 A 
ATOM     32  C   UNL     1      -2.412   0.291  -2.399  0.00  0.00    +0.005 A 
ATOM     33  C   UNL     1      -2.761  -0.102  -3.677  0.00  0.00    +0.004 A 
ATOM     34  C   UNL     1      -2.410  -1.357  -4.136  0.00  0.00    +0.045 A 
ATOM     35  C   UNL     1      -1.701  -2.221  -3.314  0.00  0.00    +0.120 A 
ATOM     36  C   UNL     1      -1.346  -1.822  -2.033  0.00  0.00    +0.050 A 
BRANCH  35  37
ATOM     37  O   UNL     1      -1.354  -3.456  -3.763  0.00  0.00    -0.495 OA
ATOM     38  C   UNL     1      -1.752  -3.799  -5.091  0.00  0.00    +0.277 C 
ENDBRANCH  35  37
ENDBRANCH  30  31
ENDBRANCH   4  30
TORSDOF 8
