REMARK  Name = ZINC11376987
REMARK  9 active torsions:
REMARK  status: ('A' for Active; 'I' for Inactive)
REMARK    1  A    between atoms: C_1  and  C_2
REMARK    2  A    between atoms: C_2  and  C_27
REMARK    3  A    between atoms: N_5  and  C_9
REMARK    4  A    between atoms: C_9  and  C_10
REMARK    5  A    between atoms: C_10  and  C_12
REMARK    6  A    between atoms: C_10  and  O_26
REMARK    7  A    between atoms: C_12  and  O_13
REMARK    8  A    between atoms: O_13  and  C_14
REMARK    9  A    between atoms: C_17  and  C_20
REMARK                            x       y       z     vdW  Elec       q    Type
REMARK                         _______ _______ _______ _____ _____    ______ ____
ROOT
ATOM      1  C   UNL     1       2.376   4.246   0.128  0.00  0.00    +0.152 C 
ENDROOT
BRANCH   1   6
ATOM      2  C   UNL     1       0.520   8.491  -0.651  0.00  0.00    +0.047 C 
ATOM      3  C   UNL     1       1.855   7.911  -0.178  0.00  0.00    +0.135 C 
ATOM      4  C   UNL     1       2.090   6.541  -0.784  0.00  0.00    +0.251 C 
ATOM      5  O   UNL     1       2.195   6.269  -1.961  0.00  0.00    -0.272 OA
ATOM      6  N   UNL     1       2.158   5.689   0.258  0.00  0.00    -0.221 N 
ATOM      7  C   UNL     1       2.007   6.324   1.426  0.00  0.00    +0.310 C 
ATOM      8  O   UNL     1       2.034   5.768   2.506  0.00  0.00    -0.252 OA
ATOM      9  N   UNL     1       1.821   7.647   1.271  0.00  0.00    -0.281 N 
ATOM     10  H   UNL     1       1.690   8.301   1.976  0.00  0.00    +0.152 HD
BRANCH   3  11
ATOM     11  C   UNL     1       2.990   8.840  -0.522  0.00  0.00    -0.014 A 
ATOM     12  C   UNL     1       3.397   9.800   0.387  0.00  0.00    +0.006 A 
ATOM     13  C   UNL     1       4.439  10.652   0.073  0.00  0.00    +0.001 A 
ATOM     14  C   UNL     1       5.074  10.546  -1.151  0.00  0.00    +0.015 A 
ATOM     15  C   UNL     1       4.667   9.587  -2.060  0.00  0.00    +0.018 A 
ATOM     16  C   UNL     1       3.628   8.730  -1.743  0.00  0.00    +0.021 A 
ATOM     17 BR   UNL     1       5.535   9.441  -3.733  0.00  0.00    -0.050 Br
ENDBRANCH   3  11
ENDBRANCH   1   6
BRANCH   1  18
ATOM     18  C   UNL     1       1.027   3.534   0.011  0.00  0.00    +0.170 C 
BRANCH  18  19
ATOM     19  O   UNL     1       0.383   3.930  -1.202  0.00  0.00    -0.387 OA
ATOM     20  H   UNL     1       0.886   3.720  -2.000  0.00  0.00    +0.210 HD
ENDBRANCH  18  19
BRANCH  18  21
ATOM     21  C   UNL     1       1.248   2.021   0.001  0.00  0.00    +0.261 C 
BRANCH  21  22
ATOM     22  O   UNL     1      -0.016   1.355   0.009  0.00  0.00    -0.489 OA
BRANCH  22  23
ATOM     23  C   UNL     1       0.002  -0.004   0.002  0.00  0.00    +0.121 A 
ATOM     24  C   UNL     1       1.214  -0.680  -0.019  0.00  0.00    +0.046 A 
ATOM     25  C   UNL     1       1.236  -2.059  -0.021  0.00  0.00    +0.012 A 
ATOM     26  C   UNL     1       0.040  -2.774  -0.013  0.00  0.00    -0.018 A 
ATOM     27  C   UNL     1      -1.176  -2.092   0.002  0.00  0.00    +0.012 A 
ATOM     28  C   UNL     1      -1.192  -0.713   0.010  0.00  0.00    +0.046 A 
BRANCH  26  29
ATOM     29  C   UNL     1       0.060  -4.257  -0.022  0.00  0.00    -0.018 A 
ATOM     30  C   UNL     1      -1.136  -4.973  -0.009  0.00  0.00    +0.008 A 
ATOM     31  C   UNL     1      -1.111  -6.353  -0.021  0.00  0.00    +0.001 A 
ATOM     32  C   UNL     1       0.097  -7.026  -0.037  0.00  0.00    +0.000 A 
ATOM     33  C   UNL     1       1.287  -6.320  -0.045  0.00  0.00    +0.001 A 
ATOM     34  C   UNL     1       1.274  -4.940  -0.037  0.00  0.00    +0.008 A 
ENDBRANCH  26  29
ENDBRANCH  22  23
ENDBRANCH  21  22
ENDBRANCH  18  21
ENDBRANCH   1  18
TORSDOF 8
