REMARK  Name = ZINC36571296
REMARK  15 active torsions:
REMARK  status: ('A' for Active; 'I' for Inactive)
REMARK    1  A    between atoms: C_1  and  C_2
REMARK    2  A    between atoms: C_2  and  C_3
REMARK    3  A    between atoms: C_3  and  N_4
REMARK    4  A    between atoms: N_4  and  C_5
REMARK    5  A    between atoms: C_5  and  C_7
REMARK    6  A    between atoms: C_5  and  C_16
REMARK    7  A    between atoms: C_7  and  C_9
REMARK    8  A    between atoms: C_7  and  C_10
REMARK    9  A    between atoms: N_18  and  C_19
REMARK   10  A    between atoms: C_19  and  S_20
REMARK   11  A    between atoms: S_20  and  C_23
REMARK   12  A    between atoms: C_26  and  C_29
REMARK   13  A    between atoms: C_30  and  C_32
REMARK   14  A    between atoms: C_36  and  O_39
REMARK   15  A    between atoms: C_37  and  O_38
REMARK                            x       y       z     vdW  Elec       q    Type
REMARK                         _______ _______ _______ _____ _____    ______ ____
ROOT
ATOM      1  C   UNL     1      -0.610  -2.705  -0.186  0.00  0.00    +0.169 C 
ENDROOT
BRANCH   1   2
ATOM      2  C   UNL     1      -0.657  -3.263   1.213  0.00  0.00    +0.235 C 
ATOM      3  O   UNL     1      -1.654  -3.124   1.888  0.00  0.00    -0.274 OA
ATOM      4  N   UNL     1       0.410  -3.917   1.714  0.00  0.00    -0.295 N 
ATOM      5  H   UNL     1       1.265  -3.870   1.259  0.00  0.00    +0.150 HD
BRANCH   4   6
ATOM      6  C   UNL     1       0.278  -4.699   2.946  0.00  0.00    +0.278 C 
BRANCH   6   7
ATOM      7  S   UNL     1       0.228  -6.466   2.539  0.00  0.00    +0.013 S 
ATOM      8  O   UNL     1       0.096  -7.238   3.725  0.00  0.00    -0.168 OA
ATOM      9  O   UNL     1      -0.633  -6.688   1.431  0.00  0.00    -0.168 OA
BRANCH   7  10
ATOM     10  C   UNL     1       1.841  -6.838   1.937  0.00  0.00    +0.090 A 
ATOM     11  C   UNL     1       2.157  -6.601   0.612  0.00  0.00    +0.027 A 
ATOM     12  C   UNL     1       3.423  -6.892   0.140  0.00  0.00    +0.005 A 
ATOM     13  C   UNL     1       4.374  -7.421   0.993  0.00  0.00    -0.050 A 
ATOM     14  C   UNL     1       4.059  -7.657   2.318  0.00  0.00    +0.005 A 
ATOM     15  C   UNL     1       2.794  -7.361   2.791  0.00  0.00    +0.027 A 
ATOM     16  C   UNL     1       5.753  -7.740   0.478  0.00  0.00    +0.044 C 
ENDBRANCH   7  10
ENDBRANCH   6   7
ENDBRANCH   4   6
ENDBRANCH   1   2
BRANCH   1  17
ATOM     17  N   UNL     1      -1.920  -2.151  -0.535  0.00  0.00    -0.285 N 
ATOM     18  C   UNL     1      -2.686  -2.762  -1.459  0.00  0.00    +0.251 C 
ATOM     19  O   UNL     1      -3.640  -2.181  -1.940  0.00  0.00    -0.270 OA
BRANCH  18  20
ATOM     20  C   UNL     1      -2.368  -4.138  -1.888  0.00  0.00    +0.082 A 
ATOM     21  C   UNL     1      -1.596  -4.968  -1.070  0.00  0.00    +0.017 A 
ATOM     22  C   UNL     1      -1.302  -6.252  -1.474  0.00  0.00    +0.005 A 
ATOM     23  C   UNL     1      -1.767  -6.728  -2.689  0.00  0.00    +0.049 A 
ATOM     24  C   UNL     1      -2.532  -5.918  -3.510  0.00  0.00    +0.159 A 
ATOM     25  C   UNL     1      -2.843  -4.620  -3.114  0.00  0.00    +0.171 A 
BRANCH  25  26
ATOM     26  O   UNL     1      -3.598  -3.825  -3.913  0.00  0.00    -0.503 OA
ATOM     27  H   UNL     1      -3.086  -3.301  -4.544  0.00  0.00    +0.292 HD
ENDBRANCH  25  26
BRANCH  24  28
ATOM     28  O   UNL     1      -2.985  -6.391  -4.702  0.00  0.00    -0.503 OA
ATOM     29  H   UNL     1      -3.850  -6.821  -4.651  0.00  0.00    +0.292 HD
ENDBRANCH  24  28
ENDBRANCH  18  20
BRANCH  17  30
ATOM     30  C   UNL     1      -2.397  -0.931   0.121  0.00  0.00    +0.108 C 
BRANCH  30  32
ATOM     31  C   UNL     1      -3.995  -0.022   1.813  0.00  0.00    +0.005 C 
ATOM     32  C   UNL     1      -3.406  -1.299   1.211  0.00  0.00    +0.016 C 
ENDBRANCH  30  32
ENDBRANCH  17  30
ENDBRANCH   1  17
BRANCH   1  33
ATOM     33  C   UNL     1       0.448  -1.602  -0.260  0.00  0.00    +0.045 C 
ATOM     34  C   UNL     1       1.709  -2.054   0.478  0.00  0.00    +0.015 C 
BRANCH  33  35
ATOM     35  C   UNL     1       0.782  -1.322  -1.702  0.00  0.00    -0.042 A 
ATOM     36  C   UNL     1       1.098  -2.365  -2.553  0.00  0.00    +0.004 A 
ATOM     37  C   UNL     1       1.405  -2.109  -3.877  0.00  0.00    +0.000 A 
ATOM     38  C   UNL     1       1.395  -0.810  -4.349  0.00  0.00    +0.000 A 
ATOM     39  C   UNL     1       1.079   0.233  -3.498  0.00  0.00    +0.000 A 
ATOM     40  C   UNL     1       0.767  -0.024  -2.176  0.00  0.00    +0.004 A 
ENDBRANCH  33  35
ENDBRANCH   1  33
TORSDOF 12
