REMARK  Name = ZINC10761316
REMARK  7 active torsions:
REMARK  status: ('A' for Active; 'I' for Inactive)
REMARK    1  A    between atoms: C_1  and  O_2
REMARK    2  A    between atoms: O_2  and  C_3
REMARK    3  A    between atoms: C_6  and  C_8
REMARK    4  A    between atoms: C_12  and  N_13
REMARK    5  A    between atoms: C_14  and  C_16
REMARK    6  A    between atoms: N_21  and  S_23
REMARK    7  A    between atoms: S_23  and  C_26
REMARK                            x       y       z     vdW  Elec       q    Type
REMARK                         _______ _______ _______ _____ _____    ______ ____
ROOT
ATOM      1  N   UNL     1      -0.475   6.018   5.625  0.00  0.00    -0.279 N 
ATOM      2  C   UNL     1      -1.083   6.259   4.446  0.00  0.00    +0.222 C 
ATOM      3  O   UNL     1      -1.188   7.396   4.039  0.00  0.00    -0.275 OA
ATOM      4  H   UNL     1      -0.392   5.108   5.950  0.00  0.00    +0.155 HD
ENDROOT
BRANCH   1   9
ATOM      5  C   UNL     1       0.683   7.024   7.596  0.00  0.00    +0.069 A 
ATOM      6  C   UNL     1       1.119   8.285   8.173  0.00  0.00    -0.023 A 
ATOM      7  C   UNL     1       0.835   9.382   7.438  0.00  0.00    -0.004 A 
ATOM      8  S   UNL     1       0.010   8.762   5.999  0.00  0.00    -0.077 S 
ATOM      9  C   UNL     1       0.031   7.070   6.372  0.00  0.00    +0.084 A 
ATOM     10  C   UNL     1       1.159  10.804   7.777  0.00  0.00    +0.043 C 
ATOM     11  C   UNL     1       1.534  10.874   9.264  0.00  0.00    +0.005 C 
ATOM     12  C   UNL     1       2.541   9.762   9.572  0.00  0.00    +0.005 C 
ATOM     13  C   UNL     1       1.848   8.400   9.506  0.00  0.00    +0.037 C 
BRANCH   5  17
ATOM     14  C   UNL     1       0.231   4.099   9.777  0.00  0.00    +0.407 C 
ATOM     15  O   UNL     1       1.254   3.478   9.566  0.00  0.00    -0.226 OA
ATOM     16  N   UNL     1       0.010   5.269   9.147  0.00  0.00    -0.217 N 
ATOM     17  C   UNL     1       0.924   5.752   8.282  0.00  0.00    +0.255 C 
ATOM     18  O   UNL     1       1.948   5.130   8.070  0.00  0.00    -0.270 OA
ATOM     19  H   UNL     1      -0.807   5.764   9.316  0.00  0.00    +0.161 HD
BRANCH  14  21
ATOM     20  C   UNL     1      -0.377   2.351  11.284  0.00  0.00    +0.282 C 
ATOM     21  O   UNL     1      -0.682   3.617  10.642  0.00  0.00    -0.453 OA
ENDBRANCH  14  21
ENDBRANCH   5  17
ENDBRANCH   1   9
BRANCH   2  22
ATOM     22  C   UNL     1      -1.634   5.115   3.635  0.00  0.00    +0.091 C 
ATOM     23  C   UNL     1      -2.696   4.374   4.450  0.00  0.00    +0.015 C 
ATOM     24  C   UNL     1      -3.233   3.192   3.639  0.00  0.00    +0.018 C 
ATOM     25  C   UNL     1      -3.889   3.717   2.353  0.00  0.00    +0.109 C 
ATOM     26  N   UNL     1      -2.913   4.548   1.635  0.00  0.00    -0.175 NA
ATOM     27  C   UNL     1      -2.268   5.658   2.350  0.00  0.00    +0.122 C 
BRANCH  26  28
ATOM     28  S   UNL     1      -2.551   4.243   0.049  0.00  0.00    +0.067 S 
ATOM     29  O   UNL     1      -2.072   5.463  -0.500  0.00  0.00    -0.152 OA
ATOM     30  O   UNL     1      -3.664   3.547  -0.496  0.00  0.00    -0.152 OA
BRANCH  28  31
ATOM     31  C   UNL     1      -1.196   3.116   0.030  0.00  0.00    +0.143 A 
ATOM     32  C   UNL     1      -1.213   1.761   0.017  0.00  0.00    +0.036 A 
ATOM     33  C   UNL     1      -0.013   1.076   0.008  0.00  0.00    +0.010 A 
ATOM     34  C   UNL     1       1.146   1.780   0.001  0.00  0.00    +0.047 A 
ATOM     35  S   UNL     1       0.555   3.464   0.015  0.00  0.00    -0.077 S 
ENDBRANCH  28  31
ENDBRANCH  26  28
ENDBRANCH   2  22
TORSDOF 6
