REMARK  Name = ZINC13131998
REMARK  2 active torsions:
REMARK  status: ('A' for Active; 'I' for Inactive)
REMARK    1  A    between atoms: C_4  and  C_7
REMARK    2  A    between atoms: C_10  and  C_18
REMARK                            x       y       z     vdW  Elec       q    Type
REMARK                         _______ _______ _______ _____ _____    ______ ____
ROOT
ATOM      1  C   UNL     1       3.711  -0.707  -0.038  0.00  0.00    +0.106 C 
ATOM      2  C   UNL     1       4.048  -1.192   1.377  0.00  0.00    +0.058 C 
ATOM      3  C   UNL     1       2.915  -2.081   1.904  0.00  0.00    +0.143 C 
ATOM      4  N   UNL     1       2.589  -3.081   0.888  0.00  0.00    -0.226 N 
ATOM      5  C   UNL     1       2.920  -2.975  -0.421  0.00  0.00    +0.215 A 
ATOM      6  N   UNL     1       2.480  -4.039  -1.037  0.00  0.00    -0.202 NA
ATOM      7  C   UNL     1       1.864  -4.840  -0.160  0.00  0.00    +0.247 A 
ATOM      8  N   UNL     1       1.908  -4.291   1.028  0.00  0.00    -0.156 NA
ATOM      9  N   UNL     1       3.612  -1.879  -0.929  0.00  0.00    -0.307 N 
ATOM     10  H   UNL     1       4.006  -1.883  -1.815  0.00  0.00    +0.149 HD
ENDROOT
BRANCH   3  11
ATOM     11  C   UNL     1       3.359  -2.768   3.169  0.00  0.00    -0.023 A 
ATOM     12  C   UNL     1       4.462  -3.602   3.152  0.00  0.00    +0.007 A 
ATOM     13  C   UNL     1       4.869  -4.233   4.312  0.00  0.00    +0.020 A 
ATOM     14  C   UNL     1       4.174  -4.030   5.491  0.00  0.00    +0.041 A 
ATOM     15  C   UNL     1       3.071  -3.195   5.508  0.00  0.00    +0.020 A 
ATOM     16  C   UNL     1       2.668  -2.560   4.348  0.00  0.00    +0.007 A 
ATOM     17 CL   UNL     1       4.686  -4.822   6.949  0.00  0.00    -0.084 Cl
ENDBRANCH   3  11
BRANCH   1  21
ATOM     18  C   UNL     1      -0.017   1.378   0.010  0.00  0.00    +0.000 A 
ATOM     19  C   UNL     1       1.171   2.086   0.002  0.00  0.00    +0.000 A 
ATOM     20  C   UNL     1       2.377   1.411  -0.013  0.00  0.00    +0.005 A 
ATOM     21  C   UNL     1       2.396   0.029  -0.020  0.00  0.00    -0.027 A 
ATOM     22  C   UNL     1       1.208  -0.679  -0.012  0.00  0.00    +0.005 A 
ATOM     23  C   UNL     1       0.002  -0.004   0.002  0.00  0.00    +0.000 A 
ENDBRANCH   1  21
TORSDOF 2
