REMARK  Name = ZINC09560075
REMARK  10 active torsions:
REMARK  status: ('A' for Active; 'I' for Inactive)
REMARK    1  A    between atoms: C_1  and  C_2
REMARK    2  A    between atoms: C_2  and  O_3
REMARK    3  A    between atoms: O_3  and  C_4
REMARK    4  A    between atoms: C_6  and  C_12
REMARK    5  A    between atoms: C_9  and  O_10
REMARK    6  A    between atoms: C_23  and  C_26
REMARK    7  A    between atoms: C_28  and  O_34
REMARK    8  A    between atoms: C_31  and  O_32
REMARK    9  A    between atoms: O_32  and  C_33
REMARK   10  A    between atoms: O_34  and  C_35
REMARK                            x       y       z     vdW  Elec       q    Type
REMARK                         _______ _______ _______ _____ _____    ______ ____
ROOT
ATOM      1  C   UNL     1      -4.463  -3.664  -0.030  0.00  0.00    +0.063 C 
ATOM      2  C   UNL     1      -5.360  -3.217  -1.186  0.00  0.00    +0.109 C 
ATOM      3  C   UNL     1      -4.541  -3.154  -2.450  0.00  0.00    +0.218 C 
ATOM      4  O   UNL     1      -5.052  -3.426  -3.515  0.00  0.00    -0.275 OA
ATOM      5  N   UNL     1      -3.247  -2.797  -2.398  0.00  0.00    -0.289 N 
ATOM      6  C   UNL     1      -2.649  -2.460  -1.210  0.00  0.00    +0.018 C 
ATOM      7  C   UNL     1      -3.192  -2.849  -0.037  0.00  0.00    +0.020 C 
ATOM      8  C   UNL     1      -2.601  -2.509   1.191  0.00  0.00    +0.162 C 
ATOM      9  O   UNL     1      -3.111  -2.888   2.226  0.00  0.00    -0.292 OA
ATOM     10  C   UNL     1      -1.344  -1.682   1.244  0.00  0.00    +0.088 C 
ATOM     11  C   UNL     1      -1.293  -0.775   0.010  0.00  0.00    +0.036 C 
ATOM     12  C   UNL     1      -1.377  -1.651  -1.243  0.00  0.00    +0.060 C 
ATOM     13  H   UNL     1      -2.725  -2.777  -3.216  0.00  0.00    +0.155 HD
ENDROOT
BRANCH   1  16
ATOM     14  C   UNL     1      -4.177  -7.371   0.644  0.00  0.00    +0.163 A 
ATOM     15  C   UNL     1      -4.486  -6.028   0.790  0.00  0.00    +0.053 A 
ATOM     16  C   UNL     1      -4.126  -5.124  -0.192  0.00  0.00    -0.035 A 
ATOM     17  C   UNL     1      -3.461  -5.557  -1.324  0.00  0.00    +0.023 A 
ATOM     18  C   UNL     1      -3.145  -6.895  -1.474  0.00  0.00    +0.063 A 
ATOM     19  C   UNL     1      -3.503  -7.806  -0.493  0.00  0.00    +0.173 A 
ATOM     20 BR   UNL     1      -2.229  -7.482  -3.021  0.00  0.00    -0.046 Br
BRANCH  19  21
ATOM     21  O   UNL     1      -3.197  -9.123  -0.641  0.00  0.00    -0.503 OA
ATOM     22  H   UNL     1      -3.881  -9.638  -1.090  0.00  0.00    +0.292 HD
ENDBRANCH  19  21
BRANCH  14  23
ATOM     23  O   UNL     1      -4.530  -8.261   1.609  0.00  0.00    -0.489 OA
BRANCH  23  25
ATOM     24  C   UNL     1      -5.531  -8.884   3.719  0.00  0.00    +0.048 C 
ATOM     25  C   UNL     1      -5.219  -7.742   2.749  0.00  0.00    +0.226 C 
ENDBRANCH  23  25
ENDBRANCH  14  23
ENDBRANCH   1  16
BRANCH  11  26
ATOM     26  C   UNL     1       0.002  -0.004   0.002  0.00  0.00    +0.002 A 
ATOM     27  C   UNL     1       1.208  -0.678  -0.013  0.00  0.00    +0.053 A 
ATOM     28  C   UNL     1       2.399   0.031  -0.021  0.00  0.00    +0.121 A 
ATOM     29  C   UNL     1       2.380   1.418  -0.013  0.00  0.00    +0.049 A 
ATOM     30  C   UNL     1       1.175   2.092   0.002  0.00  0.00    +0.049 A 
ATOM     31  C   UNL     1      -0.017   1.383   0.010  0.00  0.00    +0.124 A 
BRANCH  31  32
ATOM     32  O   UNL     1      -1.204   2.046   0.019  0.00  0.00    -0.495 OA
ATOM     33  C   UNL     1      -1.148   3.474   0.026  0.00  0.00    +0.277 C 
ENDBRANCH  31  32
BRANCH  28  34
ATOM     34  O   UNL     1       3.586  -0.633  -0.035  0.00  0.00    -0.495 OA
ATOM     35  C   UNL     1       4.774   0.162  -0.043  0.00  0.00    +0.277 C 
ENDBRANCH  28  34
ENDBRANCH  11  26
TORSDOF 7
