REMARK  Name = ZINC21346381
REMARK  9 active torsions:
REMARK  status: ('A' for Active; 'I' for Inactive)
REMARK    1  A    between atoms: C_1  and  C_2
REMARK    2  A    between atoms: C_7  and  C_35
REMARK    3  A    between atoms: C_10  and  C_12
REMARK    4  A    between atoms: C_12  and  O_13
REMARK    5  A    between atoms: O_13  and  C_14
REMARK    6  A    between atoms: C_17  and  C_20
REMARK    7  A    between atoms: N_22  and  C_23
REMARK    8  A    between atoms: C_28  and  C_29
REMARK    9  A    between atoms: C_29  and  C_31
REMARK                            x       y       z     vdW  Elec       q    Type
REMARK                         _______ _______ _______ _____ _____    ______ ____
ROOT
ATOM      1  C   UNL     1       3.966   0.683   4.601  0.00  0.00    +0.121 A 
ATOM      2  C   UNL     1       4.167  -0.645   4.958  0.00  0.00    +0.046 A 
ATOM      3  C   UNL     1       5.011  -0.960   5.999  0.00  0.00    +0.016 A 
ATOM      4  C   UNL     1       5.667   0.058   6.697  0.00  0.00    +0.037 A 
ATOM      5  C   UNL     1       5.462   1.392   6.335  0.00  0.00    +0.016 A 
ATOM      6  C   UNL     1       4.620   1.698   5.289  0.00  0.00    +0.046 A 
ENDROOT
BRANCH   4   7
ATOM      7  C   UNL     1       6.572  -0.275   7.813  0.00  0.00    +0.248 C 
ATOM      8  O   UNL     1       6.749  -1.437   8.127  0.00  0.00    -0.270 OA
ATOM      9  N   UNL     1       7.204   0.708   8.485  0.00  0.00    -0.281 N 
ATOM     10  H   UNL     1       7.003   1.636   8.288  0.00  0.00    +0.155 HD
BRANCH   9  11
ATOM     11  C   UNL     1       8.143   0.391   9.463  0.00  0.00    +0.048 A 
ATOM     12  C   UNL     1       8.839  -0.805   9.396  0.00  0.00    +0.073 A 
ATOM     13  C   UNL     1       9.774  -1.123  10.368  0.00  0.00    +0.168 A 
ATOM     14  C   UNL     1      10.021  -0.237  11.423  0.00  0.00    +0.167 A 
ATOM     15  C   UNL     1       9.336   0.956  11.501  0.00  0.00    +0.062 A 
ATOM     16  C   UNL     1       8.392   1.287  10.518  0.00  0.00    +0.042 A 
ATOM     17  O   UNL     1      10.976  -0.784  12.233  0.00  0.00    -0.453 OA
ATOM     18  C   UNL     1      11.012  -2.183  11.894  0.00  0.00    +0.466 C 
ATOM     19  O   UNL     1      10.574  -2.216  10.523  0.00  0.00    -0.453 OA
BRANCH  16  20
ATOM     20  C   UNL     1       7.666   2.556  10.594  0.00  0.00    +0.162 C 
ATOM     21  O   UNL     1       6.776   2.794   9.804  0.00  0.00    -0.292 OA
ATOM     22  C   UNL     1       8.024   3.567  11.652  0.00  0.00    +0.091 C 
ENDBRANCH  16  20
ENDBRANCH   9  11
ENDBRANCH   4   7
BRANCH   1  23
ATOM     23  O   UNL     1       3.133   0.990   3.575  0.00  0.00    -0.483 OA
BRANCH  23  24
ATOM     24  C   UNL     1       2.492  -0.102   2.911  0.00  0.00    +0.324 C 
BRANCH  24  32
ATOM     25  C   UNL     1       0.146   1.594  -0.119  0.00  0.00    +0.028 C 
ATOM     26  C   UNL     1       0.127   0.064  -0.104  0.00  0.00    +0.073 C 
ATOM     27  C   UNL     1      -1.317  -0.429   0.031  0.00  0.00    +0.022 C 
ATOM     28  C   UNL     1      -1.320  -1.952   0.186  0.00  0.00    +0.004 C 
ATOM     29  C   UNL     1      -0.557  -2.338   1.455  0.00  0.00    +0.022 C 
ATOM     30  C   UNL     1       0.895  -1.866   1.337  0.00  0.00    +0.073 C 
ATOM     31  N   UNL     1       0.905  -0.427   1.041  0.00  0.00    -0.293 N 
ATOM     32  C   UNL     1       1.613   0.427   1.807  0.00  0.00    +0.254 C 
ATOM     33  O   UNL     1       1.541   1.621   1.609  0.00  0.00    -0.272 OA
ATOM     34  C   UNL     1       1.591  -2.627   0.206  0.00  0.00    +0.028 C 
ENDBRANCH  24  32
ENDBRANCH  23  24
ENDBRANCH   1  23
TORSDOF 6
