REMARK  Name = ZINC22788307
REMARK  6 active torsions:
REMARK  status: ('A' for Active; 'I' for Inactive)
REMARK    1  A    between atoms: C_6  and  C_7
REMARK    2  A    between atoms: C_7  and  N_8
REMARK    3  A    between atoms: N_11  and  C_14
REMARK    4  A    between atoms: C_14  and  C_15
REMARK    5  A    between atoms: N_17  and  C_18
REMARK    6  A    between atoms: N_17  and  C_26
REMARK                            x       y       z     vdW  Elec       q    Type
REMARK                         _______ _______ _______ _____ _____    ______ ____
ROOT
ATOM      1  N   UNL     1      -0.898  -2.316  -2.216  0.00  0.00    -0.302 NA
ATOM      2  C   UNL     1      -1.323  -0.910  -2.271  0.00  0.00    +0.066 C 
ATOM      3  C   UNL     1      -2.067  -0.657  -3.584  0.00  0.00    -0.063 C 
ATOM      4  N   UNL     1      -3.236  -1.544  -3.663  0.00  0.00    +0.387 N 
ATOM      5  C   UNL     1      -2.794  -2.944  -3.631  0.00  0.00    -0.063 C 
ATOM      6  C   UNL     1      -2.055  -3.216  -2.319  0.00  0.00    +0.066 C 
ATOM      7  H   UNL     1      -3.846  -1.366  -2.880  0.00  0.00    -0.081 HD
ENDROOT
BRANCH   1   8
ATOM      8  C   UNL     1      -0.129  -2.586  -0.993  0.00  0.00    +0.119 C 
BRANCH   8  14
ATOM      9  C   UNL     1       1.240  -0.544  -0.524  0.00  0.00    +0.009 A 
ATOM     10  C   UNL     1       2.430   0.157  -0.565  0.00  0.00    +0.050 A 
ATOM     11  C   UNL     1       3.558  -0.422  -1.123  0.00  0.00    +0.166 A 
ATOM     12  C   UNL     1       3.489  -1.713  -1.642  0.00  0.00    +0.167 A 
ATOM     13  C   UNL     1       2.293  -2.410  -1.598  0.00  0.00    +0.054 A 
ATOM     14  C   UNL     1       1.171  -1.825  -1.040  0.00  0.00    -0.030 A 
ATOM     15  O   UNL     1       4.718  -2.054  -2.129  0.00  0.00    -0.453 OA
ATOM     16  C   UNL     1       5.432  -0.812  -2.272  0.00  0.00    +0.466 C 
ATOM     17  O   UNL     1       4.830   0.045  -1.284  0.00  0.00    -0.453 OA
ENDBRANCH   8  14
ENDBRANCH   1   8
BRANCH   4  18
ATOM     18  C   UNL     1      -3.960  -1.288  -4.915  0.00  0.00    +0.019 C 
BRANCH  18  19
ATOM     19  C   UNL     1      -5.225  -2.107  -4.941  0.00  0.00    +0.200 C 
ATOM     20  O   UNL     1      -5.692  -2.534  -3.906  0.00  0.00    -0.278 OA
ATOM     21  N   UNL     1      -5.836  -2.367  -6.114  0.00  0.00    -0.295 N 
BRANCH  21  22
ATOM     22  C   UNL     1      -5.216  -1.945  -7.372  0.00  0.00    +0.099 C 
ATOM     23  C   UNL     1      -4.953  -0.431  -7.329  0.00  0.00    +0.046 C 
ATOM     24  C   UNL     1      -4.023  -0.067  -8.522  0.00  0.00    +0.168 C 
ATOM     25  S   UNL     1      -2.853  -1.489  -8.484  0.00  0.00    -0.029 S 
ATOM     26  O   UNL     1      -2.651  -1.958  -9.810  0.00  0.00    -0.174 OA
ATOM     27  O   UNL     1      -1.729  -1.141  -7.687  0.00  0.00    -0.174 OA
ATOM     28  C   UNL     1      -3.882  -2.706  -7.568  0.00  0.00    +0.188 C 
ENDBRANCH  21  22
BRANCH  21  29
ATOM     29  C   UNL     1      -7.120  -3.071  -6.130  0.00  0.00    +0.076 C 
ATOM     30  C   UNL     1      -8.155  -2.262  -5.345  0.00  0.00    +0.022 C 
ATOM     31  C   UNL     1      -9.497  -2.998  -5.362  0.00  0.00    +0.002 C 
ATOM     32  C   UNL     1      -9.332  -4.376  -4.719  0.00  0.00    +0.000 C 
ATOM     33  C   UNL     1      -8.297  -5.184  -5.504  0.00  0.00    +0.002 C 
ATOM     34  C   UNL     1      -6.955  -4.449  -5.487  0.00  0.00    +0.022 C 
ENDBRANCH  21  29
ENDBRANCH  18  19
ENDBRANCH   4  18
TORSDOF 6
