REMARK  Name = ZINC09898735
REMARK  7 active torsions:
REMARK  status: ('A' for Active; 'I' for Inactive)
REMARK    1  A    between atoms: C_3  and  C_6
REMARK    2  A    between atoms: C_6  and  C_8
REMARK    3  A    between atoms: C_6  and  N_15
REMARK    4  A    between atoms: C_16  and  C_18
REMARK    5  A    between atoms: C_21  and  N_24
REMARK    6  A    between atoms: N_24  and  S_25
REMARK    7  A    between atoms: S_25  and  C_28
REMARK                            x       y       z     vdW  Elec       q    Type
REMARK                         _______ _______ _______ _____ _____    ______ ____
ROOT
ATOM      1  C   UNL     1       4.110  -1.931  -4.274  0.00  0.00    +0.037 A 
ATOM      2  C   UNL     1       3.456  -3.165  -4.348  0.00  0.00    +0.015 A 
ATOM      3  C   UNL     1       2.464  -3.472  -3.445  0.00  0.00    +0.025 A 
ATOM      4  C   UNL     1       2.112  -2.556  -2.457  0.00  0.00    +0.048 A 
ATOM      5  C   UNL     1       2.758  -1.325  -2.384  0.00  0.00    +0.025 A 
ATOM      6  C   UNL     1       3.754  -1.014  -3.281  0.00  0.00    +0.015 A 
ENDROOT
BRANCH   1   8
ATOM      7  N   UNL     1       5.804  -0.410  -5.166  0.00  0.00    -0.300 N 
ATOM      8  C   UNL     1       5.174  -1.599  -5.240  0.00  0.00    +0.245 C 
ATOM      9  O   UNL     1       5.483  -2.398  -6.103  0.00  0.00    -0.270 OA
ATOM     10  H   UNL     1       5.558   0.228  -4.478  0.00  0.00    +0.150 HD
BRANCH   7  11
ATOM     11  C   UNL     1       6.860  -0.080  -6.126  0.00  0.00    +0.140 C 
BRANCH  11  12
ATOM     12  C   UNL     1       6.972   1.417  -6.255  0.00  0.00    -0.022 A 
ATOM     13  C   UNL     1       6.855   2.218  -5.135  0.00  0.00    +0.008 A 
ATOM     14  C   UNL     1       6.963   3.591  -5.251  0.00  0.00    +0.038 A 
ATOM     15  C   UNL     1       7.176   4.165  -6.493  0.00  0.00    +0.123 A 
ATOM     16  C   UNL     1       7.287   3.362  -7.616  0.00  0.00    +0.038 A 
ATOM     17  C   UNL     1       7.185   1.990  -7.496  0.00  0.00    +0.008 A 
ATOM     18  F   UNL     1       7.275   5.507  -6.609  0.00  0.00    -0.205 F 
ENDBRANCH  11  12
BRANCH  11  21
ATOM     19  C   UNL     1      10.290  -1.680  -5.690  0.00  0.00    +0.008 A 
ATOM     20  C   UNL     1       9.161  -1.236  -6.353  0.00  0.00    +0.013 A 
ATOM     21  C   UNL     1       8.172  -0.641  -5.642  0.00  0.00    +0.014 A 
ATOM     22  S   UNL     1       8.831  -0.689  -3.983  0.00  0.00    -0.099 S 
ATOM     23  C   UNL     1      10.375  -1.506  -4.349  0.00  0.00    +0.045 A 
ENDBRANCH  11  21
ENDBRANCH   7  11
ENDBRANCH   1   8
BRANCH   4  24
ATOM     24  N   UNL     1       1.110  -2.869  -1.546  0.00  0.00    -0.216 N 
ATOM     25  H   UNL     1       0.238  -2.453  -1.622  0.00  0.00    +0.174 HD
BRANCH  24  26
ATOM     26  S   UNL     1       1.406  -3.955  -0.330  0.00  0.00    +0.072 S 
ATOM     27  O   UNL     1       1.970  -5.106  -0.943  0.00  0.00    -0.150 OA
ATOM     28  O   UNL     1       0.226  -4.012   0.459  0.00  0.00    -0.150 OA
BRANCH  26  29
ATOM     29  C   UNL     1       2.663  -3.262   0.692  0.00  0.00    +0.109 A 
ATOM     30  C   UNL     1       2.325  -2.377   1.698  0.00  0.00    +0.031 A 
ATOM     31  C   UNL     1       3.310  -1.832   2.501  0.00  0.00    +0.040 A 
ATOM     32  C   UNL     1       4.636  -2.174   2.296  0.00  0.00    +0.124 A 
ATOM     33  C   UNL     1       4.974  -3.061   1.287  0.00  0.00    +0.040 A 
ATOM     34  C   UNL     1       3.987  -3.604   0.486  0.00  0.00    +0.031 A 
ATOM     35  F   UNL     1       5.600  -1.643   3.079  0.00  0.00    -0.205 F 
ENDBRANCH  26  29
ENDBRANCH  24  26
ENDBRANCH   4  24
TORSDOF 7
