REMARK  Name = ZINC40737575
REMARK  10 active torsions:
REMARK  status: ('A' for Active; 'I' for Inactive)
REMARK    1  A    between atoms: C_1  and  C_2
REMARK    2  A    between atoms: C_2  and  O_3
REMARK    3  A    between atoms: O_3  and  C_4
REMARK    4  A    between atoms: C_6  and  C_20
REMARK    5  A    between atoms: C_9  and  O_10
REMARK    6  A    between atoms: O_10  and  C_11
REMARK    7  A    between atoms: C_11  and  C_12
REMARK    8  A    between atoms: C_20  and  N_21
REMARK    9  A    between atoms: N_21  and  C_22
REMARK   10  A    between atoms: C_22  and  C_23
REMARK                            x       y       z     vdW  Elec       q    Type
REMARK                         _______ _______ _______ _____ _____    ______ ____
ROOT
ATOM      1  C   UNL     1       0.777  -1.811  -1.336  0.00  0.00    +0.162 A 
ATOM      2  C   UNL     1       0.243  -2.669  -0.388  0.00  0.00    +0.051 A 
ATOM      3  C   UNL     1       0.352  -4.037  -0.555  0.00  0.00    -0.061 A 
ATOM      4  C   UNL     1       0.992  -4.552  -1.667  0.00  0.00    +0.005 A 
ATOM      5  C   UNL     1       1.526  -3.702  -2.616  0.00  0.00    +0.049 A 
ATOM      6  C   UNL     1       1.416  -2.330  -2.458  0.00  0.00    +0.162 A 
ENDROOT
BRANCH   1   7
ATOM      7  O   UNL     1       0.671  -0.465  -1.174  0.00  0.00    -0.489 OA
BRANCH   7   9
ATOM      8  C   UNL     1      -0.019   1.526   0.010  0.00  0.00    +0.048 C 
ATOM      9  C   UNL     1       0.002  -0.004   0.002  0.00  0.00    +0.226 C 
ENDBRANCH   7   9
ENDBRANCH   1   7
BRANCH   6  10
ATOM     10  O   UNL     1       1.936  -1.492  -3.394  0.00  0.00    -0.484 OA
BRANCH  10  11
ATOM     11  C   UNL     1       2.578  -2.095  -4.520  0.00  0.00    +0.264 C 
BRANCH  11  12
ATOM     12  C   UNL     1       3.088  -1.019  -5.443  0.00  0.00    -0.009 A 
ATOM     13  C   UNL     1       2.278  -0.532  -6.452  0.00  0.00    +0.008 A 
ATOM     14  C   UNL     1       2.745   0.454  -7.300  0.00  0.00    +0.022 A 
ATOM     15  C   UNL     1       4.024   0.956  -7.139  0.00  0.00    +0.059 A 
ATOM     16  C   UNL     1       4.835   0.469  -6.129  0.00  0.00    +0.060 A 
ATOM     17  C   UNL     1       4.365  -0.515  -5.278  0.00  0.00    +0.028 A 
ATOM     18 CL   UNL     1       6.441   1.097  -5.926  0.00  0.00    -0.082 Cl
ATOM     19 CL   UNL     1       4.611   2.195  -8.204  0.00  0.00    -0.082 Cl
ENDBRANCH  11  12
ENDBRANCH  10  11
ENDBRANCH   6  10
BRANCH   3  20
ATOM     20  C   UNL     1      -0.229  -4.969   0.477  0.00  0.00    -0.046 C 
BRANCH  20  21
ATOM     21  N   UNL     1      -1.621  -5.283   0.127  0.00  0.00    +0.384 N 
ATOM     22  H   UNL     1      -2.161  -4.431   0.100  0.00  0.00    -0.085 HD
ATOM     23  H   UNL     1      -1.647  -5.726  -0.779  0.00  0.00    -0.085 HD
BRANCH  21  24
ATOM     24  C   UNL     1      -2.187  -6.191   1.133  0.00  0.00    -0.046 C 
BRANCH  24  25
ATOM     25  C   UNL     1      -3.614  -6.513   0.773  0.00  0.00    -0.061 A 
ATOM     26  C   UNL     1      -4.641  -5.715   1.243  0.00  0.00    +0.005 A 
ATOM     27  C   UNL     1      -5.952  -6.006   0.915  0.00  0.00    +0.050 A 
ATOM     28  C   UNL     1      -6.240  -7.099   0.114  0.00  0.00    +0.166 A 
ATOM     29  C   UNL     1      -5.205  -7.903  -0.360  0.00  0.00    +0.166 A 
ATOM     30  C   UNL     1      -3.893  -7.602  -0.032  0.00  0.00    +0.051 A 
ATOM     31  O   UNL     1      -5.742  -8.903  -1.118  0.00  0.00    -0.453 OA
ATOM     32  C   UNL     1      -7.138  -8.943  -0.769  0.00  0.00    +0.466 C 
ATOM     33  O   UNL     1      -7.424  -7.596  -0.348  0.00  0.00    -0.453 OA
ENDBRANCH  24  25
ENDBRANCH  21  24
ENDBRANCH  20  21
ENDBRANCH   3  20
TORSDOF 9
