REMARK  Name = ZINC20869233
REMARK  9 active torsions:
REMARK  status: ('A' for Active; 'I' for Inactive)
REMARK    1  A    between atoms: C_1  and  C_2
REMARK    2  A    between atoms: C_2  and  N_3
REMARK    3  A    between atoms: N_6  and  C_9
REMARK    4  A    between atoms: C_10  and  S_24
REMARK    5  A    between atoms: C_12  and  S_14
REMARK    6  A    between atoms: S_14  and  C_17
REMARK    7  A    between atoms: C_20  and  C_23
REMARK    8  A    between atoms: S_24  and  C_27
REMARK    9  A    between atoms: C_30  and  C_33
REMARK                            x       y       z     vdW  Elec       q    Type
REMARK                         _______ _______ _______ _____ _____    ______ ____
ROOT
ATOM      1  C   UNL     1      -1.194   2.440   0.233  0.00  0.00    +0.116 A 
ATOM      2  C   UNL     1      -0.013   1.764   0.131  0.00  0.00    +0.212 A 
ATOM      3  N   UNL     1       1.097   2.429  -0.108  0.00  0.00    -0.201 NA
ATOM      4  C   UNL     1       1.100   3.737  -0.246  0.00  0.00    +0.224 A 
ATOM      5  S   UNL     1      -0.632   4.118  -0.023  0.00  0.00    -0.032 S 
ENDROOT
BRANCH   1   9
ATOM      6  N   UNL     1      -5.294   2.181   0.856  0.00  0.00    +0.382 N 
ATOM      7  C   UNL     1      -4.404   1.892   1.988  0.00  0.00    -0.060 C 
ATOM      8  C   UNL     1      -3.028   2.506   1.722  0.00  0.00    +0.087 C 
ATOM      9  N   UNL     1      -2.482   1.956   0.473  0.00  0.00    -0.325 N 
ATOM     10  C   UNL     1      -3.373   2.245  -0.660  0.00  0.00    +0.087 C 
ATOM     11  C   UNL     1      -4.749   1.631  -0.393  0.00  0.00    -0.060 C 
ATOM     12  H   UNL     1      -5.360   3.274   0.746  0.00  0.00    -0.082 HD
BRANCH   6  14
ATOM     13  C   UNL     1      -7.476   1.766  -0.176  0.00  0.00    -0.017 C 
ATOM     14  C   UNL     1      -6.649   1.673   1.108  0.00  0.00    -0.082 C 
ENDBRANCH   6  14
ENDBRANCH   1   9
BRANCH   4  15
ATOM     15  S   UNL     1       2.450   4.823  -0.564  0.00  0.00    +0.049 S 
ATOM     16  O   UNL     1       2.065   6.103  -0.080  0.00  0.00    -0.162 OA
ATOM     17  O   UNL     1       3.622   4.159  -0.112  0.00  0.00    -0.162 OA
BRANCH  15  18
ATOM     18  C   UNL     1       2.599   4.971  -2.313  0.00  0.00    +0.096 A 
ATOM     19  C   UNL     1       3.410   4.098  -3.014  0.00  0.00    +0.028 A 
ATOM     20  C   UNL     1       3.523   4.212  -4.388  0.00  0.00    +0.005 A 
ATOM     21  C   UNL     1       2.832   5.203  -5.059  0.00  0.00    -0.050 A 
ATOM     22  C   UNL     1       2.025   6.079  -4.357  0.00  0.00    +0.005 A 
ATOM     23  C   UNL     1       1.909   5.963  -2.985  0.00  0.00    +0.028 A 
ATOM     24  C   UNL     1       2.959   5.329  -6.555  0.00  0.00    +0.044 C 
ENDBRANCH  15  18
ENDBRANCH   4  15
BRANCH   2  25
ATOM     25  S   UNL     1       0.024   0.011   0.309  0.00  0.00    +0.044 S 
ATOM     26  O   UNL     1      -1.241  -0.468  -0.127  0.00  0.00    -0.163 OA
ATOM     27  O   UNL     1       1.245  -0.430  -0.268  0.00  0.00    -0.163 OA
BRANCH  25  28
ATOM     28  C   UNL     1       0.127  -0.335   2.033  0.00  0.00    +0.095 A 
ATOM     29  C   UNL     1       1.362  -0.458   2.641  0.00  0.00    +0.028 A 
ATOM     30  C   UNL     1       1.443  -0.726   3.995  0.00  0.00    +0.005 A 
ATOM     31  C   UNL     1       0.289  -0.879   4.739  0.00  0.00    -0.050 A 
ATOM     32  C   UNL     1      -0.947  -0.761   4.131  0.00  0.00    +0.005 A 
ATOM     33  C   UNL     1      -1.028  -0.490   2.778  0.00  0.00    +0.028 A 
ATOM     34  C   UNL     1       0.377  -1.175   6.214  0.00  0.00    +0.044 C 
ENDBRANCH  25  28
ENDBRANCH   2  25
TORSDOF 6
