REMARK  Name = ZINC54237903
REMARK  2 active torsions:
REMARK  status: ('A' for Active; 'I' for Inactive)
REMARK    1  A    between atoms: N_4  and  C_10
REMARK    2  A    between atoms: C_5  and  C_8
REMARK                            x       y       z     vdW  Elec       q    Type
REMARK                         _______ _______ _______ _____ _____    ______ ____
ROOT
ATOM      1  C   UNL     1       0.172   1.478  -0.159  0.00  0.00    -0.003 C 
ATOM      2  C   UNL     1       1.633   1.936  -0.170  0.00  0.00    -0.019 C 
ATOM      3  C   UNL     1       2.305   1.511   1.138  0.00  0.00    -0.077 C 
ATOM      4  N   UNL     1       2.249   0.050   1.268  0.00  0.00    +0.388 N 
ATOM      5  C   UNL     1       0.851  -0.390   1.351  0.00  0.00    -0.004 C 
ATOM      6  C   UNL     1       0.124  -0.038   0.052  0.00  0.00    -0.008 C 
ATOM      7  H   UNL     1       2.687  -0.376   0.465  0.00  0.00    -0.080 HD
ENDROOT
BRANCH   4   8
ATOM      8  C   UNL     1       2.962  -0.359   2.486  0.00  0.00    -0.068 C 
ATOM      9  C   UNL     1       2.329   0.314   3.721  0.00  0.00    -0.015 C 
ATOM     10  C   UNL     1       3.535   0.637   4.637  0.00  0.00    -0.002 C 
ATOM     11  C   UNL     1       4.628   1.065   3.626  0.00  0.00    -0.002 C 
ATOM     12  C   UNL     1       4.424   0.118   2.425  0.00  0.00    -0.015 C 
ENDBRANCH   4   8
BRANCH   5  13
ATOM     13  C   UNL     1       0.806  -1.881   1.563  0.00  0.00    +0.208 C 
ATOM     14  O   UNL     1       0.220  -2.338   2.515  0.00  0.00    -0.303 OA
ENDBRANCH   5  13
TORSDOF 2
