REMARK  Name = ZINC20028777
REMARK  15 active torsions:
REMARK  status: ('A' for Active; 'I' for Inactive)
REMARK    1  A    between atoms: C_1  and  C_2
REMARK    2  A    between atoms: C_2  and  C_3
REMARK    3  A    between atoms: C_8  and  N_9
REMARK    4  A    between atoms: C_10  and  C_12
REMARK    5  A    between atoms: C_12  and  S_13
REMARK    6  A    between atoms: S_13  and  C_14
REMARK    7  A    between atoms: C_15  and  C_36
REMARK    8  A    between atoms: C_16  and  C_29
REMARK    9  A    between atoms: C_18  and  C_22
REMARK   10  A    between atoms: C_19  and  C_21
REMARK   11  A    between atoms: C_22  and  O_24
REMARK   12  A    between atoms: O_24  and  C_25
REMARK   13  A    between atoms: C_25  and  C_26
REMARK   14  A    between atoms: C_25  and  C_27
REMARK   15  A    between atoms: C_25  and  C_28
REMARK                            x       y       z     vdW  Elec       q    Type
REMARK                         _______ _______ _______ _____ _____    ______ ____
ROOT
ATOM      1  C   UNL     1      -5.078   2.293  -1.185  0.00  0.00    +0.080 C 
ATOM      2  C   UNL     1      -4.070   3.186  -0.997  0.00  0.00    +0.069 C 
ATOM      3  C   UNL     1      -3.482   3.425   0.364  0.00  0.00    +0.100 C 
ATOM      4  C   UNL     1      -4.382   2.883   1.437  0.00  0.00    +0.066 C 
ATOM      5  C   UNL     1      -5.366   2.010   1.160  0.00  0.00    +0.016 C 
ATOM      6  N   UNL     1      -5.591   1.585  -0.120  0.00  0.00    -0.312 N 
ATOM      7  C   UNL     1      -6.233   1.491   2.277  0.00  0.00    +0.061 C 
ATOM      8  H   UNL     1      -6.183   0.676  -0.298  0.00  0.00    +0.152 HD
ENDROOT
BRANCH   3   9
ATOM      9  C   UNL     1      -2.141   2.743   0.452  0.00  0.00    -0.035 A 
ATOM     10  C   UNL     1      -2.050   1.373   0.287  0.00  0.00    +0.006 A 
ATOM     11  C   UNL     1      -0.822   0.746   0.372  0.00  0.00    +0.020 A 
ATOM     12  C   UNL     1       0.320   1.491   0.611  0.00  0.00    +0.041 A 
ATOM     13  C   UNL     1       0.229   2.862   0.770  0.00  0.00    +0.020 A 
ATOM     14  C   UNL     1      -1.001   3.487   0.691  0.00  0.00    +0.006 A 
ATOM     15 CL   UNL     1       1.864   0.705   0.712  0.00  0.00    -0.084 Cl
ENDBRANCH   3   9
BRANCH   4  16
ATOM     16  C   UNL     1      -4.191   3.303   2.773  0.00  0.00    +0.338 C 
ATOM     17  O   UNL     1      -4.972   2.954   3.639  0.00  0.00    -0.245 OA
BRANCH  16  18
ATOM     18  O   UNL     1      -3.141   4.090   3.089  0.00  0.00    -0.456 OA
BRANCH  18  19
ATOM     19  C   UNL     1      -3.009   4.476   4.459  0.00  0.00    +0.106 C 
ATOM     20  C   UNL     1      -2.862   3.226   5.329  0.00  0.00    +0.055 C 
ATOM     21  C   UNL     1      -1.770   5.359   4.623  0.00  0.00    +0.055 C 
ATOM     22  C   UNL     1      -4.252   5.255   4.892  0.00  0.00    +0.055 C 
ENDBRANCH  18  19
ENDBRANCH  16  18
ENDBRANCH   4  16
BRANCH   2  23
ATOM     23  C   UNL     1      -3.561   3.913  -2.120  0.00  0.00    +0.098 C 
ATOM     24  N   UNL     1      -3.156   4.490  -3.011  0.00  0.00    -0.191 NA
ENDBRANCH   2  23
BRANCH   1  25
ATOM     25  S   UNL     1      -5.731   2.037  -2.801  0.00  0.00    -0.100 S 
BRANCH  25  26
ATOM     26  C   UNL     1      -6.991   0.789  -2.436  0.00  0.00    +0.171 C 
BRANCH  26  28
ATOM     27  N   UNL     1      -8.685  -0.515  -3.680  0.00  0.00    -0.285 N 
ATOM     28  C   UNL     1      -7.701   0.405  -3.709  0.00  0.00    +0.227 C 
ATOM     29  O   UNL     1      -7.387   0.925  -4.759  0.00  0.00    -0.275 OA
ATOM     30  H   UNL     1      -9.019  -0.933  -2.719  0.00  0.00    +0.155 HD
BRANCH  27  36
ATOM     31  C   UNL     1      -9.702  -2.254  -5.013  0.00  0.00    -0.026 A 
ATOM     32  C   UNL     1     -10.296  -2.666  -6.189  0.00  0.00    +0.005 A 
ATOM     33  C   UNL     1     -10.465  -1.773  -7.231  0.00  0.00    +0.000 A 
ATOM     34  C   UNL     1     -10.044  -0.462  -7.097  0.00  0.00    +0.002 A 
ATOM     35  C   UNL     1      -9.454  -0.042  -5.921  0.00  0.00    +0.023 A 
ATOM     36  C   UNL     1      -9.283  -0.937  -4.873  0.00  0.00    +0.037 A 
BRANCH  31  38
ATOM     37  C   UNL     1     -10.687  -3.115  -2.907  0.00  0.00    +0.009 C 
ATOM     38  C   UNL     1      -9.513  -3.230  -3.881  0.00  0.00    +0.033 C 
ENDBRANCH  31  38
ENDBRANCH  27  36
ENDBRANCH  26  28
ENDBRANCH  25  26
ENDBRANCH   1  25
TORSDOF 10
