REMARK  Name = ZINC25047164
REMARK  9 active torsions:
REMARK  status: ('A' for Active; 'I' for Inactive)
REMARK    1  A    between atoms: C_4  and  C_7
REMARK    2  A    between atoms: C_10  and  O_13
REMARK    3  A    between atoms: O_13  and  C_14
REMARK    4  A    between atoms: C_14  and  C_15
REMARK    5  A    between atoms: C_15  and  C_17
REMARK    6  A    between atoms: C_15  and  O_36
REMARK    7  A    between atoms: C_17  and  N_18
REMARK    8  A    between atoms: N_21  and  C_24
REMARK    9  A    between atoms: C_24  and  C_25
REMARK                            x       y       z     vdW  Elec       q    Type
REMARK                         _______ _______ _______ _____ _____    ______ ____
ROOT
ATOM      1  N   UNL     1       9.837  -7.074   0.130  0.00  0.00    -0.297 NA
ATOM      2  C   UNL     1      10.614  -6.491  -0.973  0.00  0.00    +0.100 C 
ATOM      3  C   UNL     1      12.102  -6.760  -0.742  0.00  0.00    +0.100 C 
ATOM      4  N   UNL     1      12.328  -8.209  -0.651  0.00  0.00    -0.294 NA
ATOM      5  C   UNL     1      11.551  -8.792   0.452  0.00  0.00    +0.100 C 
ATOM      6  C   UNL     1      10.062  -8.523   0.221  0.00  0.00    +0.100 C 
ENDROOT
BRANCH   1   7
ATOM      7  C   UNL     1       8.407  -6.771  -0.016  0.00  0.00    +0.119 C 
BRANCH   7   8
ATOM      8  C   UNL     1       7.709  -6.938   1.336  0.00  0.00    +0.166 C 
BRANCH   8   9
ATOM      9  O   UNL     1       8.229  -5.980   2.261  0.00  0.00    -0.387 OA
ATOM     10  H   UNL     1       8.104  -5.061   1.987  0.00  0.00    +0.210 HD
ENDBRANCH   8   9
BRANCH   8  11
ATOM     11  C   UNL     1       6.205  -6.718   1.164  0.00  0.00    +0.261 C 
BRANCH  11  12
ATOM     12  O   UNL     1       5.540  -6.987   2.400  0.00  0.00    -0.489 OA
BRANCH  12  16
ATOM     13  C   UNL     1       1.437  -6.532   2.459  0.00  0.00    -0.018 A 
ATOM     14  C   UNL     1       2.112  -6.932   3.611  0.00  0.00    +0.012 A 
ATOM     15  C   UNL     1       3.482  -7.083   3.588  0.00  0.00    +0.046 A 
ATOM     16  C   UNL     1       4.190  -6.838   2.420  0.00  0.00    +0.121 A 
ATOM     17  C   UNL     1       3.520  -6.439   1.270  0.00  0.00    +0.046 A 
ATOM     18  C   UNL     1       2.149  -6.291   1.286  0.00  0.00    +0.012 A 
BRANCH  13  22
ATOM     19  C   UNL     1      -2.789  -6.062   2.520  0.00  0.00    +0.000 A 
ATOM     20  C   UNL     1      -2.122  -6.454   3.667  0.00  0.00    +0.001 A 
ATOM     21  C   UNL     1      -0.751  -6.608   3.653  0.00  0.00    +0.008 A 
ATOM     22  C   UNL     1      -0.037  -6.368   2.481  0.00  0.00    -0.018 A 
ATOM     23  C   UNL     1      -0.714  -5.974   1.328  0.00  0.00    +0.008 A 
ATOM     24  C   UNL     1      -2.086  -5.823   1.353  0.00  0.00    +0.001 A 
ENDBRANCH  13  22
ENDBRANCH  12  16
ENDBRANCH  11  12
ENDBRANCH   8  11
ENDBRANCH   7   8
ENDBRANCH   1   7
BRANCH   4  25
ATOM     25  C   UNL     1      13.758  -8.511  -0.505  0.00  0.00    +0.137 C 
BRANCH  25  26
ATOM     26  C   UNL     1      14.447  -8.333  -1.833  0.00  0.00    +0.037 A 
ATOM     27  C   UNL     1      15.403  -7.348  -1.988  0.00  0.00    +0.093 A 
ATOM     28  C   UNL     1      16.029  -7.202  -3.231  0.00  0.00    +0.258 A 
ATOM     29  O   UNL     1      16.878  -6.341  -3.400  0.00  0.00    -0.267 OA
ATOM     30  N   UNL     1      15.681  -8.028  -4.240  0.00  0.00    -0.270 N 
ATOM     31  C   UNL     1      16.281  -7.899  -5.455  0.00  0.00    +0.096 A 
ATOM     32  C   UNL     1      15.949  -8.714  -6.481  0.00  0.00    +0.018 A 
ATOM     33  C   UNL     1      14.976  -9.708  -6.304  0.00  0.00    +0.005 A 
ATOM     34  C   UNL     1      14.369  -9.846  -5.091  0.00  0.00    +0.045 A 
ATOM     35  C   UNL     1      14.729  -8.988  -4.036  0.00  0.00    +0.118 A 
ATOM     36  N   UNL     1      14.140  -9.125  -2.849  0.00  0.00    -0.343 N 
ATOM     37  H   UNL     1      13.471  -9.816  -2.727  0.00  0.00    +0.167 HD
ENDBRANCH  25  26
ENDBRANCH   4  25
TORSDOF 9
