REMARK  Name = ZINC08387212
REMARK  6 active torsions:
REMARK  status: ('A' for Active; 'I' for Inactive)
REMARK    1  A    between atoms: C_4  and  N_29
REMARK    2  A    between atoms: C_5  and  N_7
REMARK    3  A    between atoms: N_7  and  C_8
REMARK    4  A    between atoms: C_9  and  C_10
REMARK    5  A    between atoms: C_9  and  C_12
REMARK    6  A    between atoms: C_14  and  C_17
REMARK                            x       y       z     vdW  Elec       q    Type
REMARK                         _______ _______ _______ _____ _____    ______ ____
ROOT
ATOM      1  C   UNL     1      -1.162  -4.752   1.081  0.00  0.00    +0.120 A 
ATOM      2  N   UNL     1      -1.353  -6.051   1.337  0.00  0.00    -0.238 NA
ATOM      3  C   UNL     1      -2.567  -6.509   1.452  0.00  0.00    +0.086 A 
ATOM      4  C   UNL     1      -3.663  -5.532   1.287  0.00  0.00    +0.075 A 
ATOM      5  S   UNL     1      -2.820  -4.103   0.999  0.00  0.00    -0.074 S 
ENDROOT
BRANCH   3   6
ATOM      6  C   UNL     1      -2.832  -7.923   1.730  0.00  0.00    +0.086 A 
ATOM      7  C   UNL     1      -1.790  -8.842   1.891  0.00  0.00    +0.028 A 
ATOM      8  C   UNL     1      -2.127 -10.194   2.127  0.00  0.00    +0.019 A 
ATOM      9  C   UNL     1      -1.137 -11.122   2.494  0.00  0.00    +0.026 A 
ATOM     10  C   UNL     1      -1.485 -12.414   2.760  0.00  0.00    +0.019 A 
ATOM     11  C   UNL     1      -2.810 -12.824   2.664  0.00  0.00    +0.019 A 
ATOM     12  C   UNL     1      -3.796 -11.935   2.286  0.00  0.00    +0.048 A 
ATOM     13  C   UNL     1      -3.467 -10.617   2.003  0.00  0.00    +0.139 A 
ATOM     14  O   UNL     1      -4.421  -9.749   1.589  0.00  0.00    -0.422 OA
ATOM     15  C   UNL     1      -4.214  -8.437   1.859  0.00  0.00    +0.347 A 
ATOM     16  O   UNL     1      -5.129  -7.708   2.191  0.00  0.00    -0.244 OA
ATOM     17 BR   UNL     1      -0.153 -13.659   3.263  0.00  0.00    -0.050 Br
ENDBRANCH   3   6
BRANCH   1  19
ATOM     18  C   UNL     1       0.048  -2.679   0.661  0.00  0.00    +0.093 C 
ATOM     19  C   UNL     1       0.052  -4.064   0.923  0.00  0.00    +0.098 C 
BRANCH  18  20
ATOM     20  N   UNL     1       1.202  -2.025   0.510  0.00  0.00    -0.318 N 
ATOM     21  H   UNL     1       2.043  -2.503   0.581  0.00  0.00    +0.152 HD
BRANCH  20  26
ATOM     22  C   UNL     1       0.004   1.411   0.025  0.00  0.00    +0.002 A 
ATOM     23  C   UNL     1       1.191   2.062  -0.262  0.00  0.00    +0.002 A 
ATOM     24  C   UNL     1       2.381   1.358  -0.293  0.00  0.00    +0.034 A 
ATOM     25  C   UNL     1       2.389   0.001  -0.037  0.00  0.00    +0.147 A 
ATOM     26  C   UNL     1       1.198  -0.658   0.252  0.00  0.00    +0.062 A 
ATOM     27  C   UNL     1       0.003   0.055   0.282  0.00  0.00    +0.025 A 
BRANCH  25  28
ATOM     28  N   UNL     1       3.663  -0.752  -0.071  0.00  0.00    +0.058 N 
ATOM     29  O   UNL     1       4.769  -0.195   0.377  0.00  0.00    -0.126 OA
ATOM     30  O   UNL     1       3.691  -1.979  -0.549  0.00  0.00    -0.126 OA
ENDBRANCH  25  28
ENDBRANCH  20  26
ENDBRANCH  18  20
BRANCH  19  31
ATOM     31  C   UNL     1       1.293  -4.770   1.026  0.00  0.00    +0.103 C 
ATOM     32  N   UNL     1       2.278  -5.330   1.108  0.00  0.00    -0.191 NA
ENDBRANCH  19  31
ENDBRANCH   1  19
TORSDOF 6
