REMARK  Name = ZINC63778004
REMARK  8 active torsions:
REMARK  status: ('A' for Active; 'I' for Inactive)
REMARK    1  A    between atoms: C_1  and  C_2
REMARK    2  A    between atoms: C_2  and  C_3
REMARK    3  A    between atoms: C_6  and  N_9
REMARK    4  A    between atoms: C_10  and  C_12
REMARK    5  A    between atoms: C_12  and  S_13
REMARK    6  A    between atoms: S_13  and  C_14
REMARK    7  A    between atoms: N_24  and  C_25
REMARK    8  A    between atoms: C_28  and  C_31
REMARK                            x       y       z     vdW  Elec       q    Type
REMARK                         _______ _______ _______ _____ _____    ______ ____
ROOT
ATOM      1  C   UNL     1       2.724  -3.015   9.805  0.00  0.00    +0.258 C 
ATOM      2  N   UNL     1       3.423  -4.271   9.511  0.00  0.00    -0.242 NA
ATOM      3  C   UNL     1       4.694  -4.056   9.544  0.00  0.00    +0.165 C 
ATOM      4  C   UNL     1       4.959  -2.630   9.864  0.00  0.00    +0.160 C 
ATOM      5  N   UNL     1       6.218  -2.236   9.938  0.00  0.00    -0.221 NA
ATOM      6  C   UNL     1       7.223  -3.072   9.736  0.00  0.00    +0.213 C 
ATOM      7  N   UNL     1       7.094  -4.344   9.449  0.00  0.00    -0.163 NA
ATOM      8  C   UNL     1       5.888  -4.924   9.332  0.00  0.00    +0.290 C 
ATOM      9  O   UNL     1       5.775  -6.107   9.066  0.00  0.00    -0.266 OA
ATOM     10  N   UNL     1       3.763  -1.998  10.024  0.00  0.00    -0.252 N 
ENDROOT
BRANCH  10  11
ATOM     11  C   UNL     1       3.562  -0.651  10.333  0.00  0.00    +0.038 A 
ATOM     12  C   UNL     1       2.272  -0.152  10.468  0.00  0.00    +0.024 A 
ATOM     13  C   UNL     1       2.078   1.180  10.774  0.00  0.00    +0.005 A 
ATOM     14  C   UNL     1       3.165   2.018  10.944  0.00  0.00    -0.050 A 
ATOM     15  C   UNL     1       4.450   1.525  10.810  0.00  0.00    +0.005 A 
ATOM     16  C   UNL     1       4.652   0.192  10.511  0.00  0.00    +0.024 A 
ATOM     17  C   UNL     1       2.949   3.472  11.277  0.00  0.00    +0.044 C 
ENDBRANCH  10  11
BRANCH   1  18
ATOM     18  S   UNL     1       1.677  -2.542   8.401  0.00  0.00    -0.106 S 
BRANCH  18  19
ATOM     19  C   UNL     1       2.836  -2.423   7.010  0.00  0.00    +0.168 C 
BRANCH  19  21
ATOM     20  N   UNL     1       2.746  -1.883   4.598  0.00  0.00    -0.285 N 
ATOM     21  C   UNL     1       2.085  -2.032   5.763  0.00  0.00    +0.227 C 
ATOM     22  O   UNL     1       0.887  -1.852   5.809  0.00  0.00    -0.275 OA
ATOM     23  H   UNL     1       3.689  -2.102   4.544  0.00  0.00    +0.155 HD
BRANCH  20  27
ATOM     24  C   UNL     1       0.736  -0.485   1.228  0.00  0.00    -0.048 A 
ATOM     25  C   UNL     1       0.375  -0.033   2.483  0.00  0.00    +0.005 A 
ATOM     26  C   UNL     1       1.039  -0.494   3.603  0.00  0.00    +0.023 A 
ATOM     27  C   UNL     1       2.071  -1.414   3.466  0.00  0.00    +0.033 A 
ATOM     28  C   UNL     1       2.431  -1.866   2.204  0.00  0.00    +0.023 A 
ATOM     29  C   UNL     1       1.759  -1.404   1.089  0.00  0.00    +0.005 A 
BRANCH  24  31
ATOM     30  C   UNL     1      -1.189  -0.885  -0.284  0.00  0.00    +0.009 C 
ATOM     31  C   UNL     1       0.009   0.021   0.008  0.00  0.00    +0.032 C 
ENDBRANCH  24  31
ENDBRANCH  20  27
ENDBRANCH  19  21
ENDBRANCH  18  19
ENDBRANCH   1  18
TORSDOF 6
