REMARK  Name = ZINC01022142
REMARK  6 active torsions:
REMARK  status: ('A' for Active; 'I' for Inactive)
REMARK    1  A    between atoms: C_4  and  C_7
REMARK    2  A    between atoms: C_7  and  C_9
REMARK    3  A    between atoms: C_9  and  O_10
REMARK    4  A    between atoms: O_10  and  C_11
REMARK    5  A    between atoms: C_11  and  C_13
REMARK    6  A    between atoms: C_16  and  N_20
REMARK                            x       y       z     vdW  Elec       q    Type
REMARK                         _______ _______ _______ _____ _____    ______ ____
ROOT
ATOM      1  C   UNL     1       2.476   1.075  -0.016  0.00  0.00    +0.340 C 
ATOM      2  O   UNL     1       2.495  -0.140  -0.024  0.00  0.00    -0.245 OA
ENDROOT
BRANCH   1   3
ATOM      3  C   UNL     1       1.188   1.792   0.000  0.00  0.00    +0.061 A 
ATOM      4  C   UNL     1      -0.013   1.076   0.008  0.00  0.00    +0.032 A 
ATOM      5  C   UNL     1      -1.214   1.749   0.017  0.00  0.00    +0.040 A 
ATOM      6  C   UNL     1      -1.233   3.141   0.031  0.00  0.00    +0.053 A 
ATOM      7  C   UNL     1      -0.039   3.857   0.023  0.00  0.00    +0.040 A 
ATOM      8  C   UNL     1       1.165   3.191   0.008  0.00  0.00    +0.032 A 
ATOM      9 BR   UNL     1      -0.071   5.748   0.034  0.00  0.00    -0.048 Br
ATOM     10 BR   UNL     1      -2.838   0.781   0.020  0.00  0.00    -0.048 Br
BRANCH   6  11
ATOM     11  N   UNL     1      -2.449   3.818   0.046  0.00  0.00    -0.356 N 
ATOM     12  H   UNL     1      -2.463   4.788   0.051  0.00  0.00    +0.142 HD
ATOM     13  H   UNL     1      -3.281   3.320   0.051  0.00  0.00    +0.142 HD
ENDBRANCH   6  11
ENDBRANCH   1   3
BRANCH   1  14
ATOM     14  O   UNL     1       3.632   1.767  -0.024  0.00  0.00    -0.453 OA
BRANCH  14  15
ATOM     15  C   UNL     1       4.862   0.995  -0.040  0.00  0.00    +0.311 C 
BRANCH  15  16
ATOM     16  C   UNL     1       6.043   1.931  -0.046  0.00  0.00    +0.200 C 
ATOM     17  O   UNL     1       5.866   3.131  -0.038  0.00  0.00    -0.288 OA
BRANCH  16  21
ATOM     18  C   UNL     1       9.987   0.370  -0.094  0.00  0.00    +0.000 A 
ATOM     19  C   UNL     1       9.789   1.740  -0.084  0.00  0.00    +0.001 A 
ATOM     20  C   UNL     1       8.510   2.255  -0.069  0.00  0.00    +0.011 A 
ATOM     21  C   UNL     1       7.411   1.390  -0.063  0.00  0.00    +0.021 A 
ATOM     22  C   UNL     1       7.620   0.007  -0.067  0.00  0.00    +0.011 A 
ATOM     23  C   UNL     1       8.905  -0.493  -0.089  0.00  0.00    +0.001 A 
ENDBRANCH  16  21
ENDBRANCH  15  16
ENDBRANCH  14  15
ENDBRANCH   1  14
TORSDOF 6
