REMARK  Name = ZINC44963427
REMARK  10 active torsions:
REMARK  status: ('A' for Active; 'I' for Inactive)
REMARK    1  A    between atoms: C_1  and  C_2
REMARK    2  A    between atoms: C_2  and  C_3
REMARK    3  A    between atoms: C_3  and  C_4
REMARK    4  A    between atoms: C_15  and  O_39
REMARK    5  A    between atoms: C_23  and  C_38
REMARK    6  A    between atoms: C_26  and  O_37
REMARK    7  A    between atoms: C_29  and  C_36
REMARK    8  A    between atoms: C_30  and  C_32
REMARK    9  A    between atoms: C_32  and  C_34
REMARK   10  A    between atoms: C_34  and  O_35
REMARK                            x       y       z     vdW  Elec       q    Type
REMARK                         _______ _______ _______ _____ _____    ______ ____
ROOT
ATOM      1  C   UNL     1      -1.425  -2.111   0.001  0.00  0.00    +0.252 C 
ATOM      2  O   UNL     1      -0.877  -2.428  -1.287  0.00  0.00    -0.345 OA
ATOM      3  C   UNL     1      -1.570  -3.582  -1.784  0.00  0.00    +0.161 C 
ATOM      4  C   UNL     1      -2.470  -3.156  -2.973  0.00  0.00    +0.039 C 
ATOM      5  C   UNL     1      -3.634  -4.156  -2.867  0.00  0.00    +0.004 C 
ATOM      6  C   UNL     1      -4.798  -3.845  -3.748  0.00  0.00    +0.002 C 
ATOM      7  C   UNL     1      -4.406  -3.547  -5.178  0.00  0.00    +0.040 C 
ATOM      8  C   UNL     1      -4.106  -2.101  -5.472  0.00  0.00    +0.142 C 
ATOM      9  C   UNL     1      -4.532  -1.134  -4.408  0.00  0.00    -0.028 C 
ATOM     10  C   UNL     1      -3.948   0.080  -4.420  0.00  0.00    +0.053 C 
ATOM     11  C   UNL     1      -4.327   1.071  -3.389  0.00  0.00    +0.179 C 
ATOM     12  O   UNL     1      -4.155   2.273  -3.572  0.00  0.00    -0.288 OA
ATOM     13  C   UNL     1      -4.919   0.560  -2.134  0.00  0.00    +0.047 C 
ATOM     14  C   UNL     1      -5.490  -0.655  -2.137  0.00  0.00    -0.012 C 
ATOM     15  C   UNL     1      -5.572  -1.453  -3.395  0.00  0.00    +0.015 C 
ATOM     16  C   UNL     1      -5.842  -2.918  -3.199  0.00  0.00    +0.035 C 
ATOM     17  C   UNL     1      -6.201  -3.268  -1.760  0.00  0.00    +0.120 C 
ATOM     18  C   UNL     1      -4.956  -3.296  -0.887  0.00  0.00    +0.042 C 
ATOM     19  C   UNL     1      -3.914  -4.293  -1.375  0.00  0.00    +0.012 C 
ATOM     20  C   UNL     1      -2.576  -3.962  -0.665  0.00  0.00    +0.164 C 
ATOM     21  O   UNL     1      -2.724  -2.728   0.067  0.00  0.00    -0.334 OA
ATOM     22  C   UNL     1      -4.319  -5.732  -1.037  0.00  0.00    +0.015 C 
ATOM     23  C   UNL     1      -6.871  -0.950  -4.053  0.00  0.00    +0.020 C 
ENDROOT
BRANCH  20  24
ATOM     24  C   UNL     1      -2.088  -5.100   0.194  0.00  0.00    +0.193 C 
ATOM     25  O   UNL     1      -1.364  -5.944  -0.276  0.00  0.00    -0.292 OA
BRANCH  24  26
ATOM     26  C   UNL     1      -2.504  -5.184   1.640  0.00  0.00    +0.233 C 
BRANCH  26  27
ATOM     27  O   UNL     1      -1.917  -6.342   2.238  0.00  0.00    -0.387 OA
ATOM     28  H   UNL     1      -2.142  -6.460   3.171  0.00  0.00    +0.210 HD
ENDBRANCH  26  27
ENDBRANCH  24  26
ENDBRANCH  20  24
BRANCH  17  29
ATOM     29  O   UNL     1      -6.883  -4.524  -1.718  0.00  0.00    -0.391 OA
ATOM     30  H   UNL     1      -7.140  -4.803  -0.828  0.00  0.00    +0.210 HD
ENDBRANCH  17  29
BRANCH   8  31
ATOM     31  O   UNL     1      -2.703  -1.945  -5.700  0.00  0.00    -0.387 OA
ATOM     32  H   UNL     1      -2.435  -1.037  -5.896  0.00  0.00    +0.210 HD
ENDBRANCH   8  31
BRANCH   1  33
ATOM     33  C   UNL     1      -1.557  -0.593   0.156  0.00  0.00    +0.061 C 
BRANCH  33  35
ATOM     34  C   UNL     1      -0.296   1.556   0.345  0.00  0.00    +0.004 C 
ATOM     35  C   UNL     1      -0.164   0.040   0.190  0.00  0.00    +0.002 C 
ENDBRANCH  33  35
ENDBRANCH   1  33
TORSDOF 7
