REMARK  Name = ZINC33937051
REMARK  12 active torsions:
REMARK  status: ('A' for Active; 'I' for Inactive)
REMARK    1  A    between atoms: C_1  and  C_2
REMARK    2  A    between atoms: C_2  and  C_3
REMARK    3  A    between atoms: C_3  and  C_5
REMARK    4  A    between atoms: C_3  and  N_17
REMARK    5  A    between atoms: N_9  and  C_10
REMARK    6  A    between atoms: C_10  and  C_11
REMARK    7  A    between atoms: N_17  and  C_18
REMARK    8  A    between atoms: N_17  and  C_24
REMARK    9  A    between atoms: C_18  and  C_19
REMARK   10  A    between atoms: C_24  and  C_25
REMARK   11  A    between atoms: C_28  and  C_38
REMARK   12  A    between atoms: C_30  and  C_37
REMARK                            x       y       z     vdW  Elec       q    Type
REMARK                         _______ _______ _______ _____ _____    ______ ____
ROOT
ATOM      1  N   UNL     1      -2.108   0.027  -1.268  0.00  0.00    +0.392 N 
ATOM      2  H   UNL     1      -1.648  -0.141  -2.150  0.00  0.00    -0.080 HD
ENDROOT
BRANCH   1   3
ATOM      3  C   UNL     1      -1.328  -0.588  -0.185  0.00  0.00    +0.003 C 
BRANCH   3   4
ATOM      4  C   UNL     1      -0.082   0.224   0.060  0.00  0.00    +0.138 A 
ATOM      5  N   UNL     1      -0.011   1.525   0.202  0.00  0.00    -0.115 NA
ATOM      6  N   UNL     1       1.224   1.838   0.395  0.00  0.00    -0.023 NA
ATOM      7  N   UNL     1       1.942   0.770   0.381  0.00  0.00    -0.044 NA
ATOM      8  N   UNL     1       1.173  -0.247   0.183  0.00  0.00    -0.228 N 
BRANCH   8   9
ATOM      9  C   UNL     1       1.588  -1.649   0.102  0.00  0.00    +0.178 C 
BRANCH   9  10
ATOM     10  C   UNL     1       1.923  -2.000  -1.349  0.00  0.00    +0.140 C 
ATOM     11  C   UNL     1       2.450  -3.453  -1.444  0.00  0.00    +0.035 C 
ATOM     12  C   UNL     1       2.106  -3.797  -2.919  0.00  0.00    +0.031 C 
ATOM     13  C   UNL     1       0.790  -3.020  -3.137  0.00  0.00    +0.160 C 
ATOM     14  O   UNL     1       0.734  -1.977  -2.155  0.00  0.00    -0.375 OA
ENDBRANCH   9  10
ENDBRANCH   8   9
ENDBRANCH   3   4
BRANCH   3  16
ATOM     15  C   UNL     1      -3.182  -1.771   1.000  0.00  0.00    +0.002 C 
ATOM     16  C   UNL     1      -2.171  -0.627   1.091  0.00  0.00    -0.011 C 
ENDBRANCH   3  16
ENDBRANCH   1   3
BRANCH   1  17
ATOM     17  C   UNL     1      -3.453  -0.561  -1.297  0.00  0.00    -0.034 C 
BRANCH  17  18
ATOM     18  C   UNL     1      -4.099  -0.273  -2.628  0.00  0.00    -0.027 A 
ATOM     19  C   UNL     1      -4.214  -1.078  -3.712  0.00  0.00    +0.009 A 
ATOM     20  C   UNL     1      -4.855  -0.597  -4.839  0.00  0.00    +0.008 A 
ATOM     21  C   UNL     1      -5.349   0.665  -4.826  0.00  0.00    +0.045 A 
ATOM     22  S   UNL     1      -4.916   1.214  -3.183  0.00  0.00    -0.103 S 
ENDBRANCH  17  18
ENDBRANCH   1  17
BRANCH   1  23
ATOM     23  C   UNL     1      -2.211   1.474  -1.037  0.00  0.00    -0.036 C 
BRANCH  23  24
ATOM     24  C   UNL     1      -2.949   1.725   0.253  0.00  0.00    +0.001 A 
ATOM     25  C   UNL     1      -2.262   2.074   1.368  0.00  0.00    +0.017 A 
ATOM     26  C   UNL     1      -3.009   2.312   2.604  0.00  0.00    +0.002 A 
ATOM     27  C   UNL     1      -2.355   2.675   3.787  0.00  0.00    -0.041 A 
ATOM     28  C   UNL     1      -3.082   2.890   4.923  0.00  0.00    +0.007 A 
ATOM     29  C   UNL     1      -4.463   2.751   4.916  0.00  0.00    -0.048 A 
ATOM     30  C   UNL     1      -5.128   2.394   3.763  0.00  0.00    +0.029 A 
ATOM     31  C   UNL     1      -4.410   2.171   2.593  0.00  0.00    +0.050 A 
ATOM     32  N   UNL     1      -5.049   1.814   1.425  0.00  0.00    -0.322 N 
ATOM     33  H   UNL     1      -6.014   1.718   1.419  0.00  0.00    +0.169 HD
ATOM     34  C   UNL     1      -4.355   1.603   0.293  0.00  0.00    +0.251 A 
ATOM     35  O   UNL     1      -4.954   1.294  -0.722  0.00  0.00    -0.268 OA
ATOM     36  C   UNL     1      -5.244   2.993   6.182  0.00  0.00    +0.044 C 
ATOM     37  C   UNL     1      -0.856   2.827   3.807  0.00  0.00    +0.044 C 
ENDBRANCH  23  24
ENDBRANCH   1  23
TORSDOF 9
