REMARK  Name = ZINC34749213
REMARK  10 active torsions:
REMARK  status: ('A' for Active; 'I' for Inactive)
REMARK    1  A    between atoms: C_1  and  C_2
REMARK    2  A    between atoms: C_2  and  C_3
REMARK    3  A    between atoms: C_4  and  C_36
REMARK    4  A    between atoms: N_10  and  C_27
REMARK    5  A    between atoms: N_16  and  C_19
REMARK    6  A    between atoms: C_19  and  C_20
REMARK    7  A    between atoms: C_20  and  C_21
REMARK    8  A    between atoms: C_27  and  C_28
REMARK    9  A    between atoms: C_31  and  C_35
REMARK   10  A    between atoms: C_33  and  C_34
REMARK                            x       y       z     vdW  Elec       q    Type
REMARK                         _______ _______ _______ _____ _____    ______ ____
ROOT
ATOM      1  C   UNL     1       1.057  -0.727  -1.821  0.00  0.00    -0.023 A 
ATOM      2  C   UNL     1       0.604  -0.755  -3.083  0.00  0.00    -0.007 A 
ATOM      3  S   UNL     1       2.057  -1.154  -4.036  0.00  0.00    -0.073 S 
ATOM      4  C   UNL     1       3.231  -1.272  -2.712  0.00  0.00    +0.117 A 
ATOM      5  C   UNL     1       2.463  -0.992  -1.566  0.00  0.00    +0.076 A 
ATOM      6  C   UNL     1       3.169  -1.014  -0.322  0.00  0.00    +0.264 A 
ATOM      7  O   UNL     1       2.585  -0.788   0.724  0.00  0.00    -0.267 OA
ATOM      8  N   UNL     1       4.487  -1.286  -0.322  0.00  0.00    -0.276 N 
ATOM      9  C   UNL     1       5.157  -1.541  -1.482  0.00  0.00    +0.202 A 
ATOM     10  N   UNL     1       4.530  -1.538  -2.640  0.00  0.00    -0.208 NA
ATOM     11  N   UNL     1       6.502  -1.815  -1.441  0.00  0.00    -0.304 N 
ATOM     12  C   UNL     1       7.417  -0.989  -0.638  0.00  0.00    +0.089 C 
ATOM     13  C   UNL     1       8.596  -0.570  -1.524  0.00  0.00    -0.060 C 
ATOM     14  N   UNL     1       9.215  -1.766  -2.111  0.00  0.00    +0.382 N 
ATOM     15  C   UNL     1       8.263  -2.431  -3.009  0.00  0.00    -0.060 C 
ATOM     16  C   UNL     1       7.067  -2.946  -2.193  0.00  0.00    +0.089 C 
ATOM     17  C   UNL     1      -0.798  -0.508  -3.577  0.00  0.00    +0.052 C 
ATOM     18  H   UNL     1       9.481  -2.401  -1.374  0.00  0.00    -0.082 HD
ENDROOT
BRANCH   1  20
ATOM     19  C   UNL     1       0.094   1.091  -0.437  0.00  0.00    +0.009 C 
ATOM     20  C   UNL     1       0.121  -0.419  -0.682  0.00  0.00    +0.033 C 
ENDBRANCH   1  20
BRANCH  14  21
ATOM     21  C   UNL     1      10.410  -1.374  -2.870  0.00  0.00    -0.074 C 
BRANCH  21  22
ATOM     22  C   UNL     1      11.125  -2.627  -3.378  0.00  0.00    +0.016 C 
BRANCH  22  23
ATOM     23  C   UNL     1      12.351  -2.225  -4.157  0.00  0.00    -0.049 A 
ATOM     24  C   UNL     1      12.262  -1.999  -5.518  0.00  0.00    +0.003 A 
ATOM     25  C   UNL     1      13.386  -1.630  -6.232  0.00  0.00    +0.000 A 
ATOM     26  C   UNL     1      14.600  -1.487  -5.586  0.00  0.00    +0.000 A 
ATOM     27  C   UNL     1      14.688  -1.712  -4.225  0.00  0.00    +0.000 A 
ATOM     28  C   UNL     1      13.563  -2.077  -3.509  0.00  0.00    +0.003 A 
ENDBRANCH  22  23
ENDBRANCH  21  22
ENDBRANCH  14  21
BRANCH   8  29
ATOM     29  C   UNL     1       5.216  -1.309   0.949  0.00  0.00    +0.163 C 
BRANCH  29  30
ATOM     30  C   UNL     1       4.633  -2.373   1.843  0.00  0.00    -0.025 A 
ATOM     31  C   UNL     1       3.831  -2.015   2.911  0.00  0.00    +0.006 A 
ATOM     32  C   UNL     1       3.296  -2.991   3.731  0.00  0.00    +0.004 A 
ATOM     33  C   UNL     1       3.563  -4.325   3.483  0.00  0.00    -0.050 A 
ATOM     34  C   UNL     1       4.363  -4.683   2.414  0.00  0.00    +0.007 A 
ATOM     35  C   UNL     1       4.895  -3.707   1.591  0.00  0.00    -0.045 A 
ATOM     36  C   UNL     1       5.763  -4.097   0.423  0.00  0.00    +0.044 C 
ATOM     37  C   UNL     1       2.981  -5.389   4.377  0.00  0.00    +0.044 C 
ENDBRANCH  29  30
ENDBRANCH   8  29
TORSDOF 6
