REMARK  Name = ZINC39919187
REMARK  4 active torsions:
REMARK  status: ('A' for Active; 'I' for Inactive)
REMARK    1  A    between atoms: N_7  and  C_12
REMARK    2  A    between atoms: C_12  and  C_13
REMARK    3  A    between atoms: N_15  and  C_16
REMARK    4  A    between atoms: C_18  and  N_23
REMARK                            x       y       z     vdW  Elec       q    Type
REMARK                         _______ _______ _______ _____ _____    ______ ____
ROOT
ATOM      1  C   UNL     1       0.014  -3.105  -1.839  0.00  0.00    +0.235 C 
ATOM      2  O   UNL     1       0.892  -2.671  -2.554  0.00  0.00    -0.274 OA
ATOM      3  N   UNL     1      -1.010  -3.800  -2.375  0.00  0.00    -0.283 N 
ATOM      4  H   UNL     1      -1.677  -4.203  -1.798  0.00  0.00    +0.155 HD
ENDROOT
BRANCH   3   5
ATOM      5  C   UNL     1      -1.109  -3.938  -3.764  0.00  0.00    +0.050 A 
ATOM      6  C   UNL     1       0.039  -4.050  -4.536  0.00  0.00    +0.057 A 
ATOM      7  C   UNL     1      -0.062  -4.187  -5.907  0.00  0.00    +0.128 A 
ATOM      8  C   UNL     1      -1.306  -4.213  -6.511  0.00  0.00    +0.034 A 
ATOM      9  C   UNL     1      -2.452  -4.102  -5.745  0.00  0.00    +0.019 A 
ATOM     10  C   UNL     1      -2.358  -3.971  -4.373  0.00  0.00    +0.039 A 
ATOM     11 BR   UNL     1      -3.926  -3.828  -3.325  0.00  0.00    -0.048 Br
BRANCH   7  12
ATOM     12  N   UNL     1       1.162  -4.305  -6.731  0.00  0.00    +0.056 N 
ATOM     13  O   UNL     1       2.250  -4.282  -6.203  0.00  0.00    -0.126 OA
ATOM     14  O   UNL     1       1.074  -4.425  -7.930  0.00  0.00    -0.126 OA
ENDBRANCH   7  12
ENDBRANCH   3   5
BRANCH   1  15
ATOM     15  C   UNL     1       0.067  -2.869  -0.351  0.00  0.00    +0.209 C 
BRANCH  15  22
ATOM     16  C   UNL     1       0.001   1.362   0.038  0.00  0.00    +0.002 A 
ATOM     17  C   UNL     1       1.188   2.072   0.030  0.00  0.00    +0.004 A 
ATOM     18  C   UNL     1       2.399   1.404   0.006  0.00  0.00    +0.047 A 
ATOM     19  C   UNL     1       2.424   0.021  -0.010  0.00  0.00    +0.143 A 
ATOM     20  C   UNL     1       1.228  -0.695  -0.003  0.00  0.00    +0.079 A 
ATOM     21  C   UNL     1       0.018  -0.021   0.022  0.00  0.00    +0.027 A 
ATOM     22  N   UNL     1       1.267  -2.096  -0.022  0.00  0.00    -0.257 N 
ATOM     23  C   UNL     1       2.428  -2.723   0.268  0.00  0.00    +0.258 C 
ATOM     24  O   UNL     1       2.493  -3.933   0.227  0.00  0.00    -0.271 OA
ATOM     25  C   UNL     1       3.642  -1.911   0.643  0.00  0.00    +0.325 C 
ATOM     26  O   UNL     1       3.605  -0.652  -0.033  0.00  0.00    -0.481 OA
ENDBRANCH  15  22
ENDBRANCH   1  15
TORSDOF 4
