REMARK  Name = ZINC59258215
REMARK  10 active torsions:
REMARK  status: ('A' for Active; 'I' for Inactive)
REMARK    1  A    between atoms: C_1  and  C_2
REMARK    2  A    between atoms: C_3  and  N_9
REMARK    3  A    between atoms: C_10  and  C_12
REMARK    4  A    between atoms: C_12  and  N_13
REMARK    5  A    between atoms: C_14  and  C_16
REMARK    6  A    between atoms: C_16  and  N_17
REMARK    7  A    between atoms: N_17  and  C_18
REMARK    8  A    between atoms: C_23  and  C_24
REMARK    9  A    between atoms: N_26  and  C_27
REMARK   10  A    between atoms: N_26  and  C_28
REMARK                            x       y       z     vdW  Elec       q    Type
REMARK                         _______ _______ _______ _____ _____    ______ ____
ROOT
ATOM      1  N   UNL     1       0.130  -0.851  -6.023  0.00  0.00    -0.305 N 
ATOM      2  C   UNL     1       0.263  -0.388  -7.282  0.00  0.00    +0.231 C 
ATOM      3  O   UNL     1       0.273   0.807  -7.490  0.00  0.00    -0.274 OA
ATOM      4  H   UNL     1       0.122  -1.807  -5.856  0.00  0.00    +0.149 HD
ENDROOT
BRANCH   1   5
ATOM      5  C   UNL     1      -0.003   0.088  -4.907  0.00  0.00    +0.200 C 
BRANCH   5   7
ATOM      6  N   UNL     1      -0.271  -0.020  -2.450  0.00  0.00    -0.284 N 
ATOM      7  C   UNL     1      -0.136  -0.680  -3.617  0.00  0.00    +0.234 C 
ATOM      8  O   UNL     1      -0.121  -1.893  -3.629  0.00  0.00    -0.274 OA
ATOM      9  H   UNL     1      -0.371   0.945  -2.447  0.00  0.00    +0.155 HD
BRANCH   6  12
ATOM     10  C   UNL     1      -1.575   1.148  -0.206  0.00  0.00    +0.047 C 
ATOM     11  C   UNL     1      -0.891  -0.193  -0.122  0.00  0.00    -0.011 A 
ATOM     12  C   UNL     1      -0.266  -0.726  -1.242  0.00  0.00    +0.038 A 
ATOM     13  C   UNL     1       0.362  -1.961  -1.160  0.00  0.00    +0.023 A 
ATOM     14  C   UNL     1       0.365  -2.657   0.033  0.00  0.00    +0.003 A 
ATOM     15  C   UNL     1      -0.258  -2.124   1.147  0.00  0.00    +0.020 A 
ATOM     16  C   UNL     1      -0.881  -0.890   1.071  0.00  0.00    +0.046 A 
ATOM     17 CL   UNL     1      -1.655  -0.222   2.474  0.00  0.00    -0.083 Cl
ENDBRANCH   6  12
ENDBRANCH   5   7
ENDBRANCH   1   5
BRANCH   2  18
ATOM     18  C   UNL     1       0.399  -1.354  -8.430  0.00  0.00    +0.197 C 
BRANCH  18  19
ATOM     19  N   UNL     1       0.528  -0.607  -9.684  0.00  0.00    -0.335 N 
ATOM     20  H   UNL     1       0.517   0.363  -9.674  0.00  0.00    +0.147 HD
BRANCH  19  21
ATOM     21  C   UNL     1       0.667  -1.288 -10.886  0.00  0.00    +0.041 A 
ATOM     22  C   UNL     1       0.575  -2.673 -10.919  0.00  0.00    +0.043 A 
ATOM     23  C   UNL     1       0.714  -3.347 -12.116  0.00  0.00    +0.043 A 
ATOM     24  C   UNL     1       0.946  -2.649 -13.292  0.00  0.00    +0.021 A 
ATOM     25  C   UNL     1       1.041  -1.275 -13.279  0.00  0.00    +0.016 A 
ATOM     26  C   UNL     1       0.896  -0.578 -12.076  0.00  0.00    +0.058 A 
ATOM     27 CL   UNL     1       0.598  -5.079 -12.149  0.00  0.00    -0.083 Cl
BRANCH  26  28
ATOM     28  C   UNL     1       0.991   0.892 -12.056  0.00  0.00    +0.248 C 
ATOM     29  O   UNL     1       0.027   1.559 -11.729  0.00  0.00    -0.270 OA
ATOM     30  N   UNL     1       2.144   1.499 -12.399  0.00  0.00    -0.304 N 
ATOM     31  C   UNL     1       2.271   2.953 -12.278  0.00  0.00    +0.132 C 
ATOM     32  C   UNL     1       3.271   0.703 -12.892  0.00  0.00    +0.132 C 
ENDBRANCH  26  28
ENDBRANCH  19  21
ENDBRANCH  18  19
ENDBRANCH   2  18
TORSDOF 7
