REMARK  Name = ZINC39675845
REMARK  8 active torsions:
REMARK  status: ('A' for Active; 'I' for Inactive)
REMARK    1  A    between atoms: C_1  and  N_2
REMARK    2  A    between atoms: N_2  and  C_3
REMARK    3  A    between atoms: N_2  and  C_4
REMARK    4  A    between atoms: C_4  and  C_6
REMARK    5  A    between atoms: C_4  and  C_34
REMARK    6  A    between atoms: C_6  and  N_7
REMARK    7  A    between atoms: C_8  and  C_10
REMARK    8  A    between atoms: C_21  and  C_23
REMARK                            x       y       z     vdW  Elec       q    Type
REMARK                         _______ _______ _______ _____ _____    ______ ____
ROOT
ATOM      1  C   UNL     1       0.052  -6.505   1.651  0.00  0.00    +0.100 C 
ATOM      2  C   UNL     1      -0.713  -6.636   2.987  0.00  0.00    +0.121 C 
ATOM      3  N   UNL     1      -1.483  -7.895   2.857  0.00  0.00    -0.297 N 
ATOM      4  C   UNL     1      -0.559  -8.822   2.159  0.00  0.00    +0.115 C 
ATOM      5  C   UNL     1       0.154  -7.942   1.112  0.00  0.00    -0.004 C 
ATOM      6  C   UNL     1      -0.552  -8.053  -0.236  0.00  0.00    -0.010 C 
ATOM      7  C   UNL     1      -0.388  -9.476  -0.777  0.00  0.00    -0.082 C 
ATOM      8  N   UNL     1       1.040  -9.785  -0.922  0.00  0.00    +0.379 N 
ATOM      9  C   UNL     1       1.692  -9.767   0.392  0.00  0.00    -0.082 C 
ATOM     10  C   UNL     1       1.616  -8.356   0.983  0.00  0.00    -0.010 C 
ATOM     11  C   UNL     1      -2.739  -8.143   3.277  0.00  0.00    +0.260 C 
ATOM     12  O   UNL     1      -3.236  -9.234   3.096  0.00  0.00    -0.271 OA
ATOM     13  H   UNL     1       1.144 -10.699  -1.336  0.00  0.00    -0.086 HD
ATOM     14  H   UNL     1       1.472  -9.097  -1.521  0.00  0.00    -0.086 HD
ENDROOT
BRANCH  11  15
ATOM     15  C   UNL     1      -3.527  -7.063   3.973  0.00  0.00    +0.296 C 
ATOM     16  C   UNL     1      -2.867  -6.724   5.316  0.00  0.00    +0.283 C 
ATOM     17  O   UNL     1      -3.647  -5.708   5.955  0.00  0.00    -0.484 OA
ATOM     18  C   UNL     1      -4.996  -5.891   5.971  0.00  0.00    +0.162 A 
ATOM     19  C   UNL     1      -5.771  -5.164   6.862  0.00  0.00    +0.049 A 
ATOM     20  C   UNL     1      -7.142  -5.337   6.887  0.00  0.00    +0.004 A 
ATOM     21  C   UNL     1      -7.744  -6.235   6.025  0.00  0.00    +0.004 A 
ATOM     22  C   UNL     1      -6.977  -6.963   5.136  0.00  0.00    +0.049 A 
ATOM     23  C   UNL     1      -5.601  -6.795   5.106  0.00  0.00    +0.163 A 
ATOM     24  O   UNL     1      -4.857  -7.526   4.230  0.00  0.00    -0.473 OA
ENDBRANCH  11  15
BRANCH   1  26
ATOM     25  N   UNL     1      -0.065  -4.959  -0.276  0.00  0.00    -0.316 N 
ATOM     26  C   UNL     1      -0.718  -5.638   0.688  0.00  0.00    +0.218 C 
ATOM     27  O   UNL     1      -1.924  -5.551   0.781  0.00  0.00    -0.275 OA
ATOM     28  H   UNL     1       0.899  -5.028  -0.350  0.00  0.00    +0.149 HD
BRANCH  25  29
ATOM     29  C   UNL     1      -0.813  -4.115  -1.212  0.00  0.00    +0.093 C 
BRANCH  29  30
ATOM     30  C   UNL     1       0.166  -3.362  -2.114  0.00  0.00    -0.021 C 
BRANCH  30  31
ATOM     31  C   UNL     1       0.982  -2.405  -1.283  0.00  0.00    -0.059 A 
ATOM     32  C   UNL     1       0.444  -1.190  -0.901  0.00  0.00    +0.002 A 
ATOM     33  C   UNL     1       1.192  -0.313  -0.138  0.00  0.00    +0.000 A 
ATOM     34  C   UNL     1       2.477  -0.651   0.243  0.00  0.00    +0.000 A 
ATOM     35  C   UNL     1       3.014  -1.866  -0.138  0.00  0.00    +0.000 A 
ATOM     36  C   UNL     1       2.265  -2.745  -0.897  0.00  0.00    +0.002 A 
ENDBRANCH  30  31
BRANCH  30  38
ATOM     37  C   UNL     1       0.354  -1.843  -3.961  0.00  0.00    -0.096 C 
ATOM     38  N   UNL     1      -0.583  -2.611  -3.131  0.00  0.00    +0.382 N 
ATOM     39  C   UNL     1      -1.333  -3.549  -3.978  0.00  0.00    -0.096 C 
ATOM     40  H   UNL     1      -1.226  -1.980  -2.677  0.00  0.00    -0.082 HD
ENDBRANCH  30  38
ENDBRANCH  29  30
ENDBRANCH  25  29
ENDBRANCH   1  26
TORSDOF 6
