REMARK  Name = ZINC10220497
REMARK  4 active torsions:
REMARK  status: ('A' for Active; 'I' for Inactive)
REMARK    1  A    between atoms: C_4  and  N_21
REMARK    2  A    between atoms: C_5  and  C_7
REMARK    3  A    between atoms: N_9  and  C_10
REMARK    4  A    between atoms: C_10  and  C_11
REMARK                            x       y       z     vdW  Elec       q    Type
REMARK                         _______ _______ _______ _____ _____    ______ ____
ROOT
ATOM      1  C   UNL     1      -1.286   2.011   0.615  0.00  0.00    +0.246 C 
ATOM      2  O   UNL     1      -1.328   3.221   0.720  0.00  0.00    -0.270 OA
ATOM      3  N   UNL     1      -2.405   1.280   0.788  0.00  0.00    -0.309 N 
ATOM      4  H   UNL     1      -2.371   0.314   0.704  0.00  0.00    +0.149 HD
ENDROOT
BRANCH   1   9
ATOM      5  C   UNL     1       1.217  -0.650  -0.260  0.00  0.00    +0.001 A 
ATOM      6  C   UNL     1       2.387   0.087  -0.307  0.00  0.00    +0.002 A 
ATOM      7  C   UNL     1       2.367   1.446  -0.052  0.00  0.00    +0.033 A 
ATOM      8  C   UNL     1       1.178   2.077   0.250  0.00  0.00    +0.138 A 
ATOM      9  C   UNL     1      -0.007   1.340   0.298  0.00  0.00    +0.067 A 
ATOM     10  C   UNL     1       0.021  -0.031   0.040  0.00  0.00    +0.015 A 
BRANCH   8  11
ATOM     11  N   UNL     1       1.158   3.532   0.522  0.00  0.00    +0.057 N 
ATOM     12  O   UNL     1       1.681   4.305  -0.260  0.00  0.00    -0.126 OA
ATOM     13  O   UNL     1       0.618   3.956   1.528  0.00  0.00    -0.126 OA
ENDBRANCH   8  11
ENDBRANCH   1   9
BRANCH   3  14
ATOM     14  C   UNL     1      -3.672   1.944   1.101  0.00  0.00    +0.138 C 
BRANCH  14  15
ATOM     15  C   UNL     1      -4.776   0.895   1.245  0.00  0.00    +0.164 C 
ATOM     16  C   UNL     1      -6.133   1.578   1.525  0.00  0.00    +0.196 C 
ATOM     17  O   UNL     1      -6.746   0.700   2.502  0.00  0.00    -0.346 OA
ATOM     18  C   UNL     1      -5.630   0.259   3.291  0.00  0.00    +0.171 C 
ATOM     19  O   UNL     1      -4.531   0.065   2.397  0.00  0.00    -0.342 OA
ATOM     20  C   UNL     1      -5.284   1.308   4.358  0.00  0.00    +0.065 C 
ATOM     21  C   UNL     1      -5.994   0.795   5.637  0.00  0.00    +0.005 C 
ATOM     22  C   UNL     1      -5.818  -0.741   5.535  0.00  0.00    +0.005 C 
ATOM     23  C   UNL     1      -5.972  -1.041   4.028  0.00  0.00    +0.065 C 
ENDBRANCH  14  15
ENDBRANCH   3  14
TORSDOF 4
