REMARK  Name = ZINC39899271
REMARK  12 active torsions:
REMARK  status: ('A' for Active; 'I' for Inactive)
REMARK    1  A    between atoms: C_1  and  C_2
REMARK    2  A    between atoms: C_2  and  C_3
REMARK    3  A    between atoms: C_2  and  C_4
REMARK    4  A    between atoms: C_4  and  O_5
REMARK    5  A    between atoms: O_5  and  C_6
REMARK    6  A    between atoms: C_9  and  C_14
REMARK    7  A    between atoms: C_11  and  O_12
REMARK    8  A    between atoms: O_12  and  C_13
REMARK    9  A    between atoms: C_17  and  C_32
REMARK   10  A    between atoms: N_24  and  C_25
REMARK   11  A    between atoms: C_25  and  C_26
REMARK   12  A    between atoms: C_37  and  O_38
REMARK                            x       y       z     vdW  Elec       q    Type
REMARK                         _______ _______ _______ _____ _____    ______ ____
ROOT
ATOM      1  C   UNL     1      -6.968  -2.180  -1.771  0.00  0.00    +0.142 C 
ATOM      2  C   UNL     1      -8.184  -1.526  -1.176  0.00  0.00    +0.035 A 
ATOM      3  C   UNL     1      -8.972  -0.374  -1.073  0.00  0.00    +0.102 A 
ATOM      4  N   UNL     1      -9.975  -0.654  -0.264  0.00  0.00    -0.173 NA
ATOM      5  N   UNL     1      -9.898  -1.868   0.153  0.00  0.00    -0.272 N 
ATOM      6  H   UNL     1     -10.529  -2.290   0.757  0.00  0.00    +0.189 HD
ATOM      7  C   UNL     1      -8.797  -2.474  -0.381  0.00  0.00    +0.126 A 
ATOM      8  C   UNL     1      -8.015  -3.714  -0.446  0.00  0.00    +0.266 C 
ATOM      9  O   UNL     1      -8.290  -4.741   0.145  0.00  0.00    -0.268 OA
ATOM     10  N   UNL     1      -6.949  -3.554  -1.253  0.00  0.00    -0.281 N 
ENDROOT
BRANCH   3  11
ATOM     11  C   UNL     1      -8.725   0.924  -1.748  0.00  0.00    +0.045 A 
ATOM     12  C   UNL     1      -7.690   1.044  -2.673  0.00  0.00    +0.033 A 
ATOM     13  C   UNL     1      -7.463   2.255  -3.299  0.00  0.00    +0.042 A 
ATOM     14  C   UNL     1      -8.262   3.349  -3.010  0.00  0.00    +0.023 A 
ATOM     15  C   UNL     1      -9.291   3.238  -2.094  0.00  0.00    +0.047 A 
ATOM     16  C   UNL     1      -9.532   2.028  -1.464  0.00  0.00    +0.126 A 
ATOM     17 CL   UNL     1      -6.173   2.405  -4.451  0.00  0.00    -0.084 Cl
BRANCH  16  18
ATOM     18  O   UNL     1     -10.547   1.917  -0.567  0.00  0.00    -0.506 OA
ATOM     19  H   UNL     1     -10.292   2.119   0.343  0.00  0.00    +0.292 HD
ENDBRANCH  16  18
ENDBRANCH   3  11
BRANCH   1  23
ATOM     20  C   UNL     1      -3.433  -0.097  -0.563  0.00  0.00    +0.162 A 
ATOM     21  C   UNL     1      -3.780  -0.160  -1.903  0.00  0.00    +0.050 A 
ATOM     22  C   UNL     1      -4.923  -0.835  -2.291  0.00  0.00    +0.009 A 
ATOM     23  C   UNL     1      -5.723  -1.447  -1.343  0.00  0.00    -0.019 A 
ATOM     24  C   UNL     1      -5.383  -1.387  -0.005  0.00  0.00    +0.055 A 
ATOM     25  C   UNL     1      -4.235  -0.719   0.390  0.00  0.00    +0.162 A 
BRANCH  25  26
ATOM     26  O   UNL     1      -3.896  -0.664   1.706  0.00  0.00    -0.491 OA
ATOM     27  C   UNL     1      -4.739  -1.365   2.622  0.00  0.00    +0.277 C 
ENDBRANCH  25  26
BRANCH  20  28
ATOM     28  O   UNL     1      -2.309   0.565  -0.180  0.00  0.00    -0.488 OA
BRANCH  28  29
ATOM     29  C   UNL     1      -1.534   1.179  -1.213  0.00  0.00    +0.232 C 
BRANCH  29  31
ATOM     30  C   UNL     1       0.602   0.821   0.032  0.00  0.00    +0.010 C 
ATOM     31  C   UNL     1      -0.318   1.871  -0.595  0.00  0.00    +0.020 C 
ATOM     32  C   UNL     1       0.443   2.632  -1.682  0.00  0.00    +0.010 C 
ENDBRANCH  29  31
ENDBRANCH  28  29
ENDBRANCH  20  28
ENDBRANCH   1  23
BRANCH  10  33
ATOM     33  C   UNL     1      -5.943  -4.574  -1.560  0.00  0.00    +0.145 C 
BRANCH  33  34
ATOM     34  C   UNL     1      -4.822  -4.494  -0.556  0.00  0.00    -0.012 A 
ATOM     35  C   UNL     1      -3.728  -3.673  -0.788  0.00  0.00    +0.008 A 
ATOM     36  C   UNL     1      -2.721  -3.631   0.164  0.00  0.00    +0.020 A 
ATOM     37  C   UNL     1      -2.840  -4.403   1.304  0.00  0.00    +0.111 A 
ATOM     38  N   UNL     1      -3.894  -5.172   1.492  0.00  0.00    -0.263 NA
ATOM     39  C   UNL     1      -4.874  -5.232   0.611  0.00  0.00    +0.115 A 
ENDBRANCH  33  34
ENDBRANCH  10  33
TORSDOF 9
