REMARK  Name = ZINC09880984
REMARK  7 active torsions:
REMARK  status: ('A' for Active; 'I' for Inactive)
REMARK    1  A    between atoms: C_1  and  C_2
REMARK    2  A    between atoms: C_9  and  C_13
REMARK    3  A    between atoms: C_13  and  S_14
REMARK    4  A    between atoms: S_14  and  C_15
REMARK    5  A    between atoms: C_18  and  C_27
REMARK    6  A    between atoms: N_19  and  C_20
REMARK    7  A    between atoms: C_27  and  N_58
REMARK                            x       y       z     vdW  Elec       q    Type
REMARK                         _______ _______ _______ _____ _____    ______ ____
ROOT
ATOM      1  C   UNL     1      -4.314   5.569   1.446  0.00  0.00    +0.196 A 
ATOM      2  N   UNL     1      -4.990   5.625   0.321  0.00  0.00    -0.122 NA
ATOM      3  N   UNL     1      -6.066   6.308   0.491  0.00  0.00    -0.135 NA
ATOM      4  C   UNL     1      -6.138   6.733   1.721  0.00  0.00    +0.122 A 
ATOM      5  N   UNL     1      -5.024   6.278   2.375  0.00  0.00    -0.276 N 
ENDROOT
BRANCH   5   6
ATOM      6  C   UNL     1      -4.682   6.494   3.719  0.00  0.00    +0.050 A 
ATOM      7  C   UNL     1      -5.476   5.972   4.731  0.00  0.00    +0.029 A 
ATOM      8  C   UNL     1      -5.135   6.182   6.053  0.00  0.00    +0.040 A 
ATOM      9  C   UNL     1      -4.008   6.921   6.369  0.00  0.00    +0.124 A 
ATOM     10  C   UNL     1      -3.217   7.447   5.361  0.00  0.00    +0.040 A 
ATOM     11  C   UNL     1      -3.553   7.235   4.038  0.00  0.00    +0.029 A 
ATOM     12  F   UNL     1      -3.678   7.129   7.662  0.00  0.00    -0.205 F 
ENDBRANCH   5   6
BRANCH   1  13
ATOM     13  S   UNL     1      -2.780   4.742   1.705  0.00  0.00    -0.079 S 
BRANCH  13  14
ATOM     14  C   UNL     1      -2.505   4.064   0.050  0.00  0.00    +0.133 C 
BRANCH  14  23
ATOM     15  C   UNL     1       4.798   4.099  -0.021  0.00  0.00    +0.044 C 
ATOM     16  C   UNL     1       3.497   3.340  -0.014  0.00  0.00    -0.046 A 
ATOM     17  C   UNL     1       3.498   1.938  -0.022  0.00  0.00    +0.021 A 
ATOM     18  C   UNL     1       2.330   1.257  -0.013  0.00  0.00    +0.096 A 
ATOM     19  N   UNL     1       1.139   1.918   0.002  0.00  0.00    -0.268 N 
ATOM     20  C   UNL     1       1.105   3.285   0.010  0.00  0.00    +0.141 A 
ATOM     21  C   UNL     1       2.310   4.011   0.002  0.00  0.00    +0.050 A 
ATOM     22  N   UNL     1      -0.055   3.939   0.025  0.00  0.00    -0.233 NA
ATOM     23  C   UNL     1      -1.210   3.292   0.033  0.00  0.00    +0.059 A 
ATOM     24  C   UNL     1      -1.230   1.911   0.018  0.00  0.00    +0.094 A 
ATOM     25  C   UNL     1      -0.015   1.217   0.009  0.00  0.00    +0.259 A 
ATOM     26  O   UNL     1       0.002  -0.004   0.002  0.00  0.00    -0.267 OA
ENDBRANCH  14  23
ENDBRANCH  13  14
ENDBRANCH   1  13
BRANCH   4  27
ATOM     27  C   UNL     1      -7.242   7.571   2.313  0.00  0.00    -0.001 C 
BRANCH  27  33
ATOM     28  C   UNL     1      -5.734   9.361   2.934  0.00  0.00    -0.078 C 
ATOM     29  C   UNL     1      -5.342  10.807   2.624  0.00  0.00    -0.019 C 
ATOM     30  C   UNL     1      -6.513  11.733   2.968  0.00  0.00    -0.004 C 
ATOM     31  C   UNL     1      -7.747  11.300   2.172  0.00  0.00    -0.019 C 
ATOM     32  C   UNL     1      -8.069   9.839   2.494  0.00  0.00    -0.078 C 
ATOM     33  N   UNL     1      -6.912   8.998   2.118  0.00  0.00    +0.384 N 
ATOM     34  H   UNL     1      -6.694   9.157   1.127  0.00  0.00    -0.081 HD
ENDBRANCH  27  33
ENDBRANCH   4  27
TORSDOF 6
