REMARK  Name = ZINC00925339
REMARK  9 active torsions:
REMARK  status: ('A' for Active; 'I' for Inactive)
REMARK    1  A    between atoms: C_1  and  C_2
REMARK    2  A    between atoms: C_4  and  C_28
REMARK    3  A    between atoms: C_5  and  N_9
REMARK    4  A    between atoms: C_6  and  C_8
REMARK    5  A    between atoms: C_10  and  C_12
REMARK    6  A    between atoms: C_12  and  S_13
REMARK    7  A    between atoms: S_13  and  C_14
REMARK    8  A    between atoms: C_23  and  C_27
REMARK    9  A    between atoms: C_24  and  C_26
REMARK                            x       y       z     vdW  Elec       q    Type
REMARK                         _______ _______ _______ _____ _____    ______ ____
ROOT
ATOM      1  S   UNL     1      -6.205   2.144  -0.435  0.00  0.00    -0.076 S 
ENDROOT
BRANCH   1   2
ATOM      2  C   UNL     1      -7.556   1.065  -0.776  0.00  0.00    +0.198 A 
ATOM      3  N   UNL     1      -7.479  -0.216  -1.053  0.00  0.00    -0.122 NA
ATOM      4  N   UNL     1      -8.655  -0.702  -1.250  0.00  0.00    -0.128 NA
ATOM      5  C   UNL     1      -9.551   0.244  -1.111  0.00  0.00    +0.173 A 
ATOM      6  N   UNL     1      -8.880   1.405  -0.797  0.00  0.00    -0.260 N 
ATOM      7  C   UNL     1      -9.565   2.567  -0.587  0.00  0.00    +0.208 A 
ATOM      8  N   UNL     1     -10.864   2.614  -0.672  0.00  0.00    -0.230 NA
ATOM      9  C   UNL     1     -11.598   1.546  -0.967  0.00  0.00    +0.114 A 
ATOM     10  C   UNL     1     -11.026   0.286  -1.215  0.00  0.00    +0.055 A 
ATOM     11  C   UNL     1     -11.931  -0.747  -1.512  0.00  0.00    -0.028 A 
ATOM     12  C   UNL     1     -13.253  -0.495  -1.558  0.00  0.00    -0.008 A 
ATOM     13  S   UNL     1     -13.337   1.243  -1.162  0.00  0.00    -0.074 S 
ATOM     14  C   UNL     1     -14.382  -1.448  -1.856  0.00  0.00    +0.052 C 
ATOM     15  C   UNL     1     -11.421  -2.139  -1.780  0.00  0.00    +0.045 C 
ENDBRANCH   1   2
BRANCH   1  16
ATOM     16  C   UNL     1      -4.746   1.073  -0.559  0.00  0.00    +0.173 C 
BRANCH  16  18
ATOM     17  N   UNL     1      -2.294   1.291  -0.322  0.00  0.00    -0.284 N 
ATOM     18  C   UNL     1      -3.504   1.882  -0.285  0.00  0.00    +0.228 C 
ATOM     19  O   UNL     1      -3.595   3.064  -0.031  0.00  0.00    -0.275 OA
ATOM     20  H   UNL     1      -2.226   0.331  -0.445  0.00  0.00    +0.155 HD
BRANCH  17  25
ATOM     21  C   UNL     1       2.413   4.408   0.244  0.00  0.00    +0.044 C 
ATOM     22  C   UNL     1       1.161   3.583   0.092  0.00  0.00    -0.050 A 
ATOM     23  C   UNL     1       0.190   3.615   1.076  0.00  0.00    +0.008 A 
ATOM     24  C   UNL     1      -0.958   2.859   0.940  0.00  0.00    -0.029 A 
ATOM     25  C   UNL     1      -1.134   2.062  -0.184  0.00  0.00    +0.039 A 
ATOM     26  C   UNL     1      -0.160   2.038  -1.173  0.00  0.00    -0.029 A 
ATOM     27  C   UNL     1       0.986   2.795  -1.031  0.00  0.00    +0.008 A 
ATOM     28  C   UNL     1      -0.350   1.180  -2.398  0.00  0.00    +0.045 C 
ATOM     29  C   UNL     1      -2.016   2.893   2.013  0.00  0.00    +0.045 C 
ENDBRANCH  17  25
ENDBRANCH  16  18
ENDBRANCH   1  16
TORSDOF 4
