REMARK  Name = ZINC35026846
REMARK  14 active torsions:
REMARK  status: ('A' for Active; 'I' for Inactive)
REMARK    1  A    between atoms: C_1  and  C_2
REMARK    2  A    between atoms: C_2  and  C_4
REMARK    3  A    between atoms: C_2  and  N_17
REMARK    4  A    between atoms: N_17  and  C_18
REMARK    5  A    between atoms: C_18  and  C_19
REMARK    6  A    between atoms: C_19  and  C_20
REMARK    7  A    between atoms: C_19  and  C_21
REMARK    8  A    between atoms: N_24  and  C_25
REMARK    9  A    between atoms: C_26  and  C_34
REMARK   10  A    between atoms: C_30  and  C_31
REMARK   11  A    between atoms: C_31  and  C_32
REMARK   12  A    between atoms: C_31  and  C_33
REMARK   13  A    between atoms: C_34  and  C_35
REMARK   14  A    between atoms: C_34  and  C_36
REMARK                            x       y       z     vdW  Elec       q    Type
REMARK                         _______ _______ _______ _____ _____    ______ ____
ROOT
ATOM      1  N   UNL     1       1.612   0.249  -1.949  0.00  0.00    -0.275 N 
ATOM      2  C   UNL     1       1.121  -0.714  -2.755  0.00  0.00    +0.307 C 
ATOM      3  O   UNL     1       0.455  -1.617  -2.286  0.00  0.00    -0.252 OA
ATOM      4  N   UNL     1       1.367  -0.675  -4.079  0.00  0.00    -0.269 N 
ATOM      5  H   UNL     1       1.938   0.018  -4.446  0.00  0.00    +0.156 HD
ENDROOT
BRANCH   4   6
ATOM      6  C   UNL     1       0.800  -1.635  -4.925  0.00  0.00    +0.042 A 
ATOM      7  C   UNL     1       1.616  -2.454  -5.694  0.00  0.00    -0.023 A 
ATOM      8  C   UNL     1       1.053  -3.401  -6.527  0.00  0.00    +0.006 A 
ATOM      9  C   UNL     1      -0.322  -3.534  -6.595  0.00  0.00    +0.001 A 
ATOM     10  C   UNL     1      -1.137  -2.720  -5.830  0.00  0.00    +0.006 A 
ATOM     11  C   UNL     1      -0.580  -1.776  -4.991  0.00  0.00    -0.023 A 
BRANCH  11  12
ATOM     12  C   UNL     1      -1.469  -0.893  -4.153  0.00  0.00    +0.015 C 
ATOM     13  C   UNL     1      -1.932   0.303  -4.986  0.00  0.00    +0.012 C 
ATOM     14  C   UNL     1      -2.688  -1.693  -3.688  0.00  0.00    +0.012 C 
ENDBRANCH  11  12
BRANCH   7  15
ATOM     15  C   UNL     1       3.114  -2.308  -5.621  0.00  0.00    +0.015 C 
ATOM     16  C   UNL     1       3.740  -3.656  -5.257  0.00  0.00    +0.012 C 
ATOM     17  C   UNL     1       3.649  -1.848  -6.979  0.00  0.00    +0.012 C 
ENDBRANCH   7  15
ENDBRANCH   4   6
BRANCH   1  19
ATOM     18  C   UNL     1       0.723   1.534  -0.068  0.00  0.00    +0.036 C 
ATOM     19  C   UNL     1       1.344   0.207  -0.510  0.00  0.00    +0.140 C 
BRANCH  19  20
ATOM     20  C   UNL     1       2.635  -0.015   0.235  0.00  0.00    +0.131 A 
ATOM     21  N   UNL     1       2.612   0.031   1.593  0.00  0.00    -0.309 N 
ATOM     22  H   UNL     1       1.776   0.203   2.054  0.00  0.00    +0.170 HD
ATOM     23  C   UNL     1       3.744  -0.163   2.309  0.00  0.00    +0.259 A 
ATOM     24  O   UNL     1       3.738  -0.125   3.525  0.00  0.00    -0.267 OA
ATOM     25  C   UNL     1       4.983  -0.420   1.560  0.00  0.00    +0.065 A 
ATOM     26  C   UNL     1       6.202  -0.632   2.201  0.00  0.00    +0.017 A 
ATOM     27  C   UNL     1       7.325  -0.869   1.457  0.00  0.00    +0.021 A 
ATOM     28  C   UNL     1       7.263  -0.898   0.069  0.00  0.00    +0.043 A 
ATOM     29  C   UNL     1       6.070  -0.691  -0.589  0.00  0.00    +0.048 A 
ATOM     30  C   UNL     1       4.910  -0.449   0.149  0.00  0.00    +0.080 A 
ATOM     31  N   UNL     1       3.712  -0.245  -0.453  0.00  0.00    -0.232 NA
ATOM     32 CL   UNL     1       8.707  -1.200  -0.847  0.00  0.00    -0.083 Cl
ENDBRANCH  19  20
ENDBRANCH   1  19
BRANCH   1  33
ATOM     33  C   UNL     1       2.415   1.337  -2.514  0.00  0.00    +0.113 C 
BRANCH  33  34
ATOM     34  C   UNL     1       1.502   2.511  -2.872  0.00  0.00    +0.000 C 
ATOM     35  C   UNL     1       2.352   3.697  -3.333  0.00  0.00    +0.009 C 
ATOM     36  C   UNL     1       0.553   2.095  -3.999  0.00  0.00    +0.009 C 
ENDBRANCH  33  34
ENDBRANCH   1  33
TORSDOF 7
