REMARK  Name = ZINC20175695
REMARK  11 active torsions:
REMARK  status: ('A' for Active; 'I' for Inactive)
REMARK    1  A    between atoms: C_1  and  C_2
REMARK    2  A    between atoms: C_2  and  O_3
REMARK    3  A    between atoms: O_3  and  C_4
REMARK    4  A    between atoms: C_6  and  C_20
REMARK    5  A    between atoms: C_9  and  O_10
REMARK    6  A    between atoms: O_10  and  C_11
REMARK    7  A    between atoms: C_11  and  C_12
REMARK    8  A    between atoms: C_16  and  C_18
REMARK    9  A    between atoms: C_23  and  C_34
REMARK   10  A    between atoms: C_29  and  N_33
REMARK   11  A    between atoms: C_30  and  C_31
REMARK                            x       y       z     vdW  Elec       q    Type
REMARK                         _______ _______ _______ _____ _____    ______ ____
ROOT
ATOM      1  C   UNL     1       0.777  -1.811  -1.336  0.00  0.00    +0.163 A 
ATOM      2  C   UNL     1       0.253  -2.669  -0.382  0.00  0.00    +0.054 A 
ATOM      3  C   UNL     1       0.356  -4.037  -0.551  0.00  0.00    -0.030 A 
ATOM      4  C   UNL     1       0.992  -4.553  -1.666  0.00  0.00    +0.023 A 
ATOM      5  C   UNL     1       1.521  -3.702  -2.619  0.00  0.00    +0.063 A 
ATOM      6  C   UNL     1       1.416  -2.329  -2.458  0.00  0.00    +0.176 A 
ATOM      7 BR   UNL     1       2.389  -4.412  -4.142  0.00  0.00    -0.046 Br
ENDROOT
BRANCH   3   8
ATOM      8  C   UNL     1      -0.220  -4.968   0.484  0.00  0.00    +0.101 C 
ATOM      9  C   UNL     1      -1.263  -5.851  -0.150  0.00  0.00    +0.049 A 
ATOM     10  C   UNL     1      -2.542  -5.529  -0.583  0.00  0.00    +0.068 A 
ATOM     11  N   UNL     1      -3.093  -6.615  -1.071  0.00  0.00    -0.176 NA
ATOM     12  N   UNL     1      -2.171  -7.668  -0.960  0.00  0.00    -0.246 N 
ATOM     13  H   UNL     1      -2.440  -8.673  -1.316  0.00  0.00    +0.192 HD
ATOM     14  C   UNL     1      -1.056  -7.180  -0.393  0.00  0.00    +0.222 A 
ATOM     15  O   UNL     1       0.103  -7.810  -0.079  0.00  0.00    -0.423 OA
ATOM     16  C   UNL     1       0.964  -7.165   0.734  0.00  0.00    +0.200 C 
ATOM     17  C   UNL     1       0.871  -5.851   1.037  0.00  0.00    +0.098 C 
ATOM     18  C   UNL     1      -3.186  -4.168  -0.506  0.00  0.00    +0.068 C 
BRANCH  16  19
ATOM     19  N   UNL     1       1.996  -7.884   1.284  0.00  0.00    -0.328 N 
ATOM     20  H   UNL     1       2.717  -7.388   1.951  0.00  0.00    +0.145 HD
ATOM     21  H   UNL     1       2.102  -8.955   1.058  0.00  0.00    +0.145 HD
ENDBRANCH  16  19
BRANCH  17  22
ATOM     22  C   UNL     1       1.844  -5.276   1.917  0.00  0.00    +0.101 C 
ATOM     23  N   UNL     1       2.615  -4.820   2.615  0.00  0.00    -0.191 NA
ENDBRANCH  17  22
ENDBRANCH   3   8
BRANCH   1  24
ATOM     24  O   UNL     1       0.671  -0.465  -1.174  0.00  0.00    -0.489 OA
BRANCH  24  26
ATOM     25  C   UNL     1      -0.019   1.526   0.010  0.00  0.00    +0.048 C 
ATOM     26  C   UNL     1       0.002  -0.004   0.002  0.00  0.00    +0.226 C 
ENDBRANCH  24  26
ENDBRANCH   1  24
BRANCH   6  27
ATOM     27  O   UNL     1       1.936  -1.491  -3.394  0.00  0.00    -0.483 OA
BRANCH  27  28
ATOM     28  C   UNL     1       3.293  -1.081  -3.214  0.00  0.00    +0.264 C 
BRANCH  28  29
ATOM     29  C   UNL     1       3.693  -0.162  -4.340  0.00  0.00    -0.010 A 
ATOM     30  C   UNL     1       3.506   1.203  -4.218  0.00  0.00    +0.007 A 
ATOM     31  C   UNL     1       3.874   2.046  -5.250  0.00  0.00    +0.001 A 
ATOM     32  C   UNL     1       4.428   1.524  -6.404  0.00  0.00    +0.003 A 
ATOM     33  C   UNL     1       4.614   0.160  -6.526  0.00  0.00    -0.050 A 
ATOM     34  C   UNL     1       4.252  -0.682  -5.492  0.00  0.00    +0.010 A 
ATOM     35  C   UNL     1       5.218  -0.408  -7.785  0.00  0.00    +0.044 C 
ENDBRANCH  28  29
ENDBRANCH  27  28
ENDBRANCH   6  27
TORSDOF 8
