REMARK  Name = ZINC49389983
REMARK  3 active torsions:
REMARK  status: ('A' for Active; 'I' for Inactive)
REMARK    1  A    between atoms: C_1  and  C_2
REMARK    2  A    between atoms: C_2  and  C_4
REMARK    3  A    between atoms: C_2  and  N_11
REMARK                            x       y       z     vdW  Elec       q    Type
REMARK                         _______ _______ _______ _____ _____    ______ ____
ROOT
ATOM      1  N   UNL     1       0.688  -0.476  -1.203  0.00  0.00    -0.321 N 
ATOM      2  C   UNL     1      -0.015  -0.612  -2.395  0.00  0.00    +0.142 A 
ATOM      3  C   UNL     1       0.649  -1.072  -3.547  0.00  0.00    +0.049 A 
ATOM      4  C   UNL     1      -0.030  -1.209  -4.717  0.00  0.00    +0.055 A 
ATOM      5  C   UNL     1      -1.398  -0.885  -4.758  0.00  0.00    +0.200 A 
ATOM      6  N   UNL     1      -2.321  -0.905  -5.709  0.00  0.00    -0.107 NA
ATOM      7  N   UNL     1      -3.450  -0.508  -5.239  0.00  0.00    -0.021 NA
ATOM      8  N   UNL     1      -3.347  -0.210  -3.987  0.00  0.00    -0.021 NA
ATOM      9  N   UNL     1      -2.015  -0.441  -3.620  0.00  0.00    -0.108 N 
ATOM     10  N   UNL     1      -1.295  -0.315  -2.432  0.00  0.00    -0.131 NA
ATOM     11  H   UNL     1       1.632  -0.695  -1.170  0.00  0.00    +0.148 HD
ENDROOT
BRANCH   1  13
ATOM     12  C   UNL     1      -0.019   1.526   0.010  0.00  0.00    +0.033 C 
ATOM     13  C   UNL     1       0.002  -0.004   0.002  0.00  0.00    +0.099 C 
BRANCH  13  14
ATOM     14  C   UNL     1       0.731  -0.503   1.223  0.00  0.00    -0.027 A 
ATOM     15  C   UNL     1       2.113  -0.514   1.246  0.00  0.00    +0.006 A 
ATOM     16  C   UNL     1       2.782  -0.971   2.366  0.00  0.00    +0.015 A 
ATOM     17  C   UNL     1       2.068  -1.418   3.463  0.00  0.00    +0.018 A 
ATOM     18  C   UNL     1       0.685  -1.408   3.439  0.00  0.00    +0.015 A 
ATOM     19  C   UNL     1       0.017  -0.945   2.321  0.00  0.00    +0.006 A 
ATOM     20 BR   UNL     1       2.983  -2.045   4.995  0.00  0.00    -0.050 Br
ENDBRANCH  13  14
ENDBRANCH   1  13
TORSDOF 2
