REMARK  Name = ZINC35888532
REMARK  12 active torsions:
REMARK  status: ('A' for Active; 'I' for Inactive)
REMARK    1  A    between atoms: C_1  and  C_2
REMARK    2  A    between atoms: C_5  and  C_8
REMARK    3  A    between atoms: N_11  and  C_29
REMARK    4  A    between atoms: C_13  and  C_15
REMARK    5  A    between atoms: C_15  and  N_16
REMARK    6  A    between atoms: N_16  and  C_17
REMARK    7  A    between atoms: C_17  and  C_18
REMARK    8  A    between atoms: C_24  and  C_26
REMARK    9  A    between atoms: C_26  and  C_27
REMARK   10  A    between atoms: C_26  and  C_28
REMARK   11  A    between atoms: C_29  and  C_30
REMARK   12  A    between atoms: C_35  and  O_36
REMARK                            x       y       z     vdW  Elec       q    Type
REMARK                         _______ _______ _______ _____ _____    ______ ____
ROOT
ATOM      1  C   UNL     1       1.105  -2.994  -0.669  0.00  0.00    +0.005 C 
ATOM      2  C   UNL     1      -0.060  -4.000  -0.550  0.00  0.00    -0.070 C 
ATOM      3  N   UNL     1       0.600  -5.328  -0.458  0.00  0.00    +0.383 N 
ATOM      4  C   UNL     1       1.785  -5.088   0.406  0.00  0.00    -0.073 C 
ATOM      5  C   UNL     1       2.321  -3.708  -0.043  0.00  0.00    -0.005 C 
ATOM      6  H   UNL     1       0.888  -5.643  -1.372  0.00  0.00    -0.081 HD
ENDROOT
BRANCH   1  11
ATOM      7  C   UNL     1      -0.111   1.841   2.252  0.00  0.00    +0.044 C 
ATOM      8  C   UNL     1       0.206   0.580   1.490  0.00  0.00    -0.050 A 
ATOM      9  C   UNL     1       0.802   0.656   0.245  0.00  0.00    +0.003 A 
ATOM     10  C   UNL     1       1.093  -0.500  -0.453  0.00  0.00    +0.004 A 
ATOM     11  C   UNL     1       0.789  -1.733   0.093  0.00  0.00    -0.046 A 
ATOM     12  C   UNL     1       0.194  -1.810   1.338  0.00  0.00    +0.004 A 
ATOM     13  C   UNL     1      -0.094  -0.653   2.039  0.00  0.00    +0.003 A 
ENDBRANCH   1  11
BRANCH   5  14
ATOM     14  C   UNL     1       2.836  -2.921   1.163  0.00  0.00    +0.110 C 
BRANCH  14  15
ATOM     15  N   UNL     1       4.048  -3.560   1.683  0.00  0.00    -0.297 N 
ATOM     16  C   UNL     1       3.967  -4.412   2.724  0.00  0.00    +0.218 C 
ATOM     17  O   UNL     1       2.884  -4.703   3.187  0.00  0.00    -0.275 OA
BRANCH  16  18
ATOM     18  C   UNL     1       5.221  -5.004   3.313  0.00  0.00    +0.069 C 
ATOM     19  C   UNL     1       4.920  -5.553   4.708  0.00  0.00    +0.017 C 
ATOM     20  C   UNL     1       5.720  -6.138   2.415  0.00  0.00    +0.017 C 
ENDBRANCH  16  18
BRANCH  15  21
ATOM     21  C   UNL     1       5.347  -3.273   1.070  0.00  0.00    +0.144 C 
BRANCH  21  22
ATOM     22  C   UNL     1       5.914  -2.009   1.663  0.00  0.00    -0.012 A 
ATOM     23  C   UNL     1       5.532  -0.770   1.170  0.00  0.00    +0.008 A 
ATOM     24  C   UNL     1       6.078   0.366   1.745  0.00  0.00    +0.020 A 
ATOM     25  C   UNL     1       6.980   0.228   2.784  0.00  0.00    +0.111 A 
ATOM     26  N   UNL     1       7.321  -0.966   3.227  0.00  0.00    -0.263 NA
ATOM     27  C   UNL     1       6.816  -2.068   2.707  0.00  0.00    +0.115 A 
ENDBRANCH  21  22
ENDBRANCH  15  21
ENDBRANCH  14  15
ENDBRANCH   5  14
BRANCH   3  28
ATOM     28  C   UNL     1      -0.301  -6.307   0.165  0.00  0.00    -0.039 C 
BRANCH  28  29
ATOM     29  C   UNL     1      -1.478  -6.555  -0.742  0.00  0.00    -0.022 A 
ATOM     30  C   UNL     1      -2.683  -5.924  -0.499  0.00  0.00    +0.005 A 
ATOM     31  C   UNL     1      -3.764  -6.152  -1.331  0.00  0.00    +0.000 A 
ATOM     32  C   UNL     1      -3.642  -7.011  -2.407  0.00  0.00    +0.004 A 
ATOM     33  C   UNL     1      -2.439  -7.644  -2.654  0.00  0.00    +0.045 A 
ATOM     34  C   UNL     1      -1.351  -7.413  -1.824  0.00  0.00    +0.118 A 
BRANCH  34  35
ATOM     35  O   UNL     1      -0.166  -8.030  -2.068  0.00  0.00    -0.507 OA
ATOM     36  H   UNL     1      -0.071  -8.887  -1.630  0.00  0.00    +0.292 HD
ENDBRANCH  34  35
ENDBRANCH  28  29
ENDBRANCH   3  28
TORSDOF 9
