REMARK  Name = ZINC59875320
REMARK  12 active torsions:
REMARK  status: ('A' for Active; 'I' for Inactive)
REMARK    1  A    between atoms: C_1  and  C_2
REMARK    2  A    between atoms: C_7  and  C_8
REMARK    3  A    between atoms: N_10  and  C_11
REMARK    4  A    between atoms: C_11  and  C_13
REMARK    5  A    between atoms: C_11  and  C_16
REMARK    6  A    between atoms: C_13  and  C_14
REMARK    7  A    between atoms: C_13  and  C_15
REMARK    8  A    between atoms: C_21  and  C_24
REMARK    9  A    between atoms: C_27  and  C_30
REMARK   10  A    between atoms: C_30  and  C_32
REMARK   11  A    between atoms: C_30  and  N_33
REMARK   12  A    between atoms: C_34  and  C_36
REMARK                            x       y       z     vdW  Elec       q    Type
REMARK                         _______ _______ _______ _____ _____    ______ ____
ROOT
ATOM      1  C   UNL     1       1.397  -0.746   5.863  0.00  0.00    +0.239 C 
ATOM      2  O   UNL     1       1.843  -1.822   5.527  0.00  0.00    -0.273 OA
ATOM      3  N   UNL     1       1.635  -0.276   7.104  0.00  0.00    -0.263 N 
ATOM      4  C   UNL     1       2.390  -1.025   7.998  0.00  0.00    +0.165 A 
ATOM      5  N   UNL     1       2.727  -0.748   9.243  0.00  0.00    -0.225 NA
ATOM      6  C   UNL     1       3.461  -1.586   9.960  0.00  0.00    +0.080 A 
ATOM      7  C   UNL     1       3.878  -2.761   9.399  0.00  0.00    +0.076 A 
ATOM      8  S   UNL     1       3.158  -2.623   7.768  0.00  0.00    -0.060 S 
ATOM      9  H   UNL     1       1.279   0.585   7.373  0.00  0.00    +0.157 HD
ENDROOT
BRANCH   6  10
ATOM     10  C   UNL     1       3.827  -1.253  11.358  0.00  0.00    +0.001 A 
ATOM     11  C   UNL     1       4.605  -2.135  12.107  0.00  0.00    +0.010 A 
ATOM     12  C   UNL     1       4.942  -1.820  13.407  0.00  0.00    +0.006 A 
ATOM     13  C   UNL     1       4.511  -0.631  13.968  0.00  0.00    -0.027 A 
ATOM     14  C   UNL     1       3.739   0.248  13.230  0.00  0.00    +0.006 A 
ATOM     15  C   UNL     1       3.400  -0.054  11.927  0.00  0.00    +0.010 A 
BRANCH  13  16
ATOM     16  C   UNL     1       4.882  -0.293  15.389  0.00  0.00    +0.100 C 
ATOM     17  C   UNL     1       3.705  -0.608  16.313  0.00  0.00    +0.033 C 
BRANCH  16  18
ATOM     18  N   UNL     1       5.208   1.132  15.482  0.00  0.00    -0.309 N 
ATOM     19  C   UNL     1       6.024   1.575  16.460  0.00  0.00    +0.210 C 
ATOM     20  O   UNL     1       6.489   0.793  17.262  0.00  0.00    -0.276 OA
ATOM     21  C   UNL     1       6.359   3.041  16.556  0.00  0.00    +0.109 C 
ATOM     22  H   UNL     1       4.837   1.758  14.841  0.00  0.00    +0.149 HD
ENDBRANCH  16  18
ENDBRANCH  13  16
ENDBRANCH   6  10
BRANCH   1  23
ATOM     23  C   UNL     1       0.578   0.067   4.894  0.00  0.00    +0.162 C 
BRANCH  23  26
ATOM     24  C   UNL     1       0.242   0.021   2.481  0.00  0.00    +0.245 C 
ATOM     25  O   UNL     1       0.135   1.232   2.503  0.00  0.00    -0.270 OA
ATOM     26  N   UNL     1       0.465  -0.656   3.625  0.00  0.00    -0.300 N 
ATOM     27  H   UNL     1       0.551  -1.622   3.607  0.00  0.00    +0.150 HD
BRANCH  24  34
ATOM     28  C   UNL     1      -0.511   1.452   0.082  0.00  0.00    +0.044 C 
ATOM     29  C   UNL     1      -0.234  -0.028   0.036  0.00  0.00    -0.038 A 
ATOM     30  C   UNL     1      -0.334  -0.714  -1.157  0.00  0.00    +0.004 A 
ATOM     31  C   UNL     1      -0.080  -2.073  -1.200  0.00  0.00    +0.000 A 
ATOM     32  C   UNL     1       0.275  -2.754  -0.049  0.00  0.00    +0.001 A 
ATOM     33  C   UNL     1       0.378  -2.081   1.150  0.00  0.00    +0.013 A 
ATOM     34  C   UNL     1       0.128  -0.708   1.200  0.00  0.00    +0.040 A 
ENDBRANCH  24  34
ENDBRANCH  23  26
BRANCH  23  35
ATOM     35  C   UNL     1      -0.818   0.298   5.475  0.00  0.00    +0.012 C 
ATOM     36  C   UNL     1      -1.650   1.123   4.491  0.00  0.00    +0.009 C 
ATOM     37  C   UNL     1      -1.501  -1.050   5.715  0.00  0.00    +0.009 C 
ENDBRANCH  23  35
ENDBRANCH   1  23
TORSDOF 7
