REMARK  Name = ZINC60851148
REMARK  6 active torsions:
REMARK  status: ('A' for Active; 'I' for Inactive)
REMARK    1  A    between atoms: C_3  and  N_25
REMARK    2  A    between atoms: C_4  and  N_22
REMARK    3  A    between atoms: C_6  and  C_7
REMARK    4  A    between atoms: C_7  and  C_9
REMARK    5  A    between atoms: C_9  and  C_10
REMARK    6  A    between atoms: C_9  and  C_12
REMARK                            x       y       z     vdW  Elec       q    Type
REMARK                         _______ _______ _______ _____ _____    ______ ____
ROOT
ATOM      1  C   UNL     1      -1.258  -0.757   0.011  0.00  0.00    +0.187 C 
ATOM      2  O   UNL     1      -1.239  -1.970   0.004  0.00  0.00    -0.290 OA
ENDROOT
BRANCH   1   8
ATOM      3  C   UNL     1      -0.017   1.397   0.010  0.00  0.00    +0.013 A 
ATOM      4  C   UNL     1       1.157   2.094   0.002  0.00  0.00    +0.026 A 
ATOM      5  C   UNL     1       2.373   1.414  -0.013  0.00  0.00    +0.060 A 
ATOM      6  C   UNL     1       2.397   0.020  -0.021  0.00  0.00    +0.148 A 
ATOM      7  C   UNL     1       1.227  -0.684  -0.013  0.00  0.00    +0.046 A 
ATOM      8  C   UNL     1       0.002  -0.004   0.002  0.00  0.00    +0.021 A 
BRANCH   5   9
ATOM      9  N   UNL     1       3.565   2.126  -0.022  0.00  0.00    -0.328 N 
ATOM     10  C   UNL     1       4.285   2.578  -1.222  0.00  0.00    +0.105 C 
ATOM     11  C   UNL     1       5.562   3.302  -0.745  0.00  0.00    +0.020 C 
ATOM     12  C   UNL     1       5.777   2.725   0.679  0.00  0.00    +0.020 C 
ATOM     13  C   UNL     1       4.315   2.561   1.171  0.00  0.00    +0.105 C 
ENDBRANCH   5   9
BRANCH   6  14
ATOM     14  N   UNL     1       3.691  -0.697  -0.038  0.00  0.00    +0.058 N 
ATOM     15  O   UNL     1       3.713  -1.905  -0.045  0.00  0.00    -0.126 OA
ATOM     16  O   UNL     1       4.727  -0.074  -0.046  0.00  0.00    -0.126 OA
ENDBRANCH   6  14
ENDBRANCH   1   8
BRANCH   1  17
ATOM     17  C   UNL     1      -2.574  -0.024   0.028  0.00  0.00    +0.230 C 
BRANCH  17  18
ATOM     18  C   UNL     1      -3.604  -0.858   0.744  0.00  0.00    +0.158 A 
ATOM     19  N   UNL     1      -4.001  -2.058   0.409  0.00  0.00    -0.133 NA
ATOM     20  N   UNL     1      -4.885  -2.472   1.248  0.00  0.00    -0.134 NA
ATOM     21  C   UNL     1      -5.089  -1.558   2.154  0.00  0.00    +0.133 A 
ATOM     22  N   UNL     1      -4.288  -0.508   1.856  0.00  0.00    -0.313 N 
ATOM     23  C   UNL     1      -4.201   0.756   2.587  0.00  0.00    +0.125 C 
ATOM     24  C   UNL     1      -4.559   0.518   4.057  0.00  0.00    +0.022 C 
ATOM     25  C   UNL     1      -6.065   0.684   4.254  0.00  0.00    +0.002 C 
ATOM     26  C   UNL     1      -6.829  -0.339   3.420  0.00  0.00    +0.008 C 
ATOM     27  C   UNL     1      -6.027  -1.635   3.331  0.00  0.00    +0.076 C 
ENDBRANCH  17  18
BRANCH  17  28
ATOM     28  C   UNL     1      -3.016   0.223  -1.355  0.00  0.00    +0.082 C 
ATOM     29  N   UNL     1      -3.358   0.413  -2.421  0.00  0.00    -0.195 NA
ENDBRANCH  17  28
ENDBRANCH   1  17
TORSDOF 6
