REMARK  Name = ZINC36063484
REMARK  16 active torsions:
REMARK  status: ('A' for Active; 'I' for Inactive)
REMARK    1  A    between atoms: C_1  and  C_2
REMARK    2  A    between atoms: C_3  and  C_30
REMARK    3  A    between atoms: C_4  and  C_21
REMARK    4  A    between atoms: C_7  and  C_12
REMARK    5  A    between atoms: C_13  and  N_15
REMARK    6  A    between atoms: N_15  and  C_16
REMARK    7  A    between atoms: C_16  and  C_17
REMARK    8  A    between atoms: C_17  and  N_18
REMARK    9  A    between atoms: N_18  and  C_19
REMARK   10  A    between atoms: N_18  and  C_20
REMARK   11  A    between atoms: C_24  and  C_27
REMARK   12  A    between atoms: C_27  and  C_28
REMARK   13  A    between atoms: C_27  and  C_29
REMARK   14  A    between atoms: C_30  and  O_32
REMARK   15  A    between atoms: O_32  and  C_33
REMARK   16  A    between atoms: C_33  and  C_34
REMARK                            x       y       z     vdW  Elec       q    Type
REMARK                         _______ _______ _______ _____ _____    ______ ____
ROOT
ATOM      1  C   UNL     1       0.344   1.178   0.861  0.00  0.00    +0.066 C 
ATOM      2  C   UNL     1       0.266  -0.280   0.489  0.00  0.00    +0.053 C 
ATOM      3  C   UNL     1      -0.963  -0.910   0.438  0.00  0.00    +0.082 C 
ATOM      4  C   UNL     1      -0.990  -2.374   0.059  0.00  0.00    +0.150 C 
ATOM      5  N   UNL     1       0.317  -3.022  -0.230  0.00  0.00    -0.267 N 
ATOM      6  C   UNL     1       0.530  -4.337  -0.593  0.00  0.00    +0.048 C 
ATOM      7  C   UNL     1       1.804  -4.728  -0.812  0.00  0.00    +0.072 C 
ATOM      8  S   UNL     1       2.710  -3.225  -0.503  0.00  0.00    -0.060 S 
ATOM      9  C   UNL     1       1.419  -2.221  -0.123  0.00  0.00    +0.166 C 
ATOM     10  N   UNL     1       1.373  -0.948   0.208  0.00  0.00    -0.230 NA
ENDROOT
BRANCH   4  11
ATOM     11  C   UNL     1      -1.645  -3.132   1.185  0.00  0.00    -0.022 A 
ATOM     12  C   UNL     1      -0.959  -3.346   2.365  0.00  0.00    +0.006 A 
ATOM     13  C   UNL     1      -1.559  -4.042   3.398  0.00  0.00    +0.004 A 
ATOM     14  C   UNL     1      -2.846  -4.524   3.250  0.00  0.00    -0.045 A 
ATOM     15  C   UNL     1      -3.533  -4.310   2.069  0.00  0.00    +0.004 A 
ATOM     16  C   UNL     1      -2.934  -3.610   1.038  0.00  0.00    +0.006 A 
BRANCH  14  17
ATOM     17  C   UNL     1      -3.500  -5.283   4.375  0.00  0.00    +0.013 C 
ATOM     18  C   UNL     1      -4.770  -4.551   4.814  0.00  0.00    +0.012 C 
ATOM     19  C   UNL     1      -3.862  -6.691   3.897  0.00  0.00    +0.012 C 
ENDBRANCH  14  17
ENDBRANCH   4  11
BRANCH   6  20
ATOM     20  C   UNL     1      -0.590  -5.279  -0.735  0.00  0.00    +0.091 C 
ATOM     21  C   UNL     1      -0.348  -6.584  -0.962  0.00  0.00    +0.239 C 
ATOM     22  O   UNL     1       0.923  -7.052  -0.936  0.00  0.00    -0.271 OA
BRANCH  21  23
ATOM     23  N   UNL     1      -1.399  -7.448  -1.221  0.00  0.00    -0.314 N 
ATOM     24  H   UNL     1      -2.313  -7.130  -1.167  0.00  0.00    +0.149 HD
BRANCH  23  25
ATOM     25  C   UNL     1      -1.129  -8.843  -1.579  0.00  0.00    +0.086 C 
BRANCH  25  26
ATOM     26  C   UNL     1      -2.443  -9.542  -1.933  0.00  0.00    -0.061 C 
BRANCH  26  27
ATOM     27  N   UNL     1      -2.172 -10.941  -2.291  0.00  0.00    +0.377 N 
ATOM     28  C   UNL     1      -3.442 -11.644  -2.514  0.00  0.00    -0.097 C 
ATOM     29  C   UNL     1      -1.365 -10.985  -3.518  0.00  0.00    -0.097 C 
ATOM     30  H   UNL     1      -1.667 -11.389  -1.540  0.00  0.00    -0.083 HD
ENDBRANCH  26  27
ENDBRANCH  25  26
ENDBRANCH  23  25
ENDBRANCH  21  23
ENDBRANCH   6  20
BRANCH   3  31
ATOM     31  C   UNL     1      -2.144  -0.216   0.728  0.00  0.00    +0.339 C 
ATOM     32  O   UNL     1      -2.099   0.964   1.031  0.00  0.00    -0.245 OA
BRANCH  31  33
ATOM     33  O   UNL     1      -3.334  -0.854   0.671  0.00  0.00    -0.457 OA
BRANCH  33  34
ATOM     34  C   UNL     1      -4.498  -0.085   0.979  0.00  0.00    +0.268 C 
BRANCH  34  35
ATOM     35  C   UNL     1      -5.722  -0.957   0.864  0.00  0.00    -0.010 A 
ATOM     36  C   UNL     1      -6.386  -1.060  -0.344  0.00  0.00    +0.007 A 
ATOM     37  C   UNL     1      -7.508  -1.860  -0.450  0.00  0.00    +0.000 A 
ATOM     38  C   UNL     1      -7.966  -2.557   0.652  0.00  0.00    +0.000 A 
ATOM     39  C   UNL     1      -7.302  -2.454   1.860  0.00  0.00    +0.000 A 
ATOM     40  C   UNL     1      -6.177  -1.658   1.964  0.00  0.00    +0.007 A 
ENDBRANCH  34  35
ENDBRANCH  33  34
ENDBRANCH  31  33
ENDBRANCH   3  31
TORSDOF 11
