REMARK  Name = ZINC00666433
REMARK  8 active torsions:
REMARK  status: ('A' for Active; 'I' for Inactive)
REMARK    1  A    between atoms: C_1  and  C_2
REMARK    2  A    between atoms: C_3  and  C_20
REMARK    3  A    between atoms: C_4  and  C_10
REMARK    4  A    between atoms: C_12  and  O_18
REMARK    5  A    between atoms: C_13  and  O_17
REMARK    6  A    between atoms: O_18  and  C_19
REMARK    7  A    between atoms: C_20  and  O_22
REMARK    8  A    between atoms: O_22  and  C_23
REMARK                            x       y       z     vdW  Elec       q    Type
REMARK                         _______ _______ _______ _____ _____    ______ ____
ROOT
ATOM      1  C   UNL     1       0.148   1.466   0.003  0.00  0.00    +0.061 C 
ATOM      2  C   UNL     1       0.061  -0.037   0.081  0.00  0.00    +0.021 C 
ATOM      3  C   UNL     1      -1.146  -0.637   0.002  0.00  0.00    +0.078 C 
ATOM      4  C   UNL     1      -1.188  -2.150   0.085  0.00  0.00    +0.144 C 
ATOM      5  N   UNL     1       0.100  -2.845   0.246  0.00  0.00    -0.288 N 
ATOM      6  C   UNL     1       1.225  -2.105   0.309  0.00  0.00    +0.304 C 
ATOM      7  O   UNL     1       2.293  -2.670   0.441  0.00  0.00    -0.252 OA
ATOM      8  N   UNL     1       1.204  -0.769   0.225  0.00  0.00    -0.273 N 
ATOM      9  H   UNL     1       0.138  -3.812   0.305  0.00  0.00    +0.151 HD
ATOM     10  H   UNL     1       2.049  -0.294   0.273  0.00  0.00    +0.156 HD
ENDROOT
BRANCH   4  11
ATOM     11  C   UNL     1      -2.067  -2.527   1.249  0.00  0.00    -0.018 A 
ATOM     12  C   UNL     1      -1.605  -2.367   2.543  0.00  0.00    +0.055 A 
ATOM     13  C   UNL     1      -2.412  -2.713   3.615  0.00  0.00    +0.163 A 
ATOM     14  C   UNL     1      -3.687  -3.222   3.386  0.00  0.00    +0.173 A 
ATOM     15  C   UNL     1      -4.145  -3.379   2.088  0.00  0.00    +0.063 A 
ATOM     16  C   UNL     1      -3.336  -3.027   1.022  0.00  0.00    +0.025 A 
ATOM     17 BR   UNL     1      -5.877  -4.069   1.772  0.00  0.00    -0.046 Br
BRANCH  14  18
ATOM     18  O   UNL     1      -4.483  -3.563   4.435  0.00  0.00    -0.503 OA
ATOM     19  H   UNL     1      -5.042  -2.843   4.756  0.00  0.00    +0.292 HD
ENDBRANCH  14  18
BRANCH  13  20
ATOM     20  O   UNL     1      -1.958  -2.557   4.887  0.00  0.00    -0.491 OA
ATOM     21  C   UNL     1      -0.687  -1.925   5.050  0.00  0.00    +0.277 C 
ENDBRANCH  13  20
ENDBRANCH   4  11
BRANCH   3  22
ATOM     22  C   UNL     1      -2.331   0.120  -0.152  0.00  0.00    +0.339 C 
ATOM     23  O   UNL     1      -2.287   1.335  -0.107  0.00  0.00    -0.245 OA
BRANCH  22  24
ATOM     24  O   UNL     1      -3.511  -0.505  -0.348  0.00  0.00    -0.458 OA
BRANCH  24  25
ATOM     25  C   UNL     1      -4.648   0.321  -0.606  0.00  0.00    +0.177 C 
ATOM     26  C   UNL     1      -5.255   0.782   0.720  0.00  0.00    +0.044 C 
ATOM     27  C   UNL     1      -6.473   1.667   0.443  0.00  0.00    +0.004 C 
ATOM     28  C   UNL     1      -7.514   0.869  -0.344  0.00  0.00    +0.000 C 
ATOM     29  C   UNL     1      -6.907   0.407  -1.671  0.00  0.00    +0.004 C 
ATOM     30  C   UNL     1      -5.689  -0.477  -1.394  0.00  0.00    +0.044 C 
ENDBRANCH  24  25
ENDBRANCH  22  24
ENDBRANCH   3  22
TORSDOF 6
