REMARK  Name = ZINC03257073
REMARK  6 active torsions:
REMARK  status: ('A' for Active; 'I' for Inactive)
REMARK    1  A    between atoms: C_1  and  C_2
REMARK    2  A    between atoms: C_2  and  C_7
REMARK    3  A    between atoms: N_9  and  C_10
REMARK    4  A    between atoms: C_10  and  N_12
REMARK    5  A    between atoms: N_12  and  C_13
REMARK    6  A    between atoms: C_14  and  C_23
REMARK                            x       y       z     vdW  Elec       q    Type
REMARK                         _______ _______ _______ _____ _____    ______ ____
ROOT
ATOM      1  N   UNL     1       1.137   2.397   0.004  0.00  0.00    -0.290 N 
ATOM      2  H   UNL     1       1.124   3.367   0.009  0.00  0.00    +0.154 HD
ENDROOT
BRANCH   1   3
ATOM      3  C   UNL     1       2.347   1.720  -0.011  0.00  0.00    +0.089 A 
ATOM      4  C   UNL     1       3.628   2.247  -0.026  0.00  0.00    +0.084 A 
ATOM      5  C   UNL     1       4.746   1.313  -0.032  0.00  0.00    -0.018 A 
ATOM      6  C   UNL     1       4.396   0.008  -0.041  0.00  0.00    -0.004 A 
ATOM      7  S   UNL     1       2.624   0.011  -0.024  0.00  0.00    -0.077 S 
ATOM      8  C   UNL     1       5.304  -1.182  -0.074  0.00  0.00    +0.043 C 
ATOM      9  C   UNL     1       6.392  -1.019   0.996  0.00  0.00    +0.005 C 
ATOM     10  C   UNL     1       7.575  -0.283   0.372  0.00  0.00    +0.001 C 
ATOM     11  C   UNL     1       7.081   0.712  -0.676  0.00  0.00    +0.005 C 
ATOM     12  C   UNL     1       6.198   1.773  -0.029  0.00  0.00    +0.037 C 
BRANCH   4  13
ATOM     13  C   UNL     1       3.847   3.662  -0.032  0.00  0.00    +0.102 C 
ATOM     14  N   UNL     1       4.020   4.785  -0.036  0.00  0.00    -0.191 NA
ENDBRANCH   4  13
ENDBRANCH   1   3
BRANCH   1  15
ATOM     15  C   UNL     1      -0.021   1.708   0.011  0.00  0.00    +0.141 C 
ATOM     16  S   UNL     1       0.002  -0.004   0.002  0.00  0.00    -0.018 S 
BRANCH  15  19
ATOM     17  C   UNL     1      -2.355   1.676   0.022  0.00  0.00    +0.227 C 
ATOM     18  O   UNL     1      -2.339   0.464   0.016  0.00  0.00    -0.275 OA
ATOM     19  N   UNL     1      -1.197   2.366   0.021  0.00  0.00    -0.267 N 
ATOM     20  H   UNL     1      -1.210   3.336   0.026  0.00  0.00    +0.157 HD
BRANCH  17  22
ATOM     21  C   UNL     1      -3.694   3.733  -0.739  0.00  0.00    +0.024 C 
ATOM     22  C   UNL     1      -3.671   2.412   0.033  0.00  0.00    +0.080 C 
ATOM     23  C   UNL     1      -4.522   2.318   1.300  0.00  0.00    +0.058 C 
ATOM     24  C   UNL     1      -4.950   1.572   0.034  0.00  0.00    +0.133 C 
ATOM     25 CL   UNL     1      -6.369   2.216  -0.873  0.00  0.00    -0.100 Cl
ATOM     26 CL   UNL     1      -4.768  -0.222   0.023  0.00  0.00    -0.100 Cl
ENDBRANCH  17  22
ENDBRANCH  15  19
ENDBRANCH   1  15
TORSDOF 5
