REMARK  Name = ZINC04307034
REMARK  4 active torsions:
REMARK  status: ('A' for Active; 'I' for Inactive)
REMARK    1  A    between atoms: C_1  and  C_2
REMARK    2  A    between atoms: C_2  and  C_22
REMARK    3  A    between atoms: N_5  and  C_9
REMARK    4  A    between atoms: C_9  and  C_10
REMARK                            x       y       z     vdW  Elec       q    Type
REMARK                         _______ _______ _______ _____ _____    ______ ____
ROOT
ATOM      1  C   UNL     1       8.147  -3.237  -0.687  0.00  0.00    +0.047 C 
ATOM      2  C   UNL     1       6.957  -3.339   0.268  0.00  0.00    +0.136 C 
ATOM      3  C   UNL     1       5.853  -2.389  -0.152  0.00  0.00    +0.251 C 
ATOM      4  O   UNL     1       5.239  -2.396  -1.198  0.00  0.00    -0.272 OA
ATOM      5  N   UNL     1       5.696  -1.534   0.878  0.00  0.00    -0.215 N 
ATOM      6  C   UNL     1       6.542  -1.807   1.879  0.00  0.00    +0.310 C 
ATOM      7  O   UNL     1       6.592  -1.171   2.913  0.00  0.00    -0.252 OA
ATOM      8  N   UNL     1       7.328  -2.865   1.613  0.00  0.00    -0.281 N 
ATOM      9  H   UNL     1       8.010  -3.241   2.192  0.00  0.00    +0.152 HD
ENDROOT
BRANCH   2  10
ATOM     10  C   UNL     1       6.444  -4.755   0.325  0.00  0.00    -0.008 A 
ATOM     11  C   UNL     1       6.428  -5.431   1.506  0.00  0.00    +0.007 A 
ATOM     12  C   UNL     1       5.958  -6.740   1.578  0.00  0.00    +0.001 A 
ATOM     13  C   UNL     1       5.500  -7.382   0.468  0.00  0.00    +0.008 A 
ATOM     14  C   UNL     1       5.500  -6.717  -0.770  0.00  0.00    -0.018 A 
ATOM     15  C   UNL     1       5.974  -5.383  -0.841  0.00  0.00    -0.012 A 
ATOM     16  C   UNL     1       5.980  -4.720  -2.080  0.00  0.00    +0.009 A 
ATOM     17  C   UNL     1       5.522  -5.361  -3.190  0.00  0.00    +0.001 A 
ATOM     18  C   UNL     1       5.051  -6.671  -3.118  0.00  0.00    +0.001 A 
ATOM     19  C   UNL     1       5.036  -7.347  -1.937  0.00  0.00    +0.008 A 
ENDBRANCH   2  10
BRANCH   5  20
ATOM     20  C   UNL     1       4.724  -0.439   0.898  0.00  0.00    +0.214 C 
BRANCH  20  21
ATOM     21  C   UNL     1       3.423  -0.931   1.478  0.00  0.00    +0.238 C 
ATOM     22  O   UNL     1       3.349  -2.053   1.934  0.00  0.00    -0.274 OA
ATOM     23  N   UNL     1       2.343  -0.126   1.490  0.00  0.00    -0.270 N 
ATOM     24  C   UNL     1       2.451   1.276   1.064  0.00  0.00    +0.114 C 
ATOM     25  C   UNL     1       1.688   2.135   2.081  0.00  0.00    +0.024 C 
ATOM     26  C   UNL     1       0.210   1.747   2.044  0.00  0.00    +0.038 C 
ATOM     27  C   UNL     1       0.052   0.256   2.186  0.00  0.00    -0.026 A 
ATOM     28  C   UNL     1       1.096  -0.612   1.909  0.00  0.00    +0.039 A 
ATOM     29  C   UNL     1       0.915  -1.984   2.045  0.00  0.00    +0.024 A 
ATOM     30  C   UNL     1      -0.304  -2.482   2.460  0.00  0.00    +0.002 A 
ATOM     31  C   UNL     1      -1.344  -1.615   2.739  0.00  0.00    +0.000 A 
ATOM     32  C   UNL     1      -1.167  -0.252   2.603  0.00  0.00    +0.005 A 
ENDBRANCH  20  21
ENDBRANCH   5  20
TORSDOF 3
