REMARK  Name = ZINC40988808
REMARK  5 active torsions:
REMARK  status: ('A' for Active; 'I' for Inactive)
REMARK    1  A    between atoms: C_1  and  C_2
REMARK    2  A    between atoms: C_3  and  C_7
REMARK    3  A    between atoms: C_7  and  N_8
REMARK    4  A    between atoms: C_14  and  C_16
REMARK    5  A    between atoms: N_19  and  C_21
REMARK                            x       y       z     vdW  Elec       q    Type
REMARK                         _______ _______ _______ _____ _____    ______ ____
ROOT
ATOM      1  C   UNL     1       4.409   0.126  -6.928  0.00  0.00    +0.151 A 
ATOM      2  C   UNL     1       5.081  -0.174  -8.125  0.00  0.00    +0.006 A 
ATOM      3  C   UNL     1       4.783   0.834  -8.982  0.00  0.00    +0.044 A 
ATOM      4  N   UNL     1       3.975   1.685  -8.328  0.00  0.00    -0.263 N 
ATOM      5  N   UNL     1       3.760   1.259  -7.131  0.00  0.00    -0.166 NA
ATOM      6  C   UNL     1       5.303   0.917 -10.394  0.00  0.00    +0.055 C 
ATOM      7  C   UNL     1       6.492  -0.041 -10.528  0.00  0.00    +0.006 C 
ATOM      8  C   UNL     1       6.106  -1.420  -9.985  0.00  0.00    +0.005 C 
ATOM      9  C   UNL     1       5.960  -1.348  -8.459  0.00  0.00    +0.039 C 
ENDROOT
BRANCH   1  16
ATOM     10  N   UNL     1       3.555   1.061  -2.102  0.00  0.00    -0.294 NA
ATOM     11  C   UNL     1       3.832   1.876  -3.292  0.00  0.00    +0.104 C 
ATOM     12  C   UNL     1       3.280   1.166  -4.533  0.00  0.00    +0.123 C 
ATOM     13  N   UNL     1       3.827  -0.198  -4.573  0.00  0.00    -0.294 N 
ATOM     14  C   UNL     1       3.709  -1.031  -3.366  0.00  0.00    +0.123 C 
ATOM     15  C   UNL     1       4.244  -0.234  -2.171  0.00  0.00    +0.104 C 
ATOM     16  C   UNL     1       4.421  -0.673  -5.686  0.00  0.00    +0.267 C 
ATOM     17  O   UNL     1       4.966  -1.760  -5.667  0.00  0.00    -0.268 OA
BRANCH  10  18
ATOM     18  C   UNL     1       3.913   1.784  -0.874  0.00  0.00    +0.145 C 
BRANCH  18  21
ATOM     19  C   UNL     1       1.154   1.798   0.647  0.00  0.00    +0.071 C 
ATOM     20  C   UNL     1       1.779   2.988  -0.034  0.00  0.00    +0.106 A 
ATOM     21  C   UNL     1       3.012   2.982  -0.715  0.00  0.00    +0.121 A 
ATOM     22  N   UNL     1       3.253   4.169  -1.184  0.00  0.00    -0.052 NA
ATOM     23  O   UNL     1       2.163   5.000  -0.816  0.00  0.00    -0.242 OA
ATOM     24  N   UNL     1       1.261   4.179  -0.090  0.00  0.00    -0.054 NA
ENDBRANCH  18  21
ENDBRANCH  10  18
ENDBRANCH   1  16
BRANCH   4  25
ATOM     25  C   UNL     1       3.416   2.915  -8.895  0.00  0.00    +0.130 C 
ATOM     26  C   UNL     1       1.881   2.843  -8.858  0.00  0.00    +0.051 C 
ATOM     27  C   UNL     1       1.321   4.261  -9.165  0.00  0.00    +0.168 C 
ATOM     28  S   UNL     1       2.497   5.303  -8.201  0.00  0.00    -0.029 S 
ATOM     29  O   UNL     1       1.961   5.527  -6.904  0.00  0.00    -0.174 OA
ATOM     30  O   UNL     1       2.890   6.413  -8.997  0.00  0.00    -0.174 OA
ATOM     31  C   UNL     1       3.906   4.130  -8.071  0.00  0.00    +0.192 C 
ENDBRANCH   4  25
TORSDOF 4
