REMARK  Name = ZINC22288945
REMARK  7 active torsions:
REMARK  status: ('A' for Active; 'I' for Inactive)
REMARK    1  A    between atoms: C_1  and  C_2
REMARK    2  A    between atoms: C_2  and  C_3
REMARK    3  A    between atoms: C_3  and  N_4
REMARK    4  A    between atoms: C_13  and  C_15
REMARK    5  A    between atoms: C_15  and  N_17
REMARK    6  A    between atoms: C_20  and  C_23
REMARK    7  A    between atoms: C_23  and  N_24
REMARK                            x       y       z     vdW  Elec       q    Type
REMARK                         _______ _______ _______ _____ _____    ______ ____
ROOT
ATOM      1  C   UNL     1      -1.464  -4.662   2.540  0.00  0.00    +0.290 C 
ATOM      2  O   UNL     1      -1.557  -5.877   2.491  0.00  0.00    -0.266 OA
ENDROOT
BRANCH   1  12
ATOM      3  N   UNL     1       0.751  -1.976   1.215  0.00  0.00    -0.228 N 
ATOM      4  C   UNL     1       1.788  -2.614   0.634  0.00  0.00    +0.275 A 
ATOM      5  O   UNL     1       2.686  -1.982   0.107  0.00  0.00    -0.266 OA
ATOM      6  C   UNL     1       1.818  -4.082   0.648  0.00  0.00    +0.050 A 
ATOM      7  C   UNL     1       2.860  -4.803   0.066  0.00  0.00    +0.014 A 
ATOM      8  C   UNL     1       2.838  -6.180   0.107  0.00  0.00    +0.001 A 
ATOM      9  C   UNL     1       1.791  -6.854   0.721  0.00  0.00    +0.001 A 
ATOM     10  C   UNL     1       0.751  -6.161   1.301  0.00  0.00    +0.011 A 
ATOM     11  C   UNL     1       0.753  -4.768   1.272  0.00  0.00    +0.020 A 
ATOM     12  C   UNL     1      -0.331  -3.979   1.877  0.00  0.00    +0.156 A 
ATOM     13  N   UNL     1      -0.289  -2.671   1.832  0.00  0.00    -0.163 NA
BRANCH   3  14
ATOM     14  C   UNL     1       0.720  -0.511   1.204  0.00  0.00    +0.147 C 
BRANCH  14  16
ATOM     15  C   UNL     1      -0.046   1.503  -0.061  0.00  0.00    +0.005 C 
ATOM     16  C   UNL     1      -0.014  -0.027  -0.048  0.00  0.00    +0.020 C 
ENDBRANCH  14  16
ENDBRANCH   3  14
ENDBRANCH   1  12
BRANCH   1  17
ATOM     17  N   UNL     1      -2.385  -3.949   3.193  0.00  0.00    -0.151 NA
ATOM     18  C   UNL     1      -3.404  -4.563   3.789  0.00  0.00    +0.163 A 
ATOM     19  N   UNL     1      -4.433  -4.010   4.489  0.00  0.00    -0.341 N 
ATOM     20  C   UNL     1      -5.379  -4.830   5.021  0.00  0.00    +0.008 A 
ATOM     21  C   UNL     1      -5.236  -6.144   4.819  0.00  0.00    +0.067 A 
ATOM     22  S   UNL     1      -3.738  -6.210   3.854  0.00  0.00    -0.061 S 
ATOM     23  H   UNL     1      -4.489  -3.049   4.607  0.00  0.00    +0.167 HD
BRANCH  20  24
ATOM     24  C   UNL     1      -6.541  -4.279   5.807  0.00  0.00    -0.024 C 
BRANCH  24  25
ATOM     25  N   UNL     1      -6.045  -3.647   7.037  0.00  0.00    +0.383 N 
ATOM     26  C   UNL     1      -5.432  -4.666   7.897  0.00  0.00    -0.078 C 
ATOM     27  C   UNL     1      -4.842  -4.001   9.142  0.00  0.00    -0.019 C 
ATOM     28  C   UNL     1      -5.958  -3.287   9.910  0.00  0.00    -0.004 C 
ATOM     29  C   UNL     1      -6.639  -2.278   8.980  0.00  0.00    -0.019 C 
ATOM     30  C   UNL     1      -7.162  -3.007   7.741  0.00  0.00    -0.078 C 
ATOM     31  H   UNL     1      -5.354  -2.950   6.800  0.00  0.00    -0.081 HD
ENDBRANCH  24  25
ENDBRANCH  20  24
ENDBRANCH   1  17
TORSDOF 6
