REMARK  Name = ZINC39711471
REMARK  10 active torsions:
REMARK  status: ('A' for Active; 'I' for Inactive)
REMARK    1  A    between atoms: C_1  and  C_2
REMARK    2  A    between atoms: C_2  and  O_3
REMARK    3  A    between atoms: O_3  and  C_4
REMARK    4  A    between atoms: C_11  and  C_16
REMARK    5  A    between atoms: C_16  and  C_18
REMARK    6  A    between atoms: C_16  and  N_28
REMARK    7  A    between atoms: N_23  and  C_24
REMARK    8  A    between atoms: C_24  and  C_25
REMARK    9  A    between atoms: C_24  and  C_26
REMARK   10  A    between atoms: C_24  and  C_27
REMARK                            x       y       z     vdW  Elec       q    Type
REMARK                         _______ _______ _______ _____ _____    ______ ____
ROOT
ATOM      1  C   UNL     1      -4.942  -6.331   1.173  0.00  0.00    -0.010 C 
ENDROOT
BRANCH   1   9
ATOM      2  C   UNL     1      -1.792  -1.474   0.419  0.00  0.00    +0.121 A 
ATOM      3  C   UNL     1      -0.655  -2.210   0.067  0.00  0.00    +0.047 A 
ATOM      4  C   UNL     1      -0.701  -3.537  -0.214  0.00  0.00    +0.027 A 
ATOM      5  C   UNL     1      -1.921  -4.238  -0.161  0.00  0.00    +0.041 A 
ATOM      6  N   UNL     1      -1.951  -5.542  -0.439  0.00  0.00    -0.285 N 
ATOM      7  C   UNL     1      -3.061  -6.261  -0.409  0.00  0.00    +0.223 C 
ATOM      8  O   UNL     1      -3.026  -7.448  -0.672  0.00  0.00    -0.275 OA
ATOM      9  C   UNL     1      -4.372  -5.602  -0.045  0.00  0.00    +0.088 C 
ATOM     10  C   UNL     1      -4.343  -4.120   0.272  0.00  0.00    -0.006 C 
ATOM     11  C   UNL     1      -3.136  -3.490   0.207  0.00  0.00    -0.004 A 
ATOM     12  C   UNL     1      -3.018  -2.062   0.503  0.00  0.00    +0.055 A 
ATOM     13  H   UNL     1      -1.121  -5.983  -0.675  0.00  0.00    +0.155 HD
BRANCH   2  14
ATOM     14  O   UNL     1      -1.671  -0.146   0.687  0.00  0.00    -0.492 OA
BRANCH  14  16
ATOM     15  C   UNL     1      -0.424   1.911   0.919  0.00  0.00    +0.048 C 
ATOM     16  C   UNL     1      -0.363   0.419   0.583  0.00  0.00    +0.225 C 
ENDBRANCH  14  16
ENDBRANCH   2  14
ENDBRANCH   1   9
BRANCH   1  17
ATOM     17  N   UNL     1      -5.041  -7.768   0.882  0.00  0.00    +0.385 N 
ATOM     18  C   UNL     1      -5.654  -7.939  -0.449  0.00  0.00    -0.078 C 
ATOM     19  C   UNL     1      -5.222  -9.275  -1.001  0.00  0.00    -0.019 C 
ATOM     20  C   UNL     1      -6.275 -10.365  -0.727  0.00  0.00    -0.002 C 
ATOM     21  C   UNL     1      -6.874 -10.240   0.688  0.00  0.00    -0.002 C 
ATOM     22  C   UNL     1      -5.831  -9.914   1.726  0.00  0.00    -0.019 C 
ATOM     23  C   UNL     1      -5.761  -8.383   1.907  0.00  0.00    -0.078 C 
ATOM     24  H   UNL     1      -4.111  -8.158   0.861  0.00  0.00    -0.081 HD
ENDBRANCH   1  17
BRANCH   1  25
ATOM     25  C   UNL     1      -4.018  -6.117   2.374  0.00  0.00    +0.205 C 
ATOM     26  N   UNL     1      -2.802  -6.931   2.237  0.00  0.00    -0.152 NA
ATOM     27  N   UNL     1      -2.744  -7.722   3.182  0.00  0.00    -0.070 NA
ATOM     28  N   UNL     1      -3.821  -7.599   4.059  0.00  0.00    -0.179 N 
ATOM     29  N   UNL     1      -4.658  -6.607   3.612  0.00  0.00    -0.183 NA
ATOM     30  H   UNL     1      -3.956  -8.130   4.860  0.00  0.00    +0.191 HD
BRANCH  29  31
ATOM     31  C   UNL     1      -4.780  -5.530   4.604  0.00  0.00    +0.035 C 
ATOM     32  C   UNL     1      -5.594  -4.379   4.010  0.00  0.00    +0.029 C 
ATOM     33  C   UNL     1      -5.487  -6.064   5.852  0.00  0.00    +0.029 C 
ATOM     34  C   UNL     1      -3.386  -5.027   4.984  0.00  0.00    +0.029 C 
ENDBRANCH  29  31
ENDBRANCH   1  25
TORSDOF 6
