REMARK  Name = ZINC19941571
REMARK  7 active torsions:
REMARK  status: ('A' for Active; 'I' for Inactive)
REMARK    1  A    between atoms: C_1  and  C_2
REMARK    2  A    between atoms: C_12  and  C_14
REMARK    3  A    between atoms: C_14  and  C_16
REMARK    4  A    between atoms: C_14  and  N_26
REMARK    5  A    between atoms: N_20  and  C_21
REMARK    6  A    between atoms: N_29  and  C_32
REMARK    7  A    between atoms: C_37  and  C_38
REMARK                            x       y       z     vdW  Elec       q    Type
REMARK                         _______ _______ _______ _____ _____    ______ ____
ROOT
ATOM      1  C   UNL     1       2.591  -0.626  -0.058  0.00  0.00    +0.162 C 
ENDROOT
BRANCH   1  13
ATOM      2  C   UNL     1       4.684  -4.228   5.027  0.00  0.00    +0.046 C 
ATOM      3  C   UNL     1       4.485  -2.741   4.875  0.00  0.00    -0.026 A 
ATOM      4  C   UNL     1       4.759  -1.895   5.928  0.00  0.00    +0.005 A 
ATOM      5  C   UNL     1       4.579  -0.525   5.801  0.00  0.00    +0.001 A 
ATOM      6  C   UNL     1       4.126   0.011   4.629  0.00  0.00    +0.010 A 
ATOM      7  C   UNL     1       3.841  -0.828   3.547  0.00  0.00    -0.001 A 
ATOM      8  C   UNL     1       4.023  -2.219   3.672  0.00  0.00    +0.052 A 
ATOM      9  N   UNL     1       3.740  -3.042   2.602  0.00  0.00    -0.322 N 
ATOM     10  H   UNL     1       3.884  -4.128   2.691  0.00  0.00    +0.169 HD
ATOM     11  C   UNL     1       3.287  -2.536   1.441  0.00  0.00    +0.254 A 
ATOM     12  O   UNL     1       3.043  -3.294   0.519  0.00  0.00    -0.268 OA
ATOM     13  C   UNL     1       3.094  -1.149   1.263  0.00  0.00    +0.042 A 
ATOM     14  C   UNL     1       3.353  -0.287   2.277  0.00  0.00    +0.021 A 
ENDBRANCH   1  13
BRANCH   1  15
ATOM     15  N   UNL     1       3.533  -0.995  -1.122  0.00  0.00    -0.286 NA
ATOM     16  C   UNL     1       4.888  -0.515  -0.816  0.00  0.00    +0.104 C 
ATOM     17  C   UNL     1       5.852  -0.988  -1.907  0.00  0.00    +0.120 C 
ATOM     18  N   UNL     1       5.399  -0.482  -3.210  0.00  0.00    -0.327 N 
ATOM     19  C   UNL     1       4.044  -0.962  -3.516  0.00  0.00    +0.120 C 
ATOM     20  C   UNL     1       3.080  -0.490  -2.426  0.00  0.00    +0.104 C 
BRANCH  18  21
ATOM     21  C   UNL     1       6.295  -0.834  -4.223  0.00  0.00    +0.034 A 
ATOM     22  C   UNL     1       6.506  -2.172  -4.532  0.00  0.00    +0.043 A 
ATOM     23  C   UNL     1       7.390  -2.516  -5.536  0.00  0.00    +0.043 A 
ATOM     24  C   UNL     1       8.072  -1.529  -6.228  0.00  0.00    +0.020 A 
ATOM     25  C   UNL     1       7.867  -0.197  -5.918  0.00  0.00    +0.006 A 
ATOM     26  C   UNL     1       6.981   0.153  -4.918  0.00  0.00    -0.029 A 
ATOM     27  C   UNL     1       6.759   1.605  -4.582  0.00  0.00    +0.045 C 
ATOM     28 CL   UNL     1       7.651  -4.187  -5.928  0.00  0.00    -0.083 Cl
ENDBRANCH  18  21
ENDBRANCH   1  15
BRANCH   1  29
ATOM     29  C   UNL     1       2.472   0.875   0.009  0.00  0.00    +0.173 A 
ATOM     30  N   UNL     1       3.456   1.740  -0.028  0.00  0.00    -0.111 NA
ATOM     31  N   UNL     1       2.950   2.922   0.054  0.00  0.00    -0.023 NA
ATOM     32  N   UNL     1       1.668   2.834   0.137  0.00  0.00    -0.044 NA
ATOM     33  N   UNL     1       1.335   1.588   0.119  0.00  0.00    -0.224 N 
BRANCH  33  34
ATOM     34  C   UNL     1      -0.025   1.049   0.196  0.00  0.00    +0.111 C 
ATOM     35  C   UNL     1      -0.708   1.523   1.495  0.00  0.00    +0.027 C 
ATOM     36  C   UNL     1      -1.519   2.772   1.064  0.00  0.00    +0.002 C 
ATOM     37  C   UNL     1      -2.042   2.372  -0.339  0.00  0.00    +0.002 C 
ATOM     38  C   UNL     1      -0.872   1.589  -0.970  0.00  0.00    +0.027 C 
ENDBRANCH  33  34
ENDBRANCH   1  29
TORSDOF 5
