REMARK  Name = ZINC40061337
REMARK  7 active torsions:
REMARK  status: ('A' for Active; 'I' for Inactive)
REMARK    1  A    between atoms: C_1  and  C_2
REMARK    2  A    between atoms: C_2  and  O_3
REMARK    3  A    between atoms: O_3  and  C_4
REMARK    4  A    between atoms: C_8  and  C_10
REMARK    5  A    between atoms: C_16  and  C_33
REMARK    6  A    between atoms: C_18  and  C_32
REMARK    7  A    between atoms: C_29  and  C_31
REMARK                            x       y       z     vdW  Elec       q    Type
REMARK                         _______ _______ _______ _____ _____    ______ ____
ROOT
ATOM      1  C   UNL     1      -4.316  -4.366   0.008  0.00  0.00    +0.152 C 
ATOM      2  C   UNL     1      -4.676  -4.824   1.384  0.00  0.00    +0.072 A 
ATOM      3  C   UNL     1      -4.797  -4.087   2.646  0.00  0.00    +0.199 A 
ATOM      4  O   UNL     1      -4.773  -2.871   2.714  0.00  0.00    -0.287 OA
ATOM      5  C   UNL     1      -4.952  -4.965   3.833  0.00  0.00    +0.067 A 
ATOM      6  C   UNL     1      -4.880  -4.432   5.120  0.00  0.00    -0.036 A 
ATOM      7  C   UNL     1      -5.020  -5.254   6.204  0.00  0.00    +0.007 A 
ATOM      8  C   UNL     1      -5.231  -6.614   6.026  0.00  0.00    -0.047 A 
ATOM      9  C   UNL     1      -5.307  -7.157   4.763  0.00  0.00    +0.050 A 
ATOM     10  C   UNL     1      -5.170  -6.339   3.641  0.00  0.00    +0.140 A 
ATOM     11  O   UNL     1      -5.257  -6.892   2.410  0.00  0.00    -0.450 OA
ATOM     12  C   UNL     1      -4.903  -6.170   1.329  0.00  0.00    +0.199 A 
ATOM     13  C   UNL     1      -4.694  -6.617  -0.059  0.00  0.00    +0.289 C 
ATOM     14  O   UNL     1      -4.813  -7.763  -0.445  0.00  0.00    -0.266 OA
ATOM     15  N   UNL     1      -4.352  -5.570  -0.839  0.00  0.00    -0.230 N 
ATOM     16  C   UNL     1      -4.082  -5.618  -2.200  0.00  0.00    +0.191 A 
ATOM     17  N   UNL     1      -3.737  -4.648  -3.036  0.00  0.00    -0.125 NA
ATOM     18  N   UNL     1      -3.526  -4.869  -4.260  0.00  0.00    -0.145 NA
ATOM     19  C   UNL     1      -3.635  -6.074  -4.785  0.00  0.00    +0.101 A 
ATOM     20  S   UNL     1      -4.093  -7.008  -3.328  0.00  0.00    -0.035 S 
ATOM     21  C   UNL     1      -3.427  -6.534  -6.205  0.00  0.00    +0.075 C 
ATOM     22  C   UNL     1      -5.380  -7.508   7.230  0.00  0.00    +0.044 C 
ATOM     23  C   UNL     1      -4.649  -2.956   5.316  0.00  0.00    +0.044 C 
ENDROOT
BRANCH   1  28
ATOM     24  C   UNL     1      -1.498  -1.848   0.006  0.00  0.00    +0.121 A 
ATOM     25  C   UNL     1      -0.387  -2.679  -0.003  0.00  0.00    +0.045 A 
ATOM     26  C   UNL     1      -0.552  -4.051  -0.008  0.00  0.00    +0.004 A 
ATOM     27  C   UNL     1      -1.823  -4.596  -0.004  0.00  0.00    +0.006 A 
ATOM     28  C   UNL     1      -2.932  -3.769   0.004  0.00  0.00    -0.019 A 
ATOM     29  C   UNL     1      -2.772  -2.397   0.016  0.00  0.00    +0.051 A 
BRANCH  24  30
ATOM     30  O   UNL     1      -1.339  -0.499   0.012  0.00  0.00    -0.492 OA
BRANCH  30  32
ATOM     31  C   UNL     1      -0.019   1.526   0.010  0.00  0.00    +0.048 C 
ATOM     32  C   UNL     1       0.002  -0.004   0.002  0.00  0.00    +0.225 C 
ENDBRANCH  30  32
ENDBRANCH  24  30
ENDBRANCH   1  28
TORSDOF 3
