REMARK  Name = ZINC00712305
REMARK  6 active torsions:
REMARK  status: ('A' for Active; 'I' for Inactive)
REMARK    1  A    between atoms: C_6  and  O_7
REMARK    2  A    between atoms: O_7  and  C_8
REMARK    3  A    between atoms: C_10  and  N_17
REMARK    4  A    between atoms: C_12  and  N_14
REMARK    5  A    between atoms: C_18  and  C_20
REMARK    6  A    between atoms: C_29  and  N_32
REMARK                            x       y       z     vdW  Elec       q    Type
REMARK                         _______ _______ _______ _____ _____    ______ ____
ROOT
ATOM      1  N   UNL     1       3.408   7.540   0.369  0.00  0.00    -0.285 N 
ATOM      2  C   UNL     1       4.562   8.236   0.356  0.00  0.00    +0.223 C 
ATOM      3  O   UNL     1       5.624   7.650   0.350  0.00  0.00    -0.275 OA
ATOM      4  H   UNL     1       2.561   8.008   0.434  0.00  0.00    +0.155 HD
ENDROOT
BRANCH   2   5
ATOM      5  C   UNL     1       4.534   9.743   0.349  0.00  0.00    +0.050 C 
ATOM      6  C   UNL     1       3.813  10.245   1.602  0.00  0.00    +0.020 C 
ATOM      7  C   UNL     1       3.784  11.775   1.595  0.00  0.00    -0.007 C 
ATOM      8  C   UNL     1       3.043  12.265   0.349  0.00  0.00    +0.007 C 
ATOM      9  C   UNL     1       3.763  11.763  -0.904  0.00  0.00    -0.007 C 
ATOM     10  C   UNL     1       3.792  10.233  -0.896  0.00  0.00    +0.020 C 
ATOM     11  C   UNL     1       5.196  12.300  -0.918  0.00  0.00    +0.034 C 
ATOM     12  C   UNL     1       5.937  11.810   0.327  0.00  0.00    +0.067 C 
ATOM     13  C   UNL     1       5.217  12.312   1.580  0.00  0.00    +0.034 C 
ATOM     14  C   UNL     1       5.966  10.280   0.335  0.00  0.00    +0.046 C 
BRANCH  12  15
ATOM     15  N   UNL     1       7.309  12.325   0.313  0.00  0.00    -0.244 N 
ATOM     16  C   UNL     1       8.323  11.891  -0.454  0.00  0.00    +0.221 A 
ATOM     17  N   UNL     1       9.382  12.606  -0.170  0.00  0.00    -0.205 NA
ATOM     18  C   UNL     1       9.083  13.503   0.770  0.00  0.00    +0.242 A 
ATOM     19  N   UNL     1       7.822  13.372   1.095  0.00  0.00    -0.137 NA
ATOM     20 CL   UNL     1      10.185  14.660   1.449  0.00  0.00    -0.040 Cl
ENDBRANCH  12  15
ENDBRANCH   2   5
BRANCH   1  23
ATOM     21  C   UNL     1       2.462   4.085  -0.474  0.00  0.00    +0.132 A 
ATOM     22  C   UNL     1       2.437   5.470  -0.403  0.00  0.00    +0.069 A 
ATOM     23  C   UNL     1       3.433   6.144   0.290  0.00  0.00    +0.039 A 
ATOM     24  C   UNL     1       4.457   5.430   0.899  0.00  0.00    +0.056 A 
ATOM     25  C   UNL     1       4.481   4.051   0.821  0.00  0.00    +0.131 A 
ATOM     26  C   UNL     1       3.487   3.378   0.137  0.00  0.00    +0.079 A 
BRANCH  25  27
ATOM     27  N   UNL     1       5.574   3.293   1.471  0.00  0.00    +0.057 N 
ATOM     28  O   UNL     1       5.597   2.078   1.403  0.00  0.00    -0.126 OA
ATOM     29  O   UNL     1       6.451   3.886   2.074  0.00  0.00    -0.126 OA
ENDBRANCH  25  27
BRANCH  21  30
ATOM     30  O   UNL     1       1.485   3.422  -1.147  0.00  0.00    -0.456 OA
BRANCH  30  36
ATOM     31  C   UNL     1       1.229   1.414   0.104  0.00  0.00    +0.047 A 
ATOM     32  C   UNL     1       1.228   0.034   0.154  0.00  0.00    +0.019 A 
ATOM     33  C   UNL     1       1.482  -0.701  -0.990  0.00  0.00    +0.018 A 
ATOM     34  C   UNL     1       1.737  -0.056  -2.187  0.00  0.00    +0.019 A 
ATOM     35  C   UNL     1       1.738   1.325  -2.241  0.00  0.00    +0.047 A 
ATOM     36  C   UNL     1       1.484   2.064  -1.095  0.00  0.00    +0.129 A 
ATOM     37 BR   UNL     1       1.481  -2.591  -0.918  0.00  0.00    -0.050 Br
ENDBRANCH  30  36
ENDBRANCH  21  30
ENDBRANCH   1  23
TORSDOF 6
