REMARK  Name = ZINC64605309
REMARK  9 active torsions:
REMARK  status: ('A' for Active; 'I' for Inactive)
REMARK    1  A    between atoms: C_1  and  C_2
REMARK    2  A    between atoms: C_5  and  C_8
REMARK    3  A    between atoms: C_10  and  N_26
REMARK    4  A    between atoms: N_13  and  C_15
REMARK    5  A    between atoms: C_15  and  C_16
REMARK    6  A    between atoms: N_18  and  C_19
REMARK    7  A    between atoms: C_27  and  C_29
REMARK    8  A    between atoms: C_29  and  C_30
REMARK    9  A    between atoms: C_29  and  C_31
REMARK                            x       y       z     vdW  Elec       q    Type
REMARK                         _______ _______ _______ _____ _____    ______ ____
ROOT
ATOM      1  C   UNL     1       0.217  -4.265  -0.351  0.00  0.00    +0.093 A 
ATOM      2  C   UNL     1       0.333  -4.884   0.911  0.00  0.00    +0.059 A 
ATOM      3  C   UNL     1       0.227  -6.242   1.008  0.00  0.00    +0.102 A 
ATOM      4  C   UNL     1       0.003  -7.004  -0.165  0.00  0.00    +0.289 A 
ATOM      5  O   UNL     1      -0.095  -8.219  -0.100  0.00  0.00    -0.264 OA
ATOM      6  N   UNL     1      -0.103  -6.377  -1.354  0.00  0.00    -0.218 N 
ATOM      7  N   UNL     1       0.003  -4.984  -1.430  0.00  0.00    -0.168 NA
ENDROOT
BRANCH   1  12
ATOM      8  C   UNL     1       0.659   1.462  -0.773  0.00  0.00    +0.044 C 
ATOM      9  C   UNL     1       0.543  -0.037  -0.662  0.00  0.00    -0.050 A 
ATOM     10  C   UNL     1       0.319  -0.796  -1.797  0.00  0.00    +0.004 A 
ATOM     11  C   UNL     1       0.212  -2.169  -1.701  0.00  0.00    +0.010 A 
ATOM     12  C   UNL     1       0.331  -2.790  -0.459  0.00  0.00    +0.002 A 
ATOM     13  C   UNL     1       0.557  -2.020   0.680  0.00  0.00    +0.010 A 
ATOM     14  C   UNL     1       0.667  -0.648   0.572  0.00  0.00    +0.004 A 
ENDBRANCH   1  12
BRANCH   3  15
ATOM     15  N   UNL     1       0.340  -6.872   2.250  0.00  0.00    -0.281 N 
ATOM     16  C   UNL     1       1.300  -7.796   2.453  0.00  0.00    +0.220 C 
ATOM     17  O   UNL     1       2.009  -8.145   1.532  0.00  0.00    -0.275 OA
ATOM     18  H   UNL     1      -0.273  -6.645   2.967  0.00  0.00    +0.155 HD
BRANCH  16  19
ATOM     19  C   UNL     1       1.494  -8.394   3.822  0.00  0.00    +0.069 C 
ATOM     20  C   UNL     1       2.639  -9.407   3.779  0.00  0.00    +0.017 C 
ATOM     21  C   UNL     1       1.832  -7.285   4.820  0.00  0.00    +0.017 C 
ENDBRANCH  16  19
ENDBRANCH   3  15
BRANCH   6  22
ATOM     22  C   UNL     1      -0.335  -7.158  -2.572  0.00  0.00    +0.243 C 
BRANCH  22  23
ATOM     23  C   UNL     1      -1.817  -7.303  -2.801  0.00  0.00    +0.239 C 
ATOM     24  O   UNL     1      -2.603  -6.804  -2.023  0.00  0.00    -0.273 OA
ATOM     25  N   UNL     1      -2.270  -7.988  -3.869  0.00  0.00    -0.284 N 
ATOM     26  H   UNL     1      -1.645  -8.449  -4.450  0.00  0.00    +0.155 HD
BRANCH  25  27
ATOM     27  C   UNL     1      -3.643  -8.033  -4.141  0.00  0.00    +0.034 A 
ATOM     28  C   UNL     1      -4.204  -9.176  -4.696  0.00  0.00    +0.025 A 
ATOM     29  C   UNL     1      -5.559  -9.218  -4.963  0.00  0.00    +0.022 A 
ATOM     30  C   UNL     1      -6.356  -8.123  -4.678  0.00  0.00    +0.041 A 
ATOM     31  C   UNL     1      -5.799  -6.984  -4.125  0.00  0.00    +0.022 A 
ATOM     32  C   UNL     1      -4.446  -6.939  -3.850  0.00  0.00    +0.025 A 
ATOM     33 CL   UNL     1      -8.058  -8.179  -5.016  0.00  0.00    -0.084 Cl
ENDBRANCH  25  27
ENDBRANCH  22  23
ENDBRANCH   6  22
TORSDOF 6
