REMARK  Name = ZINC12483676
REMARK  10 active torsions:
REMARK  status: ('A' for Active; 'I' for Inactive)
REMARK    1  A    between atoms: C_1  and  C_2
REMARK    2  A    between atoms: C_5  and  C_8
REMARK    3  A    between atoms: C_8  and  C_10
REMARK    4  A    between atoms: C_8  and  N_19
REMARK    5  A    between atoms: N_12  and  C_13
REMARK    6  A    between atoms: C_13  and  C_14
REMARK    7  A    between atoms: N_19  and  C_20
REMARK    8  A    between atoms: C_29  and  C_31
REMARK    9  A    between atoms: C_31  and  N_32
REMARK   10  A    between atoms: C_33  and  C_35
REMARK                            x       y       z     vdW  Elec       q    Type
REMARK                         _______ _______ _______ _____ _____    ______ ____
ROOT
ATOM      1  N   UNL     1       1.210  -2.080  -0.369  0.00  0.00    -0.254 N 
ATOM      2  C   UNL     1       2.342  -2.809  -0.418  0.00  0.00    +0.238 C 
ATOM      3  O   UNL     1       2.304  -4.003  -0.208  0.00  0.00    -0.274 OA
ENDROOT
BRANCH   1   4
ATOM      4  C   UNL     1       1.236  -0.722  -0.713  0.00  0.00    +0.041 A 
ATOM      5  C   UNL     1       0.623  -0.290  -1.881  0.00  0.00    +0.027 A 
ATOM      6  C   UNL     1       0.648   1.049  -2.222  0.00  0.00    +0.051 A 
ATOM      7  C   UNL     1       1.284   1.964  -1.398  0.00  0.00    +0.166 A 
ATOM      8  C   UNL     1       1.899   1.534  -0.225  0.00  0.00    +0.168 A 
ATOM      9  C   UNL     1       1.874   0.192   0.115  0.00  0.00    +0.073 A 
ATOM     10  O   UNL     1       2.448   2.615   0.401  0.00  0.00    -0.453 OA
ATOM     11  C   UNL     1       2.515   3.647  -0.600  0.00  0.00    +0.466 C 
ATOM     12  O   UNL     1       1.446   3.316  -1.506  0.00  0.00    -0.453 OA
ENDBRANCH   1   4
BRANCH   1  13
ATOM     13  C   UNL     1      -0.048  -2.707   0.044  0.00  0.00    +0.197 C 
BRANCH  13  18
ATOM     14  C   UNL     1      -4.375   1.075  -0.561  0.00  0.00    +0.044 C 
ATOM     15  C   UNL     1      -3.247   0.088  -0.403  0.00  0.00    -0.050 A 
ATOM     16  C   UNL     1      -3.292  -1.125  -1.064  0.00  0.00    +0.004 A 
ATOM     17  C   UNL     1      -2.256  -2.029  -0.920  0.00  0.00    +0.006 A 
ATOM     18  C   UNL     1      -1.176  -1.721  -0.114  0.00  0.00    -0.018 A 
ATOM     19  C   UNL     1      -1.134  -0.510   0.551  0.00  0.00    +0.006 A 
ATOM     20  C   UNL     1      -2.167   0.397   0.403  0.00  0.00    +0.004 A 
ENDBRANCH  13  18
BRANCH  13  21
ATOM     21  C   UNL     1       0.051  -3.130   1.487  0.00  0.00    +0.239 C 
ATOM     22  O   UNL     1       1.073  -2.928   2.109  0.00  0.00    -0.273 OA
ATOM     23  N   UNL     1      -0.994  -3.733   2.086  0.00  0.00    -0.306 N 
ATOM     24  H   UNL     1      -1.811  -3.895   1.588  0.00  0.00    +0.149 HD
BRANCH  23  25
ATOM     25  C   UNL     1      -0.898  -4.145   3.489  0.00  0.00    +0.178 C 
BRANCH  25  26
ATOM     26  C   UNL     1      -2.192  -4.790   3.913  0.00  0.00    +0.122 A 
ATOM     27  C   UNL     1      -2.485  -6.100   3.823  0.00  0.00    +0.046 A 
ATOM     28  C   UNL     1      -3.794  -6.263   4.331  0.00  0.00    +0.041 A 
ATOM     29  C   UNL     1      -4.223  -5.043   4.701  0.00  0.00    +0.195 A 
ATOM     30  O   UNL     1      -3.246  -4.155   4.451  0.00  0.00    -0.466 OA
ENDBRANCH  25  26
ENDBRANCH  23  25
ENDBRANCH  13  21
ENDBRANCH   1  13
BRANCH   2  31
ATOM     31  C   UNL     1       3.656  -2.141  -0.732  0.00  0.00    +0.201 C 
BRANCH  31  32
ATOM     32  N   UNL     1       4.705  -3.157  -0.851  0.00  0.00    -0.300 N 
ATOM     33  C   UNL     1       5.971  -2.789  -1.131  0.00  0.00    +0.280 C 
ATOM     34  O   UNL     1       6.243  -1.613  -1.284  0.00  0.00    -0.267 OA
ATOM     35  H   UNL     1       4.488  -4.095  -0.729  0.00  0.00    +0.150 HD
BRANCH  33  36
ATOM     36  C   UNL     1       7.021  -3.807  -1.250  0.00  0.00    +0.189 A 
ATOM     37  C   UNL     1       8.337  -3.572  -1.528  0.00  0.00    +0.054 A 
ATOM     38  C   UNL     1       8.974  -4.823  -1.545  0.00  0.00    +0.042 A 
ATOM     39  C   UNL     1       8.031  -5.754  -1.281  0.00  0.00    +0.196 A 
ATOM     40  O   UNL     1       6.856  -5.137  -1.098  0.00  0.00    -0.458 OA
ENDBRANCH  33  36
ENDBRANCH  31  32
ENDBRANCH   2  31
TORSDOF 9
