REMARK  Name = ZINC20292045
REMARK  8 active torsions:
REMARK  status: ('A' for Active; 'I' for Inactive)
REMARK    1  A    between atoms: C_3  and  N_9
REMARK    2  A    between atoms: C_10  and  C_12
REMARK    3  A    between atoms: C_12  and  S_13
REMARK    4  A    between atoms: S_13  and  C_14
REMARK    5  A    between atoms: N_18  and  N_19
REMARK    6  A    between atoms: N_20  and  N_21
REMARK    7  A    between atoms: C_22  and  C_23
REMARK    8  A    between atoms: C_26  and  N_29
REMARK                            x       y       z     vdW  Elec       q    Type
REMARK                         _______ _______ _______ _____ _____    ______ ____
ROOT
ATOM      1  C   UNL     1       6.006   6.712  -0.475  0.00  0.00    +0.210 A 
ATOM      2  N   UNL     1       7.192   6.065  -0.497  0.00  0.00    -0.119 NA
ATOM      3  N   UNL     1       8.147   6.920  -0.607  0.00  0.00    -0.109 NA
ATOM      4  C   UNL     1       7.633   8.166  -0.662  0.00  0.00    +0.254 A 
ATOM      5  N   UNL     1       6.268   8.049  -0.584  0.00  0.00    -0.211 N 
ATOM      6  N   UNL     1       8.325   9.303  -0.775  0.00  0.00    -0.204 N 
ATOM      7  H   UNL     1       7.859  10.153  -0.806  0.00  0.00    +0.177 HD
ENDROOT
BRANCH   5   8
ATOM      8  N   UNL     1       5.355   9.065  -0.607  0.00  0.00    -0.294 N 
ATOM      9  H   UNL     1       5.163   9.400   0.325  0.00  0.00    +0.163 HD
ATOM     10  H   UNL     1       5.664   9.816  -1.206  0.00  0.00    +0.163 HD
ENDBRANCH   5   8
BRANCH   6  11
ATOM     11  N   UNL     1       9.613   9.270  -0.844  0.00  0.00    -0.188 NA
ATOM     12  C   UNL     1      10.294  10.389  -0.955  0.00  0.00    +0.138 C 
BRANCH  12  13
ATOM     13  C   UNL     1      11.756  10.352  -1.033  0.00  0.00    -0.005 A 
ATOM     14  C   UNL     1      12.434   9.124  -0.995  0.00  0.00    +0.012 A 
ATOM     15  C   UNL     1      13.809   9.099  -1.069  0.00  0.00    +0.033 A 
ATOM     16  C   UNL     1      14.523  10.282  -1.180  0.00  0.00    +0.126 A 
ATOM     17  C   UNL     1      13.862  11.500  -1.219  0.00  0.00    +0.033 A 
ATOM     18  C   UNL     1      12.488  11.544  -1.153  0.00  0.00    +0.012 A 
BRANCH  16  19
ATOM     19  N   UNL     1      16.001  10.245  -1.258  0.00  0.00    +0.056 N 
ATOM     20  O   UNL     1      16.633   9.090  -1.221  0.00  0.00    -0.126 OA
ATOM     21  O   UNL     1      16.683  11.366  -1.364  0.00  0.00    -0.126 OA
ENDBRANCH  16  19
ENDBRANCH  12  13
ENDBRANCH   6  11
BRANCH   1  22
ATOM     22  S   UNL     1       4.507   6.011  -0.346  0.00  0.00    -0.075 S 
BRANCH  22  23
ATOM     23  C   UNL     1       4.861   4.235  -0.238  0.00  0.00    +0.173 C 
BRANCH  23  25
ATOM     24  N   UNL     1       3.584   2.127  -0.021  0.00  0.00    -0.284 N 
ATOM     25  C   UNL     1       3.567   3.472  -0.116  0.00  0.00    +0.228 C 
ATOM     26  O   UNL     1       2.510   4.067  -0.103  0.00  0.00    -0.275 OA
ATOM     27  H   UNL     1       4.429   1.657   0.049  0.00  0.00    +0.155 HD
BRANCH  24  30
ATOM     28  C   UNL     1       0.065   1.242  -0.621  0.00  0.00    +0.003 A 
ATOM     29  C   UNL     1       1.250   1.952  -0.618  0.00  0.00    +0.025 A 
ATOM     30  C   UNL     1       2.382   1.410  -0.024  0.00  0.00    +0.053 A 
ATOM     31  C   UNL     1       2.319   0.154   0.567  0.00  0.00    +0.080 A 
ATOM     32  C   UNL     1       1.129  -0.551   0.562  0.00  0.00    +0.061 A 
ATOM     33  C   UNL     1       0.004  -0.007  -0.032  0.00  0.00    +0.021 A 
ATOM     34 CL   UNL     1       1.048  -2.120   1.300  0.00  0.00    -0.082 Cl
ATOM     35 CL   UNL     1       3.731  -0.528   1.311  0.00  0.00    -0.080 Cl
ENDBRANCH  24  30
ENDBRANCH  23  25
ENDBRANCH  22  23
ENDBRANCH   1  22
TORSDOF 8
