REMARK  Name = ZINC39276934
REMARK  10 active torsions:
REMARK  status: ('A' for Active; 'I' for Inactive)
REMARK    1  A    between atoms: C_1  and  C_2
REMARK    2  A    between atoms: C_2  and  O_3
REMARK    3  A    between atoms: O_3  and  C_4
REMARK    4  A    between atoms: C_4  and  C_6
REMARK    5  A    between atoms: C_7  and  C_36
REMARK    6  A    between atoms: C_14  and  C_15
REMARK    7  A    between atoms: C_25  and  C_27
REMARK    8  A    between atoms: C_30  and  N_33
REMARK    9  A    between atoms: N_33  and  C_34
REMARK   10  A    between atoms: N_33  and  C_35
REMARK                            x       y       z     vdW  Elec       q    Type
REMARK                         _______ _______ _______ _____ _____    ______ ____
ROOT
ATOM      1  C   UNL     1      -2.809  -2.431   0.227  0.00  0.00    +0.085 C 
ATOM      2  C   UNL     1      -2.999  -3.743  -0.100  0.00  0.00    +0.053 C 
ATOM      3  N   UNL     1      -4.222  -4.218  -0.306  0.00  0.00    -0.228 NA
ATOM      4  C   UNL     1      -5.320  -3.514  -0.221  0.00  0.00    +0.178 A 
ATOM      5  N   UNL     1      -5.354  -2.175   0.096  0.00  0.00    -0.275 N 
ATOM      6  C   UNL     1      -6.540  -1.556   0.153  0.00  0.00    +0.268 A 
ATOM      7  O   UNL     1      -6.620  -0.374   0.428  0.00  0.00    -0.266 OA
ATOM      8  C   UNL     1      -7.749  -2.357  -0.131  0.00  0.00    +0.080 A 
ATOM      9  C   UNL     1      -9.075  -1.972  -0.140  0.00  0.00    +0.026 C 
ATOM     10  S   UNL     1      -7.030  -3.959  -0.457  0.00  0.00    -0.046 S 
ATOM     11  C   UNL     1      -4.027  -1.546   0.353  0.00  0.00    +0.162 C 
ATOM     12  C   UNL     1      -1.811  -4.661  -0.230  0.00  0.00    +0.066 C 
ENDROOT
BRANCH   9  13
ATOM     13  C   UNL     1     -10.071  -2.904  -0.438  0.00  0.00    -0.018 C 
ATOM     14  C   UNL     1     -11.447  -2.681  -0.496  0.00  0.00    +0.003 A 
ATOM     15  C   UNL     1     -12.236  -1.529  -0.288  0.00  0.00    +0.010 A 
ATOM     16  C   UNL     1     -13.585  -1.606  -0.413  0.00  0.00    +0.001 A 
ATOM     17  C   UNL     1     -14.224  -2.806  -0.746  0.00  0.00    +0.002 A 
ATOM     18  C   UNL     1     -13.532  -3.949  -0.959  0.00  0.00    +0.026 A 
ATOM     19  C   UNL     1     -12.114  -3.948  -0.847  0.00  0.00    +0.043 A 
ATOM     20  N   UNL     1     -11.228  -4.907  -1.001  0.00  0.00    -0.380 N 
ATOM     21  C   UNL     1      -9.884  -4.368  -0.774  0.00  0.00    +0.149 C 
ATOM     22  H   UNL     1     -11.432  -5.826  -1.233  0.00  0.00    +0.160 HD
ENDBRANCH   9  13
BRANCH  11  23
ATOM     23  C   UNL     1      -4.042  -0.973   1.746  0.00  0.00    -0.020 A 
ATOM     24  C   UNL     1      -4.501  -1.739   2.802  0.00  0.00    +0.008 A 
ATOM     25  C   UNL     1      -4.516  -1.218   4.081  0.00  0.00    +0.023 A 
ATOM     26  C   UNL     1      -4.070   0.079   4.306  0.00  0.00    +0.029 A 
ATOM     27  C   UNL     1      -3.610   0.846   3.243  0.00  0.00    +0.023 A 
ATOM     28  C   UNL     1      -3.592   0.316   1.968  0.00  0.00    +0.008 A 
BRANCH  26  29
ATOM     29  N   UNL     1      -4.084   0.610   5.597  0.00  0.00    -0.336 N 
ATOM     30  C   UNL     1      -4.457  -0.237   6.733  0.00  0.00    +0.129 C 
ATOM     31  C   UNL     1      -3.726   2.013   5.816  0.00  0.00    +0.129 C 
ENDBRANCH  26  29
ENDBRANCH  11  23
BRANCH   1  32
ATOM     32  C   UNL     1      -1.517  -1.920   0.446  0.00  0.00    +0.339 C 
ATOM     33  O   UNL     1      -0.560  -2.674   0.475  0.00  0.00    -0.245 OA
BRANCH  32  34
ATOM     34  O   UNL     1      -1.337  -0.593   0.625  0.00  0.00    -0.462 OA
BRANCH  34  36
ATOM     35  C   UNL     1       0.007   1.376   1.022  0.00  0.00    +0.048 C 
ATOM     36  C   UNL     1       0.002  -0.144   0.843  0.00  0.00    +0.229 C 
ENDBRANCH  34  36
ENDBRANCH  32  34
ENDBRANCH   1  32
TORSDOF 6
