REMARK  Name = ZINC65397486
REMARK  5 active torsions:
REMARK  status: ('A' for Active; 'I' for Inactive)
REMARK    1  A    between atoms: C_1  and  C_2
REMARK    2  A    between atoms: C_9  and  C_15
REMARK    3  A    between atoms: C_20  and  C_21
REMARK    4  A    between atoms: C_24  and  O_27
REMARK    5  A    between atoms: O_27  and  C_28
REMARK                            x       y       z     vdW  Elec       q    Type
REMARK                         _______ _______ _______ _____ _____    ______ ____
ROOT
ATOM      1  C   UNL     1       0.793   0.021   0.241  0.00  0.00    +0.063 C 
ATOM      2  C   UNL     1       0.511  -1.345   0.814  0.00  0.00    +0.040 C 
ATOM      3  N   UNL     1       0.564  -2.445   0.170  0.00  0.00    -0.194 NA
ATOM      4  N   UNL     1       0.205  -3.561   0.935  0.00  0.00    -0.248 N 
ATOM      5  C   UNL     1       0.272  -3.150   2.361  0.00  0.00    +0.183 C 
ATOM      6  C   UNL     1       0.126  -1.636   2.245  0.00  0.00    +0.079 C 
ATOM      7  C   UNL     1       0.931  -0.835   3.229  0.00  0.00    +0.024 C 
ATOM      8  C   UNL     1       2.382  -1.262   3.330  0.00  0.00    +0.101 C 
ATOM      9  C   UNL     1       2.513  -2.753   3.334  0.00  0.00    +0.215 C 
ATOM     10  O   UNL     1       3.533  -3.242   3.771  0.00  0.00    -0.276 OA
ATOM     11  N   UNL     1       1.552  -3.575   2.893  0.00  0.00    -0.295 N 
ATOM     12  H   UNL     1      -0.041  -4.436   0.598  0.00  0.00    +0.170 HD
ATOM     13  H   UNL     1       1.729  -4.529   2.918  0.00  0.00    +0.151 HD
ENDROOT
BRANCH   7  14
ATOM     14  C   UNL     1       0.886   0.636   2.812  0.00  0.00    +0.087 C 
ATOM     15  C   UNL     1       1.911   1.442   3.586  0.00  0.00    +0.117 C 
ATOM     16  N   UNL     1       1.242   2.320   4.260  0.00  0.00    -0.161 NA
ATOM     17  N   UNL     1      -0.129   2.224   4.048  0.00  0.00    -0.153 NA
ATOM     18  C   UNL     1      -0.434   1.265   3.211  0.00  0.00    +0.079 C 
BRANCH  18  19
ATOM     19  C   UNL     1      -1.776   0.875   2.753  0.00  0.00    -0.001 A 
ATOM     20  C   UNL     1      -1.933   0.185   1.546  0.00  0.00    +0.013 A 
ATOM     21  C   UNL     1      -3.192  -0.178   1.122  0.00  0.00    +0.046 A 
ATOM     22  C   UNL     1      -4.305   0.141   1.890  0.00  0.00    +0.120 A 
ATOM     23  C   UNL     1      -4.155   0.827   3.090  0.00  0.00    +0.046 A 
ATOM     24  C   UNL     1      -2.900   1.190   3.526  0.00  0.00    +0.013 A 
BRANCH  22  25
ATOM     25  O   UNL     1      -5.544  -0.218   1.467  0.00  0.00    -0.495 OA
ATOM     26  C   UNL     1      -6.645   0.141   2.305  0.00  0.00    +0.277 C 
ENDBRANCH  22  25
ENDBRANCH  18  19
ENDBRANCH   7  14
TORSDOF 3
