REMARK  Name = ZINC13474993
REMARK  8 active torsions:
REMARK  status: ('A' for Active; 'I' for Inactive)
REMARK    1  A    between atoms: C_1  and  C_2
REMARK    2  A    between atoms: C_2  and  O_3
REMARK    3  A    between atoms: O_3  and  N_4
REMARK    4  A    between atoms: C_5  and  C_6
REMARK    5  A    between atoms: C_5  and  C_13
REMARK    6  A    between atoms: C_18  and  C_33
REMARK    7  A    between atoms: C_18  and  N_67
REMARK    8  A    between atoms: C_24  and  C_26
REMARK                            x       y       z     vdW  Elec       q    Type
REMARK                         _______ _______ _______ _____ _____    ______ ____
ROOT
ATOM      1  C   UNL     1      -0.356   3.464   0.355  0.00  0.00    +0.038 C 
ATOM      2  C   UNL     1      -0.108   4.217   1.666  0.00  0.00    -0.009 C 
ATOM      3  C   UNL     1      -0.309   5.716   1.433  0.00  0.00    -0.077 C 
ATOM      4  C   UNL     1      -1.923   5.286  -0.323  0.00  0.00    -0.077 C 
ATOM      5  C   UNL     1      -1.770   3.774  -0.143  0.00  0.00    -0.009 C 
ATOM      6  N   UNL     1      -1.696   5.949   0.979  0.00  0.00    +0.383 N 
ATOM      7  H   UNL     1      -2.344   5.555   1.671  0.00  0.00    -0.081 HD
ENDROOT
BRANCH   6   8
ATOM      8  C   UNL     1      -1.950   7.400   0.856  0.00  0.00    -0.066 C 
ATOM      9  C   UNL     1      -1.039   8.017  -0.208  0.00  0.00    +0.007 C 
ATOM     10  C   UNL     1      -1.351   9.511  -0.336  0.00  0.00    +0.107 C 
ATOM     11  N   UNL     1      -1.237  10.134   0.990  0.00  0.00    -0.298 N 
ATOM     12  C   UNL     1      -2.002   9.561   2.107  0.00  0.00    +0.107 C 
ATOM     13  C   UNL     1      -1.683   8.066   2.208  0.00  0.00    +0.007 C 
ATOM     14  C   UNL     1      -0.446  11.209   1.179  0.00  0.00    +0.248 C 
ATOM     15  O   UNL     1      -0.282  11.653   2.298  0.00  0.00    -0.270 OA
ATOM     16  C   UNL     1      -3.413   7.615   0.462  0.00  0.00    -0.010 C 
BRANCH  14  17
ATOM     17  C   UNL     1       0.222  11.847   0.025  0.00  0.00    +0.056 A 
ATOM     18  C   UNL     1      -0.394  11.865  -1.233  0.00  0.00    +0.016 A 
ATOM     19  C   UNL     1       0.271  12.479  -2.280  0.00  0.00    +0.022 A 
ATOM     20  C   UNL     1       1.514  13.042  -2.056  0.00  0.00    +0.133 A 
ATOM     21  N   UNL     1       2.073  13.005  -0.860  0.00  0.00    -0.146 N 
ATOM     22  O   UNL     1       3.348  13.594  -0.678  0.00  0.00    -0.164 OA
ATOM     23  C   UNL     1       1.478  12.436   0.169  0.00  0.00    +0.146 A 
ENDBRANCH  14  17
ENDBRANCH   6   8
BRANCH   1  25
ATOM     24  N   UNL     1      -1.247   1.208   0.463  0.00  0.00    -0.089 NA
ATOM     25  C   UNL     1      -0.218   1.982   0.592  0.00  0.00    +0.090 C 
BRANCH  25  26
ATOM     26  C   UNL     1       1.090   1.414   0.971  0.00  0.00    -0.000 A 
ATOM     27  C   UNL     1       2.263   1.909   0.398  0.00  0.00    +0.011 A 
ATOM     28  C   UNL     1       3.482   1.370   0.752  0.00  0.00    +0.016 A 
ATOM     29  C   UNL     1       3.544   0.339   1.674  0.00  0.00    +0.018 A 
ATOM     30  C   UNL     1       2.385  -0.157   2.247  0.00  0.00    +0.016 A 
ATOM     31  C   UNL     1       1.160   0.374   1.901  0.00  0.00    +0.011 A 
ATOM     32 BR   UNL     1       5.220  -0.394   2.155  0.00  0.00    -0.050 Br
ENDBRANCH  25  26
BRANCH  24  33
ATOM     33  O   UNL     1      -1.092  -0.196   0.553  0.00  0.00    -0.394 OA
BRANCH  33  35
ATOM     34  C   UNL     1      -2.023  -2.425   0.507  0.00  0.00    +0.051 C 
ATOM     35  C   UNL     1      -2.309  -0.927   0.392  0.00  0.00    +0.259 C 
ENDBRANCH  33  35
ENDBRANCH  24  33
ENDBRANCH   1  25
TORSDOF 6
