REMARK  Name = ZINC20357383
REMARK  5 active torsions:
REMARK  status: ('A' for Active; 'I' for Inactive)
REMARK    1  A    between atoms: C_1  and  C_2
REMARK    2  A    between atoms: C_5  and  C_8
REMARK    3  A    between atoms: C_14  and  C_31
REMARK    4  A    between atoms: C_15  and  C_24
REMARK    5  A    between atoms: C_27  and  C_30
REMARK                            x       y       z     vdW  Elec       q    Type
REMARK                         _______ _______ _______ _____ _____    ______ ____
ROOT
ATOM      1  C   UNL     1      -7.894   3.046   5.497  0.00  0.00    +0.041 C 
ATOM      2  C   UNL     1      -6.898   3.651   4.802  0.00  0.00    +0.138 A 
ATOM      3  C   UNL     1      -6.999   4.859   3.973  0.00  0.00    +0.363 A 
ATOM      4  O   UNL     1      -8.000   5.521   3.771  0.00  0.00    -0.243 OA
ATOM      5  O   UNL     1      -5.769   5.092   3.480  0.00  0.00    -0.403 OA
ATOM      6  C   UNL     1      -4.905   4.147   3.920  0.00  0.00    +0.227 A 
ATOM      7  C   UNL     1      -3.568   4.022   3.652  0.00  0.00    +0.103 C 
ATOM      8  C   UNL     1      -2.814   2.865   4.270  0.00  0.00    +0.119 C 
ATOM      9  C   UNL     1      -3.606   1.925   5.148  0.00  0.00    +0.119 A 
ATOM     10  C   UNL     1      -4.918   2.166   5.328  0.00  0.00    +0.235 A 
ATOM     11  O   UNL     1      -5.386   1.192   6.143  0.00  0.00    -0.408 OA
ATOM     12  C   UNL     1      -4.358   0.379   6.445  0.00  0.00    +0.287 A 
ATOM     13  N   UNL     1      -3.281   0.822   5.844  0.00  0.00    -0.197 NA
ATOM     14  N   UNL     1      -4.427  -0.739   7.257  0.00  0.00    -0.313 N 
ATOM     15  N   UNL     1      -5.553   3.254   4.725  0.00  0.00    -0.241 N 
ATOM     16  H   UNL     1      -3.524  -1.340   7.443  0.00  0.00    +0.147 HD
ATOM     17  H   UNL     1      -5.383  -1.028   7.717  0.00  0.00    +0.147 HD
ENDROOT
BRANCH   1  22
ATOM     18  C   UNL     1     -13.044   5.562   5.915  0.00  0.00    +0.044 C 
ATOM     19  C   UNL     1     -11.694   4.902   5.805  0.00  0.00    -0.050 A 
ATOM     20  C   UNL     1     -10.544   5.664   5.923  0.00  0.00    +0.004 A 
ATOM     21  C   UNL     1      -9.305   5.068   5.825  0.00  0.00    +0.008 A 
ATOM     22  C   UNL     1      -9.211   3.689   5.604  0.00  0.00    -0.023 A 
ATOM     23  C   UNL     1     -10.379   2.927   5.479  0.00  0.00    +0.008 A 
ATOM     24  C   UNL     1     -11.610   3.538   5.586  0.00  0.00    +0.004 A 
ENDBRANCH   1  22
BRANCH   8  25
ATOM     25  C   UNL     1      -2.205   2.057   3.153  0.00  0.00    -0.033 A 
ATOM     26  C   UNL     1      -0.834   1.892   3.087  0.00  0.00    +0.005 A 
ATOM     27  C   UNL     1      -0.276   1.151   2.063  0.00  0.00    +0.003 A 
ATOM     28  C   UNL     1      -1.088   0.575   1.104  0.00  0.00    -0.050 A 
ATOM     29  C   UNL     1      -2.459   0.744   1.168  0.00  0.00    +0.003 A 
ATOM     30  C   UNL     1      -3.017   1.480   2.195  0.00  0.00    +0.005 A 
ATOM     31  C   UNL     1      -0.479  -0.233  -0.013  0.00  0.00    +0.044 C 
ENDBRANCH   8  25
BRANCH   7  32
ATOM     32  C   UNL     1      -2.900   4.964   2.806  0.00  0.00    +0.101 C 
ATOM     33  N   UNL     1      -2.370   5.712   2.134  0.00  0.00    -0.191 NA
ENDBRANCH   7  32
TORSDOF 3
