REMARK  Name = ZINC09087929
REMARK  9 active torsions:
REMARK  status: ('A' for Active; 'I' for Inactive)
REMARK    1  A    between atoms: C_1  and  C_2
REMARK    2  A    between atoms: C_2  and  C_3
REMARK    3  A    between atoms: C_3  and  C_4
REMARK    4  A    between atoms: C_11  and  N_32
REMARK    5  A    between atoms: C_12  and  C_30
REMARK    6  A    between atoms: C_13  and  C_15
REMARK    7  A    between atoms: C_20  and  O_21
REMARK    8  A    between atoms: O_21  and  C_22
REMARK    9  A    between atoms: C_22  and  C_23
REMARK                            x       y       z     vdW  Elec       q    Type
REMARK                         _______ _______ _______ _____ _____    ______ ____
ROOT
ATOM      1  C   UNL     1       0.762  -2.018   1.233  0.00  0.00    +0.071 A 
ATOM      2  C   UNL     1      -0.197  -2.849   1.795  0.00  0.00    +0.050 A 
ATOM      3  C   UNL     1       0.183  -4.144   1.575  0.00  0.00    +0.222 A 
ATOM      4  N   UNL     1       1.343  -4.117   0.900  0.00  0.00    -0.246 N 
ATOM      5  H   UNL     1       1.851  -4.889   0.606  0.00  0.00    +0.192 HD
ATOM      6  N   UNL     1       1.687  -2.773   0.689  0.00  0.00    -0.176 NA
ATOM      7  O   UNL     1      -0.548  -5.204   2.001  0.00  0.00    -0.423 OA
ATOM      8  C   UNL     1      -1.810  -4.967   2.414  0.00  0.00    +0.200 C 
ATOM      9  C   UNL     1      -2.297  -3.734   2.675  0.00  0.00    +0.098 C 
ATOM     10  C   UNL     1      -1.460  -2.486   2.532  0.00  0.00    +0.105 C 
ENDROOT
BRANCH  10  11
ATOM     11  C   UNL     1      -1.115  -1.946   3.897  0.00  0.00    +0.008 A 
ATOM     12  C   UNL     1      -0.418  -2.731   4.794  0.00  0.00    +0.028 A 
ATOM     13  C   UNL     1      -0.101  -2.236   6.047  0.00  0.00    +0.041 A 
ATOM     14  C   UNL     1      -0.482  -0.954   6.403  0.00  0.00    +0.023 A 
ATOM     15  C   UNL     1      -1.180  -0.167   5.508  0.00  0.00    +0.047 A 
ATOM     16  C   UNL     1      -1.494  -0.660   4.249  0.00  0.00    +0.125 A 
ATOM     17 CL   UNL     1       0.776  -3.224   7.173  0.00  0.00    -0.084 Cl
BRANCH  16  18
ATOM     18  O   UNL     1      -2.175   0.116   3.365  0.00  0.00    -0.487 OA
BRANCH  18  19
ATOM     19  C   UNL     1      -2.533   1.431   3.796  0.00  0.00    +0.264 C 
BRANCH  19  20
ATOM     20  C   UNL     1      -3.276   2.136   2.692  0.00  0.00    -0.010 A 
ATOM     21  C   UNL     1      -2.582   2.877   1.754  0.00  0.00    +0.007 A 
ATOM     22  C   UNL     1      -3.264   3.525   0.741  0.00  0.00    +0.000 A 
ATOM     23  C   UNL     1      -4.641   3.431   0.666  0.00  0.00    +0.000 A 
ATOM     24  C   UNL     1      -5.336   2.690   1.603  0.00  0.00    +0.000 A 
ATOM     25  C   UNL     1      -4.653   2.039   2.614  0.00  0.00    +0.007 A 
ENDBRANCH  19  20
ENDBRANCH  18  19
ENDBRANCH  16  18
ENDBRANCH  10  11
BRANCH   8  26
ATOM     26  N   UNL     1      -2.649  -6.041   2.578  0.00  0.00    -0.328 N 
ATOM     27  H   UNL     1      -2.328  -6.939   2.398  0.00  0.00    +0.145 HD
ATOM     28  H   UNL     1      -3.562  -5.902   2.873  0.00  0.00    +0.145 HD
ENDBRANCH   8  26
BRANCH   9  29
ATOM     29  C   UNL     1      -3.657  -3.606   3.103  0.00  0.00    +0.101 C 
ATOM     30  N   UNL     1      -4.737  -3.505   3.443  0.00  0.00    -0.191 NA
ENDBRANCH   9  29
BRANCH   1  31
ATOM     31  C   UNL     1       0.742  -0.511   1.242  0.00  0.00    +0.057 C 
BRANCH  31  33
ATOM     32  C   UNL     1      -0.019   1.526   0.010  0.00  0.00    +0.004 C 
ATOM     33  C   UNL     1       0.002  -0.004   0.002  0.00  0.00    +0.003 C 
ENDBRANCH  31  33
ENDBRANCH   1  31
TORSDOF 8
