REMARK  Name = ZINC36744648
REMARK  6 active torsions:
REMARK  status: ('A' for Active; 'I' for Inactive)
REMARK    1  A    between atoms: C_5  and  N_14
REMARK    2  A    between atoms: C_6  and  N_7
REMARK    3  A    between atoms: N_7  and  C_8
REMARK    4  A    between atoms: C_8  and  C_9
REMARK    5  A    between atoms: C_9  and  S_10
REMARK    6  A    between atoms: S_10  and  N_13
REMARK                            x       y       z     vdW  Elec       q    Type
REMARK                         _______ _______ _______ _____ _____    ______ ____
ROOT
ATOM      1  C   UNL     1      -0.017   1.387   0.010  0.00  0.00    +0.026 A 
ATOM      2  C   UNL     1       1.177   2.085   0.002  0.00  0.00    +0.019 A 
ATOM      3  C   UNL     1       2.367   1.398  -0.013  0.00  0.00    +0.041 A 
ATOM      4  C   UNL     1       2.429  -0.013  -0.021  0.00  0.00    +0.100 A 
ATOM      5  C   UNL     1       1.195  -0.705  -0.013  0.00  0.00    +0.073 A 
ATOM      6  C   UNL     1       0.002  -0.004   0.002  0.00  0.00    +0.050 A 
ATOM      7  N   UNL     1       3.689  -0.495  -0.036  0.00  0.00    -0.246 NA
ATOM      8  C   UNL     1       4.729   0.286  -0.042  0.00  0.00    +0.157 A 
ATOM      9  S   UNL     1       4.085   1.841  -0.028  0.00  0.00    -0.075 S 
ENDROOT
BRANCH   5  10
ATOM     10  N   UNL     1       1.180  -2.106  -0.020  0.00  0.00    -0.355 N 
ATOM     11  H   UNL     1       2.015  -2.599  -0.031  0.00  0.00    +0.142 HD
ATOM     12  H   UNL     1       0.335  -2.582  -0.014  0.00  0.00    +0.142 HD
ENDBRANCH   5  10
BRANCH   6  13
ATOM     13  N   UNL     1      -1.212  -0.710   0.010  0.00  0.00    -0.341 N 
ATOM     14  H   UNL     1      -1.209  -1.679   0.005  0.00  0.00    +0.146 HD
BRANCH  13  15
ATOM     15  C   UNL     1      -2.482   0.019   0.027  0.00  0.00    +0.126 C 
BRANCH  15  16
ATOM     16  C   UNL     1      -3.642  -0.978   0.033  0.00  0.00    +0.203 C 
BRANCH  16  17
ATOM     17  S   UNL     1      -5.216  -0.076   0.053  0.00  0.00    +0.028 S 
ATOM     18  O   UNL     1      -5.377   0.599   1.293  0.00  0.00    -0.158 OA
ATOM     19  O   UNL     1      -5.401   0.613  -1.176  0.00  0.00    -0.158 OA
BRANCH  17  20
ATOM     20  N   UNL     1      -6.381  -1.253   0.059  0.00  0.00    -0.208 NA
ATOM     21  H   UNL     1      -6.125  -2.188   0.051  0.00  0.00    +0.144 HD
ATOM     22  H   UNL     1      -7.319  -1.006   0.069  0.00  0.00    +0.144 HD
ENDBRANCH  17  20
ENDBRANCH  16  17
ENDBRANCH  15  16
ENDBRANCH  13  15
ENDBRANCH   6  13
TORSDOF 6
