REMARK  Name = ZINC64110538
REMARK  10 active torsions:
REMARK  status: ('A' for Active; 'I' for Inactive)
REMARK    1  A    between atoms: C_1  and  C_2
REMARK    2  A    between atoms: C_8  and  C_12
REMARK    3  A    between atoms: C_12  and  N_13
REMARK    4  A    between atoms: N_13  and  C_14
REMARK    5  A    between atoms: N_13  and  C_15
REMARK    6  A    between atoms: C_15  and  C_16
REMARK    7  A    between atoms: C_19  and  S_29
REMARK    8  A    between atoms: N_21  and  C_22
REMARK    9  A    between atoms: C_22  and  C_23
REMARK   10  A    between atoms: S_29  and  C_32
REMARK                            x       y       z     vdW  Elec       q    Type
REMARK                         _______ _______ _______ _____ _____    ______ ____
ROOT
ATOM      1  C   UNL     1       3.829  -0.714   4.745  0.00  0.00    +0.109 C 
ENDROOT
BRANCH   1   2
ATOM      2  C   UNL     1       4.158  -0.719   3.250  0.00  0.00    +0.115 C 
ATOM      3  C   UNL     1       5.554  -1.252   3.019  0.00  0.00    +0.101 C 
ATOM      4  N   UNL     1       5.490  -2.459   2.610  0.00  0.00    -0.254 NA
ATOM      5  C   UNL     1       4.095  -2.904   2.511  0.00  0.00    +0.318 C 
ATOM      6  N   UNL     1       3.276  -1.669   2.528  0.00  0.00    -0.252 NA
BRANCH   5   7
ATOM      7  S   UNL     1       3.835  -3.809   0.960  0.00  0.00    +0.003 S 
ATOM      8  O   UNL     1       4.745  -4.899   0.918  0.00  0.00    -0.171 OA
ATOM      9  O   UNL     1       2.444  -4.064   0.817  0.00  0.00    -0.171 OA
ATOM     10  C   UNL     1       4.329  -2.599  -0.297  0.00  0.00    +0.198 C 
ENDBRANCH   5   7
BRANCH   6  11
ATOM     11  C   UNL     1       2.019  -1.881   3.260  0.00  0.00    +0.120 C 
BRANCH  11  12
ATOM     12  C   UNL     1       1.132  -0.642   3.119  0.00  0.00    +0.132 C 
ATOM     13  C   UNL     1      -0.166  -0.833   3.932  0.00  0.00    +0.035 C 
ATOM     14  C   UNL     1      -1.234  -0.197   3.001  0.00  0.00    +0.031 C 
ATOM     15  C   UNL     1      -0.664  -0.562   1.607  0.00  0.00    +0.160 C 
ATOM     16  O   UNL     1       0.764  -0.461   1.747  0.00  0.00    -0.375 OA
ENDBRANCH  11  12
ENDBRANCH   6  11
ENDBRANCH   1   2
BRANCH   1  17
ATOM     17  N   UNL     1       4.666   0.282   5.427  0.00  0.00    -0.300 NA
ATOM     18  C   UNL     1       4.241   1.647   5.090  0.00  0.00    +0.105 C 
BRANCH  17  19
ATOM     19  C   UNL     1       4.654   0.071   6.881  0.00  0.00    +0.130 C 
BRANCH  19  27
ATOM     20  C   UNL     1       9.744   0.396   5.121  0.00  0.00    +0.046 C 
ATOM     21  C   UNL     1       8.876   1.569   5.498  0.00  0.00    -0.025 A 
ATOM     22  C   UNL     1       9.212   2.815   5.106  0.00  0.00    +0.005 A 
ATOM     23  C   UNL     1       8.440   3.945   5.429  0.00  0.00    +0.002 A 
ATOM     24  C   UNL     1       7.306   3.868   6.154  0.00  0.00    +0.027 A 
ATOM     25  C   UNL     1       6.841   2.559   6.636  0.00  0.00    +0.060 A 
ATOM     26  N   UNL     1       5.810   2.191   7.339  0.00  0.00    -0.362 N 
ATOM     27  C   UNL     1       5.886   0.734   7.502  0.00  0.00    +0.188 C 
ATOM     28  N   UNL     1       7.100   0.301   6.799  0.00  0.00    -0.362 N 
ATOM     29  C   UNL     1       7.655   1.362   6.289  0.00  0.00    +0.063 A 
ATOM     30  H   UNL     1       7.427  -0.609   6.725  0.00  0.00    +0.162 HD
ATOM     31  H   UNL     1       5.118   2.772   7.691  0.00  0.00    +0.162 HD
ENDBRANCH  19  27
ENDBRANCH  17  19
ENDBRANCH   1  17
TORSDOF 7
