REMARK  Name = ZINC36698841
REMARK  12 active torsions:
REMARK  status: ('A' for Active; 'I' for Inactive)
REMARK    1  A    between atoms: C_1  and  C_2
REMARK    2  A    between atoms: C_7  and  C_8
REMARK    3  A    between atoms: N_12  and  C_13
REMARK    4  A    between atoms: C_13  and  C_14
REMARK    5  A    between atoms: C_14  and  N_15
REMARK    6  A    between atoms: N_15  and  C_16
REMARK    7  A    between atoms: N_15  and  C_17
REMARK    8  A    between atoms: C_18  and  C_20
REMARK    9  A    between atoms: C_23  and  S_26
REMARK   10  A    between atoms: S_26  and  N_29
REMARK   11  A    between atoms: C_31  and  C_38
REMARK   12  A    between atoms: C_34  and  C_37
REMARK                            x       y       z     vdW  Elec       q    Type
REMARK                         _______ _______ _______ _____ _____    ______ ____
ROOT
ATOM      1  C   UNL     1       0.523   0.758   0.885  0.00  0.00    +0.044 C 
ATOM      2  C   UNL     1       0.506  -0.733   0.669  0.00  0.00    -0.045 A 
ATOM      3  C   UNL     1       0.279  -1.225  -0.590  0.00  0.00    +0.032 A 
ATOM      4  C   UNL     1       0.255  -2.619  -0.828  0.00  0.00    +0.081 A 
ATOM      5  C   UNL     1       0.478  -3.447   0.296  0.00  0.00    +0.041 A 
ATOM      6  C   UNL     1       0.705  -2.946   1.553  0.00  0.00    +0.021 A 
ATOM      7  C   UNL     1       0.726  -1.577   1.748  0.00  0.00    -0.046 A 
ATOM      8  C   UNL     1       0.979  -1.008   3.120  0.00  0.00    +0.044 C 
ATOM      9  S   UNL     1       0.372  -5.075  -0.408  0.00  0.00    -0.052 S 
ATOM     10  C   UNL     1       0.050  -4.571  -2.092  0.00  0.00    +0.168 A 
ATOM     11  N   UNL     1       0.047  -3.262  -1.997  0.00  0.00    -0.224 NA
ATOM     12  N   UNL     1      -0.146  -5.360  -3.212  0.00  0.00    -0.248 N 
ATOM     13  C   UNL     1      -0.105  -6.703  -3.106  0.00  0.00    +0.252 C 
ATOM     14  O   UNL     1       0.030  -7.223  -2.015  0.00  0.00    -0.270 OA
ENDROOT
BRANCH  13  15
ATOM     15  C   UNL     1      -0.226  -7.544  -4.315  0.00  0.00    +0.037 A 
ATOM     16  C   UNL     1       0.400  -7.159  -5.502  0.00  0.00    +0.015 A 
ATOM     17  C   UNL     1       0.284  -7.949  -6.627  0.00  0.00    +0.029 A 
ATOM     18  C   UNL     1      -0.450  -9.121  -6.581  0.00  0.00    +0.106 A 
ATOM     19  C   UNL     1      -1.073  -9.508  -5.408  0.00  0.00    +0.029 A 
ATOM     20  C   UNL     1      -0.961  -8.730  -4.274  0.00  0.00    +0.015 A 
BRANCH  18  21
ATOM     21  S   UNL     1      -0.593 -10.124  -8.023  0.00  0.00    +0.061 S 
ATOM     22  O   UNL     1      -1.782 -10.887  -7.870  0.00  0.00    -0.153 OA
ATOM     23  O   UNL     1      -0.374  -9.268  -9.136  0.00  0.00    -0.153 OA
BRANCH  21  24
ATOM     24  N   UNL     1       0.666 -11.200  -7.997  0.00  0.00    -0.172 NA
ATOM     25  C   UNL     1       1.957 -10.870  -8.621  0.00  0.00    +0.140 C 
ATOM     26  C   UNL     1       2.358 -12.026  -9.544  0.00  0.00    +0.131 C 
ATOM     27  O   UNL     1       2.301 -13.253  -8.812  0.00  0.00    -0.371 OA
ATOM     28  C   UNL     1       0.997 -13.590  -8.334  0.00  0.00    +0.131 C 
ATOM     29  C   UNL     1       0.528 -12.511  -7.345  0.00  0.00    +0.140 C 
ATOM     30  C   UNL     1       1.047 -14.945  -7.626  0.00  0.00    +0.039 C 
ATOM     31  C   UNL     1       3.781 -11.801 -10.057  0.00  0.00    +0.039 C 
ENDBRANCH  21  24
ENDBRANCH  18  21
ENDBRANCH  13  15
BRANCH  12  32
ATOM     32  C   UNL     1      -0.399  -4.736  -4.513  0.00  0.00    +0.097 C 
BRANCH  32  33
ATOM     33  C   UNL     1       0.902  -4.140  -5.054  0.00  0.00    -0.060 C 
BRANCH  33  34
ATOM     34  N   UNL     1       0.683  -3.643  -6.419  0.00  0.00    +0.377 N 
ATOM     35  C   UNL     1      -0.271  -2.526  -6.386  0.00  0.00    -0.097 C 
ATOM     36  C   UNL     1       1.959  -3.180  -6.982  0.00  0.00    -0.097 C 
ATOM     37  H   UNL     1       0.312  -4.386  -6.992  0.00  0.00    -0.083 HD
ENDBRANCH  33  34
ENDBRANCH  32  33
ENDBRANCH  12  32
TORSDOF 6
