REMARK  Name = ZINC16827136
REMARK  12 active torsions:
REMARK  status: ('A' for Active; 'I' for Inactive)
REMARK    1  A    between atoms: C_1  and  C_2
REMARK    2  A    between atoms: C_5  and  S_9
REMARK    3  A    between atoms: C_7  and  C_8
REMARK    4  A    between atoms: S_9  and  N_12
REMARK    5  A    between atoms: C_14  and  O_36
REMARK    6  A    between atoms: C_17  and  C_19
REMARK    7  A    between atoms: C_19  and  O_21
REMARK    8  A    between atoms: O_21  and  C_22
REMARK    9  A    between atoms: C_22  and  C_24
REMARK   10  A    between atoms: C_22  and  C_25
REMARK   11  A    between atoms: N_27  and  C_28
REMARK   12  A    between atoms: C_33  and  C_34
REMARK                            x       y       z     vdW  Elec       q    Type
REMARK                         _______ _______ _______ _____ _____    ______ ____
ROOT
ATOM      1  N   UNL     1       1.849   4.738   0.991  0.00  0.00    -0.160 NA
ATOM      2  C   UNL     1       0.460   4.833   1.476  0.00  0.00    +0.141 C 
ATOM      3  C   UNL     1       0.564   5.540   2.847  0.00  0.00    +0.132 C 
ATOM      4  C   UNL     1       1.883   4.946   3.409  0.00  0.00    +0.064 C 
ATOM      5  C   UNL     1       2.757   4.791   2.146  0.00  0.00    +0.191 C 
ENDROOT
BRANCH   1   6
ATOM      6  S   UNL     1       2.311   4.603  -0.594  0.00  0.00    +0.062 S 
ATOM      7  O   UNL     1       1.256   3.931  -1.268  0.00  0.00    -0.153 OA
ATOM      8  O   UNL     1       3.645   4.114  -0.588  0.00  0.00    -0.153 OA
BRANCH   6  13
ATOM      9  C   UNL     1       2.532  10.186  -2.871  0.00  0.00    +0.044 C 
ATOM     10  C   UNL     1       2.477   8.791  -2.303  0.00  0.00    -0.047 A 
ATOM     11  C   UNL     1       1.337   8.025  -2.459  0.00  0.00    +0.005 A 
ATOM     12  C   UNL     1       1.286   6.747  -1.938  0.00  0.00    +0.029 A 
ATOM     13  C   UNL     1       2.375   6.233  -1.259  0.00  0.00    +0.106 A 
ATOM     14  C   UNL     1       3.516   6.998  -1.103  0.00  0.00    +0.032 A 
ATOM     15  C   UNL     1       3.566   8.278  -1.625  0.00  0.00    -0.046 A 
ATOM     16  C   UNL     1       4.810   9.112  -1.454  0.00  0.00    +0.044 C 
ENDBRANCH   6  13
ENDBRANCH   1   6
BRANCH   5  17
ATOM     17  C   UNL     1       3.558   3.517   2.227  0.00  0.00    +0.327 C 
ATOM     18  O   UNL     1       3.147   2.510   1.701  0.00  0.00    -0.249 OA
BRANCH  17  19
ATOM     19  O   UNL     1       4.729   3.501   2.884  0.00  0.00    -0.451 OA
BRANCH  19  20
ATOM     20  C   UNL     1       5.446   2.240   2.921  0.00  0.00    +0.259 C 
ATOM     21  C   UNL     1       6.386   2.152   1.716  0.00  0.00    +0.062 C 
BRANCH  20  22
ATOM     22  C   UNL     1       6.250   2.157   4.192  0.00  0.00    +0.258 C 
ATOM     23  O   UNL     1       6.221   3.071   4.989  0.00  0.00    -0.271 OA
ATOM     24  N   UNL     1       7.002   1.067   4.445  0.00  0.00    -0.282 N 
ATOM     25  H   UNL     1       6.977   0.309   3.839  0.00  0.00    +0.155 HD
BRANCH  24  26
ATOM     26  C   UNL     1       7.819   1.027   5.580  0.00  0.00    +0.038 A 
ATOM     27  C   UNL     1       8.200   2.208   6.204  0.00  0.00    +0.043 A 
ATOM     28  C   UNL     1       9.007   2.165   7.325  0.00  0.00    +0.043 A 
ATOM     29  C   UNL     1       9.434   0.948   7.826  0.00  0.00    +0.020 A 
ATOM     30  C   UNL     1       9.056  -0.229   7.206  0.00  0.00    +0.006 A 
ATOM     31  C   UNL     1       8.245  -0.193   6.089  0.00  0.00    -0.029 A 
ATOM     32  C   UNL     1       7.827  -1.476   5.418  0.00  0.00    +0.045 C 
ATOM     33 CL   UNL     1       9.485   3.640   8.107  0.00  0.00    -0.083 Cl
ENDBRANCH  24  26
ENDBRANCH  20  22
ENDBRANCH  19  20
ENDBRANCH  17  19
ENDBRANCH   5  17
BRANCH   3  34
ATOM     34  O   UNL     1      -0.545   5.207   3.684  0.00  0.00    -0.390 OA
ATOM     35  H   UNL     1      -1.392   5.556   3.373  0.00  0.00    +0.210 HD
ENDBRANCH   3  34
TORSDOF 8
