REMARK  Name = ZINC42478058
REMARK  4 active torsions:
REMARK  status: ('A' for Active; 'I' for Inactive)
REMARK    1  A    between atoms: C_1  and  C_2
REMARK    2  A    between atoms: C_3  and  C_11
REMARK    3  A    between atoms: C_7  and  N_8
REMARK    4  A    between atoms: N_13  and  C_14
REMARK                            x       y       z     vdW  Elec       q    Type
REMARK                         _______ _______ _______ _____ _____    ______ ____
ROOT
ATOM      1  C   UNL     1      -0.768  -0.163  -2.475  0.00  0.00    +0.245 C 
ATOM      2  O   UNL     1      -0.931   1.040  -2.530  0.00  0.00    -0.270 OA
ATOM      3  N   UNL     1      -0.959  -0.919  -3.574  0.00  0.00    -0.300 N 
ATOM      4  H   UNL     1      -0.829  -1.880  -3.531  0.00  0.00    +0.150 HD
ENDROOT
BRANCH   3   5
ATOM      5  C   UNL     1      -1.363  -0.291  -4.835  0.00  0.00    +0.159 C 
ATOM      6  C   UNL     1      -0.934  -1.173  -6.010  0.00  0.00    +0.032 C 
ATOM      7  C   UNL     1      -0.772  -0.346  -7.272  0.00  0.00    +0.004 C 
ATOM      8  C   UNL     1      -2.074   0.231  -7.797  0.00  0.00    +0.019 C 
ATOM      9  C   UNL     1      -2.635   1.278  -6.833  0.00  0.00    +0.104 C 
ATOM     10  N   UNL     1      -3.450   0.594  -5.817  0.00  0.00    -0.314 N 
ATOM     11  C   UNL     1      -2.869  -0.140  -4.867  0.00  0.00    +0.233 C 
ATOM     12  O   UNL     1      -3.551  -0.693  -4.030  0.00  0.00    -0.274 OA
ATOM     13  H   UNL     1      -4.416   0.680  -5.836  0.00  0.00    +0.149 HD
ENDBRANCH   3   5
BRANCH   1  16
ATOM     14  C   UNL     1      -0.618   1.432  -0.065  0.00  0.00    +0.047 C 
ATOM     15  C   UNL     1      -0.285  -0.038  -0.034  0.00  0.00    -0.008 A 
ATOM     16  C   UNL     1      -0.361  -0.797  -1.203  0.00  0.00    +0.042 A 
ATOM     17  C   UNL     1      -0.050  -2.157  -1.166  0.00  0.00    +0.013 A 
ATOM     18  C   UNL     1       0.329  -2.743   0.025  0.00  0.00    +0.003 A 
ATOM     19  C   UNL     1       0.402  -1.985   1.179  0.00  0.00    +0.033 A 
ATOM     20  C   UNL     1       0.102  -0.634   1.148  0.00  0.00    +0.130 A 
BRANCH  20  21
ATOM     21  N   UNL     1       0.189   0.171   2.387  0.00  0.00    +0.057 N 
ATOM     22  O   UNL     1       0.396  -0.372   3.447  0.00  0.00    -0.126 OA
ATOM     23  O   UNL     1       0.054   1.371   2.339  0.00  0.00    -0.126 OA
ENDBRANCH  20  21
ENDBRANCH   1  16
TORSDOF 3
