REMARK  Name = ZINC44430485
REMARK  8 active torsions:
REMARK  status: ('A' for Active; 'I' for Inactive)
REMARK    1  A    between atoms: C_1  and  C_2
REMARK    2  A    between atoms: C_2  and  C_3
REMARK    3  A    between atoms: C_2  and  O_4
REMARK    4  A    between atoms: O_4  and  C_5
REMARK    5  A    between atoms: C_8  and  C_11
REMARK    6  A    between atoms: C_11  and  N_12
REMARK    7  A    between atoms: C_14  and  C_19
REMARK    8  A    between atoms: C_21  and  C_24
REMARK                            x       y       z     vdW  Elec       q    Type
REMARK                         _______ _______ _______ _____ _____    ______ ____
ROOT
ATOM      1  N   UNL     1      -3.792  -2.315  -5.470  0.00  0.00    -0.296 N 
ATOM      2  C   UNL     1      -2.683  -2.774  -6.314  0.00  0.00    +0.120 C 
ATOM      3  C   UNL     1      -2.711  -4.316  -6.229  0.00  0.00    +0.086 C 
ATOM      4  C   UNL     1      -4.195  -4.586  -5.888  0.00  0.00    +0.109 C 
ATOM      5  C   UNL     1      -4.657  -3.312  -5.215  0.00  0.00    +0.217 C 
ATOM      6  O   UNL     1      -5.662  -3.206  -4.544  0.00  0.00    -0.276 OA
ENDROOT
BRANCH   3   7
ATOM      7  C   UNL     1      -2.340  -4.936  -7.551  0.00  0.00    +0.177 A 
ATOM      8  N   UNL     1      -1.308  -5.756  -7.758  0.00  0.00    -0.190 NA
ATOM      9  C   UNL     1      -1.267  -6.115  -9.024  0.00  0.00    +0.275 A 
ATOM     10  O   UNL     1      -2.293  -5.519  -9.659  0.00  0.00    -0.331 OA
ATOM     11  N   UNL     1      -2.979  -4.760  -8.674  0.00  0.00    -0.060 NA
BRANCH   9  12
ATOM     12  C   UNL     1      -0.274  -7.012  -9.637  0.00  0.00    +0.106 A 
ATOM     13  C   UNL     1       0.753  -7.613  -8.983  0.00  0.00    +0.041 A 
ATOM     14  C   UNL     1       1.471  -8.388  -9.927  0.00  0.00    +0.000 A 
ATOM     15  C   UNL     1       2.602  -9.209  -9.837  0.00  0.00    +0.010 A 
ATOM     16  C   UNL     1       3.072  -9.842 -10.951  0.00  0.00    +0.001 A 
ATOM     17  C   UNL     1       2.438  -9.681 -12.176  0.00  0.00    +0.002 A 
ATOM     18  C   UNL     1       1.325  -8.879 -12.290  0.00  0.00    +0.026 A 
ATOM     19  C   UNL     1       0.827  -8.223 -11.168  0.00  0.00    +0.047 A 
ATOM     20  N   UNL     1      -0.243  -7.381 -10.967  0.00  0.00    -0.350 N 
ATOM     21  H   UNL     1      -0.871  -7.092 -11.648  0.00  0.00    +0.166 HD
ENDBRANCH   9  12
ENDBRANCH   3   7
BRANCH   1  22
ATOM     22  C   UNL     1      -3.936  -0.947  -4.965  0.00  0.00    +0.142 C 
BRANCH  22  26
ATOM     23  C   UNL     1      -1.965  -0.607  -1.189  0.00  0.00    +0.121 A 
ATOM     24  C   UNL     1      -1.270  -0.349  -2.361  0.00  0.00    +0.046 A 
ATOM     25  C   UNL     1      -1.909  -0.460  -3.581  0.00  0.00    +0.009 A 
ATOM     26  C   UNL     1      -3.241  -0.827  -3.634  0.00  0.00    -0.030 A 
ATOM     27  C   UNL     1      -3.937  -1.084  -2.466  0.00  0.00    +0.009 A 
ATOM     28  C   UNL     1      -3.300  -0.981  -1.245  0.00  0.00    +0.046 A 
BRANCH  23  29
ATOM     29  O   UNL     1      -1.339  -0.499   0.012  0.00  0.00    -0.489 OA
BRANCH  29  31
ATOM     30  C   UNL     1       0.290   1.280  -0.134  0.00  0.00    +0.051 C 
ATOM     31  C   UNL     1       0.064  -0.228  -0.010  0.00  0.00    +0.167 C 
ATOM     32  C   UNL     1       0.703  -0.735   1.284  0.00  0.00    +0.051 C 
ENDBRANCH  29  31
ENDBRANCH  23  29
ENDBRANCH  22  26
ENDBRANCH   1  22
TORSDOF 6
