REMARK  Name = ZINC10024084
REMARK  6 active torsions:
REMARK  status: ('A' for Active; 'I' for Inactive)
REMARK    1  A    between atoms: C_1  and  C_2
REMARK    2  A    between atoms: C_11  and  C_12
REMARK    3  A    between atoms: C_11  and  N_57
REMARK    4  A    between atoms: N_14  and  N_15
REMARK    5  A    between atoms: C_18  and  C_22
REMARK    6  A    between atoms: C_18  and  C_28
REMARK                            x       y       z     vdW  Elec       q    Type
REMARK                         _______ _______ _______ _____ _____    ______ ____
ROOT
ATOM      1  N   UNL     1      -4.311   0.432  -1.964  0.00  0.00    -0.137 N 
ATOM      2  C   UNL     1      -5.431  -0.300  -2.120  0.00  0.00    +0.272 C 
ATOM      3  O   UNL     1      -5.505  -1.466  -2.447  0.00  0.00    -0.270 OA
ATOM      4  C   UNL     1      -6.580   0.635  -1.799  0.00  0.00    +0.165 C 
ATOM      5  N   UNL     1      -5.911   1.907  -1.476  0.00  0.00    -0.276 N 
ATOM      6  C   UNL     1      -4.589   1.689  -1.600  0.00  0.00    +0.327 C 
ATOM      7  O   UNL     1      -3.743   2.539  -1.404  0.00  0.00    -0.251 OA
ATOM      8  H   UNL     1      -6.340   2.740  -1.223  0.00  0.00    +0.152 HD
ENDROOT
BRANCH   4   9
ATOM      9  C   UNL     1      -7.363   0.132  -0.614  0.00  0.00    -0.011 A 
ATOM     10  C   UNL     1      -7.664   0.988   0.429  0.00  0.00    +0.006 A 
ATOM     11  C   UNL     1      -8.387   0.528   1.514  0.00  0.00    +0.000 A 
ATOM     12  C   UNL     1      -8.799  -0.790   1.561  0.00  0.00    +0.000 A 
ATOM     13  C   UNL     1      -8.493  -1.648   0.521  0.00  0.00    +0.000 A 
ATOM     14  C   UNL     1      -7.775  -1.187  -0.567  0.00  0.00    +0.006 A 
ENDBRANCH   4   9
BRANCH   4  15
ATOM     15  C   UNL     1      -7.480   0.798  -2.997  0.00  0.00    -0.011 A 
ATOM     16  C   UNL     1      -7.998  -0.317  -3.628  0.00  0.00    +0.006 A 
ATOM     17  C   UNL     1      -8.828  -0.168  -4.724  0.00  0.00    +0.000 A 
ATOM     18  C   UNL     1      -9.130   1.097  -5.194  0.00  0.00    +0.000 A 
ATOM     19  C   UNL     1      -8.608   2.211  -4.566  0.00  0.00    +0.000 A 
ATOM     20  C   UNL     1      -7.783   2.062  -3.467  0.00  0.00    +0.006 A 
ENDBRANCH   4  15
BRANCH   1  23
ATOM     21  C   UNL     1      -2.225  -0.329  -1.105  0.00  0.00    +0.213 C 
ATOM     22  O   UNL     1      -2.636  -0.144   0.021  0.00  0.00    -0.276 OA
ATOM     23  N   UNL     1      -3.014  -0.060  -2.164  0.00  0.00    -0.225 N 
ATOM     24  H   UNL     1      -2.685  -0.208  -3.064  0.00  0.00    +0.173 HD
BRANCH  21  25
ATOM     25  C   UNL     1      -0.830  -0.858  -1.320  0.00  0.00    +0.021 C 
BRANCH  25  35
ATOM     26  C   UNL     1       1.920  -0.113  -0.845  0.00  0.00    -0.008 C 
ATOM     27  C   UNL     1       1.257  -1.323  -0.184  0.00  0.00    -0.039 C 
ATOM     28  C   UNL     1       1.872  -1.556   1.192  0.00  0.00    -0.051 A 
ATOM     29  C   UNL     1       3.235  -1.458   1.461  0.00  0.00    +0.010 A 
ATOM     30  C   UNL     1       3.695  -1.678   2.715  0.00  0.00    +0.045 A 
ATOM     31  S   UNL     1       2.188  -2.044   3.602  0.00  0.00    -0.101 S 
ATOM     32  C   UNL     1       1.066  -1.878   2.243  0.00  0.00    -0.010 A 
ATOM     33  C   UNL     1      -0.418  -2.043   2.211  0.00  0.00    +0.024 C 
ATOM     34  C   UNL     1      -0.847  -2.137   0.737  0.00  0.00    -0.072 C 
ATOM     35  N   UNL     1      -0.186  -1.036  -0.004  0.00  0.00    +0.390 N 
ATOM     36  H   UNL     1      -0.286  -0.168   0.535  0.00  0.00    -0.080 HD
ENDBRANCH  25  35
ENDBRANCH  21  25
ENDBRANCH   1  23
TORSDOF 5
