REMARK  Name = ZINC14128804
REMARK  9 active torsions:
REMARK  status: ('A' for Active; 'I' for Inactive)
REMARK    1  A    between atoms: C_1  and  C_2
REMARK    2  A    between atoms: C_2  and  C_3
REMARK    3  A    between atoms: C_2  and  O_4
REMARK    4  A    between atoms: O_4  and  C_5
REMARK    5  A    between atoms: C_8  and  C_11
REMARK    6  A    between atoms: N_13  and  N_14
REMARK    7  A    between atoms: C_15  and  C_17
REMARK    8  A    between atoms: C_20  and  C_23
REMARK    9  A    between atoms: C_23  and  N_24
REMARK                            x       y       z     vdW  Elec       q    Type
REMARK                         _______ _______ _______ _____ _____    ______ ____
ROOT
ATOM      1  C   UNL     1      -3.068   3.081  -2.723  0.00  0.00    +0.038 A 
ATOM      2  C   UNL     1      -2.048   3.834  -2.138  0.00  0.00    +0.013 A 
ATOM      3  C   UNL     1      -1.546   3.469  -0.906  0.00  0.00    +0.006 A 
ATOM      4  C   UNL     1      -2.051   2.361  -0.250  0.00  0.00    -0.028 A 
ATOM      5  C   UNL     1      -3.058   1.607  -0.826  0.00  0.00    +0.006 A 
ATOM      6  C   UNL     1      -3.573   1.964  -2.056  0.00  0.00    +0.013 A 
ENDROOT
BRANCH   1   8
ATOM      7  N   UNL     1      -4.596   2.738  -4.604  0.00  0.00    -0.230 N 
ATOM      8  C   UNL     1      -3.611   3.467  -4.042  0.00  0.00    +0.260 C 
ATOM      9  O   UNL     1      -3.170   4.440  -4.621  0.00  0.00    -0.269 OA
ATOM     10  H   UNL     1      -4.948   1.961  -4.143  0.00  0.00    +0.173 HD
BRANCH   7  13
ATOM     11  C   UNL     1      -6.096   2.374  -6.417  0.00  0.00    +0.260 C 
ATOM     12  O   UNL     1      -6.537   1.400  -5.838  0.00  0.00    -0.269 OA
ATOM     13  N   UNL     1      -5.111   3.103  -5.855  0.00  0.00    -0.230 N 
ATOM     14  H   UNL     1      -4.759   3.880  -6.317  0.00  0.00    +0.173 HD
BRANCH  11  18
ATOM     15  C   UNL     1      -7.657   3.481 -10.208  0.00  0.00    +0.121 A 
ATOM     16  C   UNL     1      -8.163   2.367  -9.549  0.00  0.00    +0.046 A 
ATOM     17  C   UNL     1      -7.660   2.005  -8.319  0.00  0.00    +0.016 A 
ATOM     18  C   UNL     1      -6.639   2.759  -7.735  0.00  0.00    +0.038 A 
ATOM     19  C   UNL     1      -6.137   3.881  -8.399  0.00  0.00    +0.016 A 
ATOM     20  C   UNL     1      -6.641   4.233  -9.631  0.00  0.00    +0.046 A 
BRANCH  15  21
ATOM     21  O   UNL     1      -8.156   3.834 -11.420  0.00  0.00    -0.489 OA
BRANCH  21  23
ATOM     22  C   UNL     1     -10.507   3.277 -11.469  0.00  0.00    +0.051 C 
ATOM     23  C   UNL     1      -9.114   2.952 -12.009  0.00  0.00    +0.167 C 
ATOM     24  C   UNL     1      -9.102   3.130 -13.529  0.00  0.00    +0.051 C 
ENDBRANCH  21  23
ENDBRANCH  15  21
ENDBRANCH  11  18
ENDBRANCH   7  13
ENDBRANCH   1   8
BRANCH   4  25
ATOM     25  C   UNL     1      -1.496   1.968   1.095  0.00  0.00    +0.166 C 
BRANCH  25  26
ATOM     26  N   UNL     1      -2.260   2.637   2.152  0.00  0.00    -0.198 N 
ATOM     27  C   UNL     1      -3.462   2.205   2.736  0.00  0.00    +0.061 A 
ATOM     28  C   UNL     1      -4.190   1.054   2.441  0.00  0.00    +0.025 A 
ATOM     29  C   UNL     1      -5.371   0.767   3.114  0.00  0.00    +0.002 A 
ATOM     30  C   UNL     1      -5.877   1.582   4.084  0.00  0.00    +0.009 A 
ATOM     31  C   UNL     1      -5.178   2.755   4.416  0.00  0.00    -0.014 A 
ATOM     32  C   UNL     1      -3.979   3.037   3.727  0.00  0.00    +0.031 A 
ATOM     33  C   UNL     1      -3.256   4.196   4.028  0.00  0.00    +0.118 A 
ATOM     34  C   UNL     1      -3.692   5.048   4.974  0.00  0.00    +0.029 A 
ATOM     35  C   UNL     1      -4.880   4.777   5.664  0.00  0.00    +0.003 A 
ATOM     36  C   UNL     1      -5.614   3.658   5.399  0.00  0.00    +0.009 A 
ATOM     37  S   UNL     1      -1.878   4.076   2.924  0.00  0.00    +0.076 S 
ATOM     38  O   UNL     1      -0.711   3.853   3.704  0.00  0.00    -0.150 OA
ATOM     39  O   UNL     1      -1.996   5.124   1.972  0.00  0.00    -0.150 OA
ENDBRANCH  25  26
ENDBRANCH   4  25
TORSDOF 7
