REMARK  Name = ZINC07718906
REMARK  6 active torsions:
REMARK  status: ('A' for Active; 'I' for Inactive)
REMARK    1  A    between atoms: C_1  and  C_2
REMARK    2  A    between atoms: C_9  and  N_13
REMARK    3  A    between atoms: C_10  and  C_11
REMARK    4  A    between atoms: C_14  and  C_16
REMARK    5  A    between atoms: C_16  and  C_17
REMARK    6  A    between atoms: C_17  and  N_18
REMARK                            x       y       z     vdW  Elec       q    Type
REMARK                         _______ _______ _______ _____ _____    ______ ____
ROOT
ATOM      1  N   UNL     1       3.379   6.254  -2.608  0.00  0.00    -0.279 N 
ATOM      2  C   UNL     1       2.952   5.736  -1.439  0.00  0.00    +0.219 C 
ATOM      3  O   UNL     1       3.356   6.191  -0.390  0.00  0.00    -0.275 OA
ATOM      4  H   UNL     1       3.055   5.889  -3.447  0.00  0.00    +0.155 HD
ENDROOT
BRANCH   1  12
ATOM      5  C   UNL     1       8.530  12.127  -2.198  0.00  0.00    +0.008 C 
ATOM      6  C   UNL     1       7.814  10.857  -2.664  0.00  0.00    -0.009 C 
ATOM      7  C   UNL     1       6.964  11.171  -3.898  0.00  0.00    +0.008 C 
ATOM      8  C   UNL     1       6.444   9.873  -4.516  0.00  0.00    +0.037 C 
ATOM      9  C   UNL     1       5.759   9.052  -3.430  0.00  0.00    -0.018 A 
ATOM     10  C   UNL     1       5.990   9.300  -2.122  0.00  0.00    -0.004 A 
ATOM     11  S   UNL     1       4.987   8.125  -1.256  0.00  0.00    -0.077 S 
ATOM     12  C   UNL     1       4.280   7.309  -2.611  0.00  0.00    +0.090 A 
ATOM     13  C   UNL     1       4.830   7.969  -3.700  0.00  0.00    +0.084 A 
ATOM     14  C   UNL     1       6.894  10.346  -1.546  0.00  0.00    +0.046 C 
BRANCH  13  15
ATOM     15  C   UNL     1       4.493   7.597  -5.041  0.00  0.00    +0.102 C 
ATOM     16  N   UNL     1       4.225   7.302  -6.105  0.00  0.00    -0.191 NA
ENDBRANCH  13  15
ENDBRANCH   1  12
BRANCH   2  17
ATOM     17  C   UNL     1       1.973   4.590  -1.435  0.00  0.00    +0.115 C 
BRANCH  17  18
ATOM     18  C   UNL     1       1.655   4.195   0.008  0.00  0.00    +0.127 C 
BRANCH  18  19
ATOM     19  N   UNL     1       0.704   3.082   0.012  0.00  0.00    -0.224 N 
ATOM     20  C   UNL     1      -0.639   3.230   0.025  0.00  0.00    +0.247 C 
ATOM     21  O   UNL     1      -1.264   4.269   0.038  0.00  0.00    -0.273 OA
ATOM     22  C   UNL     1      -1.194   1.829   0.017  0.00  0.00    +0.113 C 
ATOM     23  C   UNL     1      -2.057   1.573   1.260  0.00  0.00    +0.035 C 
ATOM     24  C   UNL     1      -3.510   1.774   0.755  0.00  0.00    +0.003 C 
ATOM     25  C   UNL     1      -3.464   1.177  -0.674  0.00  0.00    +0.003 C 
ATOM     26  C   UNL     1      -2.074   1.585  -1.212  0.00  0.00    +0.035 C 
ATOM     27  N   UNL     1      -0.011   0.966   0.007  0.00  0.00    -0.285 N 
ATOM     28  C   UNL     1       1.056   1.790   0.002  0.00  0.00    +0.309 C 
ATOM     29  O   UNL     1       2.208   1.403  -0.011  0.00  0.00    -0.252 OA
ATOM     30  H   UNL     1       0.002  -0.004   0.002  0.00  0.00    +0.151 HD
ENDBRANCH  18  19
ENDBRANCH  17  18
ENDBRANCH   2  17
TORSDOF 5
