REMARK  Name = ZINC63141487
REMARK  8 active torsions:
REMARK  status: ('A' for Active; 'I' for Inactive)
REMARK    1  A    between atoms: C_1  and  O_2
REMARK    2  A    between atoms: O_2  and  C_3
REMARK    3  A    between atoms: C_3  and  C_4
REMARK    4  A    between atoms: C_4  and  N_5
REMARK    5  A    between atoms: C_25  and  C_27
REMARK    6  A    between atoms: C_30  and  C_33
REMARK    7  A    between atoms: C_33  and  O_35
REMARK    8  A    between atoms: O_35  and  C_36
REMARK                            x       y       z     vdW  Elec       q    Type
REMARK                         _______ _______ _______ _____ _____    ______ ____
ROOT
ATOM      1  N   UNL     1      -0.811  -2.396   1.481  0.00  0.00    -0.289 N 
ATOM      2  C   UNL     1       0.633  -2.520   1.375  0.00  0.00    +0.203 C 
ATOM      3  C   UNL     1       1.248  -3.050   2.627  0.00  0.00    +0.234 C 
ATOM      4  O   UNL     1       2.452  -3.194   2.646  0.00  0.00    -0.274 OA
ATOM      5  N   UNL     1       0.565  -3.376   3.731  0.00  0.00    -0.279 N 
ATOM      6  C   UNL     1      -0.883  -3.228   3.835  0.00  0.00    +0.167 C 
ATOM      7  C   UNL     1      -1.498  -2.704   2.579  0.00  0.00    +0.237 C 
ATOM      8  O   UNL     1      -2.701  -2.555   2.557  0.00  0.00    -0.274 OA
ATOM      9  C   UNL     1      -1.233  -2.293   5.007  0.00  0.00    +0.065 C 
ATOM     10  C   UNL     1      -0.393  -2.739   6.178  0.00  0.00    -0.034 C 
ATOM     11  C   UNL     1      -0.716  -3.038   7.430  0.00  0.00    -0.001 A 
ATOM     12  C   UNL     1      -1.987  -2.937   8.165  0.00  0.00    +0.010 A 
ATOM     13  C   UNL     1      -1.967  -3.358   9.457  0.00  0.00    +0.001 A 
ATOM     14  C   UNL     1      -0.825  -3.864  10.085  0.00  0.00    +0.002 A 
ATOM     15  C   UNL     1       0.388  -3.983   9.488  0.00  0.00    +0.026 A 
ATOM     16  C   UNL     1       0.496  -3.565   8.130  0.00  0.00    +0.043 A 
ATOM     17  N   UNL     1       1.524  -3.546   7.334  0.00  0.00    -0.375 N 
ATOM     18  C   UNL     1       1.112  -2.953   6.062  0.00  0.00    +0.131 C 
ATOM     19  C   UNL     1       1.328  -3.907   4.884  0.00  0.00    +0.133 C 
ATOM     20  H   UNL     1       2.413  -3.869   7.548  0.00  0.00    +0.160 HD
ENDROOT
BRANCH  19  21
ATOM     21  C   UNL     1       0.824  -5.281   5.240  0.00  0.00    -0.025 A 
ATOM     22  C   UNL     1      -0.504  -5.460   5.587  0.00  0.00    +0.006 A 
ATOM     23  C   UNL     1      -0.972  -6.715   5.914  0.00  0.00    +0.015 A 
ATOM     24  C   UNL     1      -0.102  -7.808   5.896  0.00  0.00    +0.059 A 
ATOM     25  C   UNL     1       1.237  -7.620   5.546  0.00  0.00    +0.015 A 
ATOM     26  C   UNL     1       1.690  -6.360   5.215  0.00  0.00    +0.006 A 
BRANCH  24  27
ATOM     27  C   UNL     1      -0.596  -9.155   6.246  0.00  0.00    +0.339 C 
ATOM     28  O   UNL     1      -1.761  -9.315   6.551  0.00  0.00    -0.245 OA
BRANCH  27  29
ATOM     29  O   UNL     1       0.246 -10.207   6.227  0.00  0.00    -0.464 OA
ATOM     30  C   UNL     1      -0.300 -11.480   6.577  0.00  0.00    +0.280 C 
ENDBRANCH  27  29
ENDBRANCH  24  27
ENDBRANCH  19  21
BRANCH   1  31
ATOM     31  C   UNL     1      -1.551  -1.899   0.318  0.00  0.00    +0.136 C 
BRANCH  31  32
ATOM     32  C   UNL     1      -1.651  -0.374   0.391  0.00  0.00    +0.178 C 
BRANCH  32  34
ATOM     33  C   UNL     1      -0.327   1.623   0.337  0.00  0.00    +0.194 C 
ATOM     34  O   UNL     1      -0.345   0.195   0.280  0.00  0.00    -0.381 OA
ENDBRANCH  32  34
ENDBRANCH  31  32
ENDBRANCH   1  31
TORSDOF 6
