REMARK  Name = ZINC17093869
REMARK  5 active torsions:
REMARK  status: ('A' for Active; 'I' for Inactive)
REMARK    1  A    between atoms: C_1  and  C_2
REMARK    2  A    between atoms: C_5  and  C_8
REMARK    3  A    between atoms: C_22  and  N_33
REMARK    4  A    between atoms: C_23  and  C_24
REMARK    5  A    between atoms: N_26  and  C_27
REMARK                            x       y       z     vdW  Elec       q    Type
REMARK                         _______ _______ _______ _____ _____    ______ ____
ROOT
ATOM      1  C   UNL     1       2.466   1.378   0.007  0.00  0.00    +0.100 C 
ATOM      2  C   UNL     1       2.312  -0.060  -0.410  0.00  0.00    +0.092 A 
ATOM      3  C   UNL     1       1.087  -0.657  -0.402  0.00  0.00    +0.152 A 
ATOM      4  C   UNL     1       0.998  -2.067  -0.815  0.00  0.00    +0.060 A 
ATOM      5  C   UNL     1      -0.226  -2.739  -0.826  0.00  0.00    +0.015 A 
ATOM      6  C   UNL     1      -0.274  -4.059  -1.218  0.00  0.00    +0.001 A 
ATOM      7  C   UNL     1       0.886  -4.719  -1.598  0.00  0.00    +0.004 A 
ATOM      8  C   UNL     1       2.101  -4.067  -1.591  0.00  0.00    +0.047 A 
ATOM      9  C   UNL     1       2.171  -2.736  -1.200  0.00  0.00    +0.143 A 
ATOM     10  O   UNL     1       3.352  -2.081  -1.187  0.00  0.00    -0.422 OA
ATOM     11  C   UNL     1       3.441  -0.796  -0.810  0.00  0.00    +0.345 A 
ATOM     12  O   UNL     1       4.531  -0.252  -0.815  0.00  0.00    -0.245 OA
ATOM     13  O   UNL     1      -0.021   0.010  -0.029  0.00  0.00    -0.441 OA
ATOM     14  C   UNL     1      -0.024   1.355  -0.018  0.00  0.00    +0.193 C 
ATOM     15  C   UNL     1       1.130   2.067  -0.001  0.00  0.00    +0.084 C 
ENDROOT
BRANCH   1  20
ATOM     16  C   UNL     1       4.702   1.602   5.330  0.00  0.00    +0.044 C 
ATOM     17  C   UNL     1       4.120   1.543   3.942  0.00  0.00    -0.050 A 
ATOM     18  C   UNL     1       4.791   2.128   2.885  0.00  0.00    +0.003 A 
ATOM     19  C   UNL     1       4.256   2.074   1.611  0.00  0.00    +0.005 A 
ATOM     20  C   UNL     1       3.050   1.436   1.395  0.00  0.00    -0.035 A 
ATOM     21  C   UNL     1       2.375   0.856   2.453  0.00  0.00    +0.005 A 
ATOM     22  C   UNL     1       2.913   0.905   3.725  0.00  0.00    +0.003 A 
ENDBRANCH   1  20
BRANCH  15  23
ATOM     23  C   UNL     1       1.076   3.471   0.009  0.00  0.00    +0.250 C 
ATOM     24  O   UNL     1       1.164   4.092  -1.036  0.00  0.00    -0.270 OA
ATOM     25  N   UNL     1       0.927   4.132   1.174  0.00  0.00    -0.282 N 
ATOM     26  H   UNL     1       0.943   3.645   2.013  0.00  0.00    +0.155 HD
BRANCH  25  27
ATOM     27  C   UNL     1       0.749   5.519   1.174  0.00  0.00    +0.034 A 
ATOM     28  C   UNL     1       1.120   6.268   2.283  0.00  0.00    +0.023 A 
ATOM     29  C   UNL     1       0.949   7.639   2.278  0.00  0.00    +0.002 A 
ATOM     30  C   UNL     1       0.398   8.264   1.174  0.00  0.00    +0.000 A 
ATOM     31  C   UNL     1       0.023   7.520   0.070  0.00  0.00    +0.002 A 
ATOM     32  C   UNL     1       0.197   6.150   0.067  0.00  0.00    +0.023 A 
ENDBRANCH  25  27
ENDBRANCH  15  23
BRANCH  14  33
ATOM     33  N   UNL     1      -1.221   2.021  -0.030  0.00  0.00    -0.329 N 
ATOM     34  H   UNL     1      -2.051   1.526  -0.119  0.00  0.00    +0.145 HD
ATOM     35  H   UNL     1      -1.239   2.987   0.051  0.00  0.00    +0.145 HD
ENDBRANCH  14  33
TORSDOF 4
