REMARK  Name = ZINC39749473
REMARK  7 active torsions:
REMARK  status: ('A' for Active; 'I' for Inactive)
REMARK    1  A    between atoms: C_1  and  C_2
REMARK    2  A    between atoms: C_2  and  C_37
REMARK    3  A    between atoms: C_6  and  C_28
REMARK    4  A    between atoms: C_12  and  S_16
REMARK    5  A    between atoms: S_16  and  C_17
REMARK    6  A    between atoms: C_17  and  C_18
REMARK    7  A    between atoms: C_21  and  N_24
REMARK                            x       y       z     vdW  Elec       q    Type
REMARK                         _______ _______ _______ _____ _____    ______ ____
ROOT
ATOM      1  C   UNL     1      -0.019   1.526   0.010  0.00  0.00    +0.011 C 
ATOM      2  C   UNL     1       0.002  -0.004   0.002  0.00  0.00    -0.023 C 
ATOM      3  C   UNL     1      -1.433  -0.537   0.033  0.00  0.00    +0.062 C 
ATOM      4  C   UNL     1      -1.400  -2.046   0.081  0.00  0.00    +0.051 C 
ATOM      5  C   UNL     1      -0.346  -2.701   0.727  0.00  0.00    +0.025 C 
ATOM      6  C   UNL     1      -0.350  -4.213   0.821  0.00  0.00    +0.073 C 
ATOM      7  C   UNL     1      -1.052  -4.770  -0.413  0.00  0.00    +0.156 C 
ATOM      8  C   UNL     1      -2.353  -4.043  -0.623  0.00  0.00    +0.145 C 
ATOM      9  N   UNL     1      -3.453  -4.707  -0.911  0.00  0.00    -0.208 NA
ATOM     10  C   UNL     1      -3.494  -6.039  -0.924  0.00  0.00    +0.182 C 
ATOM     11  N   UNL     1      -2.447  -6.785  -0.593  0.00  0.00    -0.154 NA
ATOM     12  C   UNL     1      -1.284  -6.244  -0.306  0.00  0.00    +0.250 C 
ATOM     13  O   UNL     1      -0.372  -6.968   0.046  0.00  0.00    -0.273 OA
ATOM     14  N   UNL     1      -2.397  -2.726  -0.453  0.00  0.00    -0.236 NA
ATOM     15  C   UNL     1       0.682  -2.017   1.278  0.00  0.00    +0.162 C 
ATOM     16  O   UNL     1       1.677  -2.698   1.875  0.00  0.00    -0.292 OA
ATOM     17  C   UNL     1       0.742  -0.515   1.242  0.00  0.00    +0.086 C 
ATOM     18  C   UNL     1       0.711  -0.501  -1.260  0.00  0.00    +0.011 C 
ENDROOT
BRANCH   6  19
ATOM     19  C   UNL     1       1.068  -4.722   0.872  0.00  0.00    -0.036 A 
ATOM     20  C   UNL     1       1.953  -4.461  -0.164  0.00  0.00    +0.024 A 
ATOM     21  C   UNL     1       3.245  -4.944  -0.082  0.00  0.00    +0.111 A 
ATOM     22  N   UNL     1       3.639  -5.645   0.963  0.00  0.00    -0.263 NA
ATOM     23  C   UNL     1       2.825  -5.912   1.966  0.00  0.00    +0.111 A 
ATOM     24  C   UNL     1       1.520  -5.457   1.957  0.00  0.00    +0.024 A 
ENDBRANCH   6  19
BRANCH  10  25
ATOM     25  S   UNL     1      -4.991  -6.838  -1.397  0.00  0.00    -0.084 S 
BRANCH  25  26
ATOM     26  C   UNL     1      -4.603  -8.606  -1.274  0.00  0.00    +0.112 C 
BRANCH  26  27
ATOM     27  C   UNL     1      -5.816  -9.414  -1.658  0.00  0.00    -0.037 A 
ATOM     28  C   UNL     1      -6.736  -9.780  -0.693  0.00  0.00    +0.007 A 
ATOM     29  C   UNL     1      -7.848 -10.521  -1.045  0.00  0.00    +0.033 A 
ATOM     30  C   UNL     1      -8.041 -10.897  -2.361  0.00  0.00    +0.126 A 
ATOM     31  C   UNL     1      -7.122 -10.530  -3.326  0.00  0.00    +0.033 A 
ATOM     32  C   UNL     1      -6.011  -9.785  -2.975  0.00  0.00    +0.007 A 
BRANCH  30  33
ATOM     33  N   UNL     1      -9.232 -11.691  -2.737  0.00  0.00    +0.056 N 
ATOM     34  O   UNL     1     -10.035 -12.012  -1.893  0.00  0.00    -0.126 OA
ATOM     35  O   UNL     1      -9.400 -12.019  -3.889  0.00  0.00    -0.126 OA
ENDBRANCH  30  33
ENDBRANCH  26  27
ENDBRANCH  25  26
ENDBRANCH  10  25
TORSDOF 5
