REMARK  Name = ZINC09767831
REMARK  12 active torsions:
REMARK  status: ('A' for Active; 'I' for Inactive)
REMARK    1  A    between atoms: C_1  and  C_2
REMARK    2  A    between atoms: C_2  and  C_3
REMARK    3  A    between atoms: N_9  and  S_10
REMARK    4  A    between atoms: S_10  and  C_13
REMARK    5  A    between atoms: C_16  and  C_19
REMARK    6  A    between atoms: C_19  and  N_21
REMARK    7  A    between atoms: N_23  and  C_32
REMARK    8  A    between atoms: C_25  and  C_31
REMARK    9  A    between atoms: C_32  and  C_33
REMARK   10  A    between atoms: C_33  and  O_35
REMARK   11  A    between atoms: O_35  and  C_36
REMARK   12  A    between atoms: C_36  and  C_37
REMARK                            x       y       z     vdW  Elec       q    Type
REMARK                         _______ _______ _______ _____ _____    ______ ____
ROOT
ATOM      1  C   UNL     1      -4.985   2.028  -2.000  0.00  0.00    +0.269 C 
ATOM      2  O   UNL     1      -4.706   2.631  -0.978  0.00  0.00    -0.268 OA
ENDROOT
BRANCH   1   3
ATOM      3  N   UNL     1      -4.048   1.313  -2.631  0.00  0.00    -0.152 NA
ATOM      4  C   UNL     1      -2.813   1.261  -2.145  0.00  0.00    +0.167 A 
ATOM      5  N   UNL     1      -1.738   0.594  -2.644  0.00  0.00    -0.310 N 
ATOM      6  C   UNL     1      -0.518   0.662  -1.997  0.00  0.00    +0.061 A 
ATOM      7  C   UNL     1       0.692   0.044  -2.350  0.00  0.00    -0.026 A 
ATOM      8  C   UNL     1       1.819   0.215  -1.583  0.00  0.00    +0.005 A 
ATOM      9  C   UNL     1       1.797   0.995  -0.438  0.00  0.00    +0.001 A 
ATOM     10  C   UNL     1       0.617   1.611  -0.063  0.00  0.00    +0.017 A 
ATOM     11  C   UNL     1      -0.512   1.440  -0.830  0.00  0.00    +0.039 A 
ATOM     12  S   UNL     1      -2.183   2.027  -0.723  0.00  0.00    -0.052 S 
ATOM     13  C   UNL     1       0.757  -0.811  -3.589  0.00  0.00    +0.046 C 
BRANCH   5  14
ATOM     14  C   UNL     1      -1.871  -0.194  -3.872  0.00  0.00    +0.244 C 
BRANCH  14  15
ATOM     15  C   UNL     1      -1.390   0.620  -5.046  0.00  0.00    +0.327 C 
ATOM     16  O   UNL     1      -0.979   1.743  -4.874  0.00  0.00    -0.249 OA
BRANCH  15  17
ATOM     17  O   UNL     1      -1.419   0.098  -6.282  0.00  0.00    -0.464 OA
BRANCH  17  18
ATOM     18  C   UNL     1      -0.941   0.939  -7.364  0.00  0.00    +0.229 C 
ATOM     19  C   UNL     1      -1.050   0.178  -8.688  0.00  0.00    +0.048 C 
ENDBRANCH  17  18
ENDBRANCH  15  17
ENDBRANCH  14  15
ENDBRANCH   5  14
ENDBRANCH   1   3
BRANCH   1  23
ATOM     20  C   UNL     1      -8.937   2.196  -3.555  0.00  0.00    +0.106 A 
ATOM     21  C   UNL     1      -8.623   2.881  -2.395  0.00  0.00    +0.029 A 
ATOM     22  C   UNL     1      -7.342   2.830  -1.885  0.00  0.00    +0.015 A 
ATOM     23  C   UNL     1      -6.362   2.086  -2.542  0.00  0.00    +0.039 A 
ATOM     24  C   UNL     1      -6.683   1.402  -3.714  0.00  0.00    +0.015 A 
ATOM     25  C   UNL     1      -7.969   1.456  -4.211  0.00  0.00    +0.029 A 
BRANCH  20  26
ATOM     26  S   UNL     1     -10.575   2.265  -4.200  0.00  0.00    +0.061 S 
ATOM     27  O   UNL     1     -10.692   1.196  -5.129  0.00  0.00    -0.153 OA
ATOM     28  O   UNL     1     -11.445   2.404  -3.085  0.00  0.00    -0.153 OA
BRANCH  26  34
ATOM     29  C   UNL     1     -10.146   3.753  -6.432  0.00  0.00    +0.080 C 
ATOM     30  C   UNL     1     -11.246   4.235  -7.383  0.00  0.00    +0.021 C 
ATOM     31  C   UNL     1     -11.830   5.549  -6.857  0.00  0.00    +0.003 C 
ATOM     32  C   UNL     1     -12.450   5.317  -5.477  0.00  0.00    +0.017 C 
ATOM     33  C   UNL     1     -11.369   4.845  -4.507  0.00  0.00    +0.110 C 
ATOM     34  N   UNL     1     -10.699   3.667  -5.074  0.00  0.00    -0.174 NA
BRANCH  29  36
ATOM     35  C   UNL     1      -8.901   2.502  -8.201  0.00  0.00    +0.005 C 
ATOM     36  C   UNL     1      -9.650   2.374  -6.873  0.00  0.00    +0.017 C 
ENDBRANCH  29  36
ENDBRANCH  26  34
ENDBRANCH  20  26
ENDBRANCH   1  23
TORSDOF 9
