REMARK  Name = ZINC10643248
REMARK  9 active torsions:
REMARK  status: ('A' for Active; 'I' for Inactive)
REMARK    1  A    between atoms: C_1  and  C_2
REMARK    2  A    between atoms: C_2  and  O_3
REMARK    3  A    between atoms: O_3  and  C_4
REMARK    4  A    between atoms: C_4  and  C_6
REMARK    5  A    between atoms: C_7  and  C_29
REMARK    6  A    between atoms: C_11  and  C_15
REMARK    7  A    between atoms: N_16  and  C_17
REMARK    8  A    between atoms: C_17  and  C_19
REMARK    9  A    between atoms: C_17  and  C_20
REMARK                            x       y       z     vdW  Elec       q    Type
REMARK                         _______ _______ _______ _____ _____    ______ ____
ROOT
ATOM      1  C   UNL     1       0.465  -4.717   1.452  0.00  0.00    +0.102 A 
ATOM      2  C   UNL     1       0.137  -4.233   0.222  0.00  0.00    -0.017 A 
ATOM      3  C   UNL     1      -0.208  -2.884   0.073  0.00  0.00    +0.051 A 
ATOM      4  C   UNL     1      -0.581  -2.172  -1.107  0.00  0.00    +0.131 A 
ATOM      5  N   UNL     1      -0.876  -0.886  -1.018  0.00  0.00    -0.217 NA
ATOM      6  C   UNL     1      -0.827  -0.229   0.127  0.00  0.00    +0.129 A 
ATOM      7  N   UNL     1      -0.490  -0.829   1.252  0.00  0.00    -0.225 NA
ATOM      8  C   UNL     1      -0.185  -2.111   1.260  0.00  0.00    +0.115 A 
ATOM      9  S   UNL     1       0.306  -3.280   2.500  0.00  0.00    -0.062 S 
ATOM     10  C   UNL     1      -1.171   1.239   0.149  0.00  0.00    +0.088 C 
ATOM     11  N   UNL     1      -0.639  -2.819  -2.324  0.00  0.00    -0.322 N 
ATOM     12  C   UNL     1       0.145  -5.148  -0.976  0.00  0.00    +0.046 C 
ATOM     13  H   UNL     1      -0.516  -3.780  -2.369  0.00  0.00    +0.148 HD
ENDROOT
BRANCH   1  14
ATOM     14  C   UNL     1       0.853  -6.081   1.825  0.00  0.00    +0.346 C 
ATOM     15  O   UNL     1       0.912  -6.949   0.976  0.00  0.00    -0.244 OA
BRANCH  14  16
ATOM     16  O   UNL     1       1.145  -6.372   3.109  0.00  0.00    -0.461 OA
BRANCH  16  18
ATOM     17  C   UNL     1       1.813  -7.880   4.900  0.00  0.00    +0.048 C 
ATOM     18  C   UNL     1       1.521  -7.743   3.405  0.00  0.00    +0.229 C 
ENDBRANCH  16  18
ENDBRANCH  14  16
ENDBRANCH   1  14
BRANCH  11  19
ATOM     19  C   UNL     1      -0.888  -2.055  -3.549  0.00  0.00    +0.099 C 
ATOM     20  C   UNL     1      -2.395  -1.873  -3.740  0.00  0.00    +0.033 C 
BRANCH  19  21
ATOM     21  C   UNL     1      -0.318  -2.799  -4.730  0.00  0.00    -0.024 A 
ATOM     22  C   UNL     1      -0.441  -4.174  -4.803  0.00  0.00    +0.009 A 
ATOM     23  C   UNL     1       0.080  -4.861  -5.884  0.00  0.00    +0.050 A 
ATOM     24  C   UNL     1       0.726  -4.172  -6.897  0.00  0.00    +0.166 A 
ATOM     25  C   UNL     1       0.849  -2.786  -6.824  0.00  0.00    +0.167 A 
ATOM     26  C   UNL     1       0.320  -2.104  -5.740  0.00  0.00    +0.055 A 
ATOM     27  O   UNL     1       1.517  -2.348  -7.931  0.00  0.00    -0.453 OA
ATOM     28  C   UNL     1       1.441  -3.430  -8.878  0.00  0.00    +0.466 C 
ATOM     29  O   UNL     1       1.316  -4.601  -8.050  0.00  0.00    -0.453 OA
ENDBRANCH  19  21
ENDBRANCH  11  19
TORSDOF 5
