REMARK  Name = ZINC34792233
REMARK  9 active torsions:
REMARK  status: ('A' for Active; 'I' for Inactive)
REMARK    1  A    between atoms: C_1  and  C_2
REMARK    2  A    between atoms: C_2  and  C_3
REMARK    3  A    between atoms: C_2  and  C_4
REMARK    4  A    between atoms: C_2  and  N_5
REMARK    5  A    between atoms: C_6  and  C_8
REMARK    6  A    between atoms: C_8  and  N_9
REMARK    7  A    between atoms: C_15  and  C_24
REMARK    8  A    between atoms: N_20  and  C_21
REMARK    9  A    between atoms: C_21  and  C_22
REMARK                            x       y       z     vdW  Elec       q    Type
REMARK                         _______ _______ _______ _____ _____    ______ ____
ROOT
ATOM      1  N   UNL     1       4.051  -0.111  -2.677  0.00  0.00    -0.283 N 
ATOM      2  C   UNL     1       4.508   1.159  -3.262  0.00  0.00    +0.160 C 
ATOM      3  C   UNL     1       5.997   1.193  -3.000  0.00  0.00    +0.043 C 
ATOM      4  C   UNL     1       6.294   0.054  -2.343  0.00  0.00    +0.058 C 
ATOM      5  C   UNL     1       5.130  -0.718  -2.149  0.00  0.00    +0.247 C 
ATOM      6  O   UNL     1       5.104  -1.794  -1.580  0.00  0.00    -0.270 OA
ATOM      7  C   UNL     1       7.739  -0.177  -1.950  0.00  0.00    +0.142 C 
ATOM      8  N   UNL     1       8.706   0.869  -2.321  0.00  0.00    -0.288 N 
ATOM      9  C   UNL     1       8.256   1.956  -2.979  0.00  0.00    +0.307 C 
ATOM     10  O   UNL     1       9.047   2.825  -3.291  0.00  0.00    -0.252 OA
ATOM     11  N   UNL     1       6.965   2.108  -3.302  0.00  0.00    -0.253 N 
ATOM     12  H   UNL     1       9.646   0.779  -2.097  0.00  0.00    +0.151 HD
ENDROOT
BRANCH   7  13
ATOM     13  C   UNL     1       7.792  -0.349  -0.454  0.00  0.00    -0.021 A 
ATOM     14  C   UNL     1       7.756   0.761   0.370  0.00  0.00    +0.006 A 
ATOM     15  C   UNL     1       7.805   0.604   1.743  0.00  0.00    +0.002 A 
ATOM     16  C   UNL     1       7.890  -0.661   2.292  0.00  0.00    +0.020 A 
ATOM     17  C   UNL     1       7.926  -1.772   1.468  0.00  0.00    +0.041 A 
ATOM     18  C   UNL     1       7.871  -1.615   0.094  0.00  0.00    +0.025 A 
ATOM     19 CL   UNL     1       8.033  -3.361   2.157  0.00  0.00    -0.084 Cl
ENDBRANCH   7  13
BRANCH   1  20
ATOM     20  C   UNL     1       2.677  -0.618  -2.667  0.00  0.00    +0.204 C 
BRANCH  20  22
ATOM     21  N   UNL     1       0.688  -0.476  -1.203  0.00  0.00    -0.309 N 
ATOM     22  C   UNL     1       1.972  -0.132  -1.427  0.00  0.00    +0.231 C 
ATOM     23  O   UNL     1       2.559   0.569  -0.630  0.00  0.00    -0.274 OA
ATOM     24  H   UNL     1       0.218  -1.037  -1.840  0.00  0.00    +0.149 HD
BRANCH  21  26
ATOM     25  C   UNL     1      -0.019   1.526   0.010  0.00  0.00    +0.031 C 
ATOM     26  C   UNL     1       0.002  -0.004   0.002  0.00  0.00    +0.026 C 
ATOM     27  C   UNL     1       0.742  -0.511   1.242  0.00  0.00    +0.031 C 
ATOM     28  C   UNL     1      -1.433  -0.534   0.013  0.00  0.00    +0.031 C 
ENDBRANCH  21  26
ENDBRANCH  20  22
ENDBRANCH   1  20
BRANCH  11  29
ATOM     29  C   UNL     1       6.569   3.324  -4.018  0.00  0.00    +0.141 C 
BRANCH  29  30
ATOM     30  C   UNL     1       6.201   4.395  -3.025  0.00  0.00    -0.015 C 
ATOM     31  C   UNL     1       6.793   5.563  -3.071  0.00  0.00    +0.005 C 
ENDBRANCH  29  30
ENDBRANCH  11  29
TORSDOF 6
