REMARK  Name = ZINC49236989
REMARK  5 active torsions:
REMARK  status: ('A' for Active; 'I' for Inactive)
REMARK    1  A    between atoms: C_1  and  C_2
REMARK    2  A    between atoms: C_2  and  C_3
REMARK    3  A    between atoms: C_2  and  C_4
REMARK    4  A    between atoms: N_9  and  S_10
REMARK    5  A    between atoms: S_10  and  C_13
REMARK                            x       y       z     vdW  Elec       q    Type
REMARK                         _______ _______ _______ _____ _____    ______ ____
ROOT
ATOM      1  C   UNL     1      -1.412  -0.526   0.013  0.00  0.00    +0.027 A 
ATOM      2  C   UNL     1      -1.843  -1.297  -0.985  0.00  0.00    +0.070 A 
ATOM      3  S   UNL     1      -3.529  -1.631  -0.500  0.00  0.00    -0.057 S 
ATOM      4  C   UNL     1      -3.533  -0.701   1.025  0.00  0.00    +0.192 A 
ATOM      5  N   UNL     1      -2.244  -0.212   1.047  0.00  0.00    -0.336 N 
ATOM      6  N   UNL     1      -4.500  -0.532   1.892  0.00  0.00    -0.103 NA
ATOM      7  H   UNL     1      -1.938   0.345   1.779  0.00  0.00    +0.168 HD
ENDROOT
BRANCH   1   9
ATOM      8  C   UNL     1      -0.019   1.526   0.010  0.00  0.00    +0.013 C 
ATOM      9  C   UNL     1       0.002  -0.004   0.002  0.00  0.00    +0.030 C 
ATOM     10  C   UNL     1       0.742  -0.511   1.242  0.00  0.00    +0.013 C 
ENDBRANCH   1   9
BRANCH   6  11
ATOM     11  S   UNL     1      -5.975  -1.241   1.636  0.00  0.00    +0.101 S 
ATOM     12  O   UNL     1      -6.529  -0.621   0.484  0.00  0.00    -0.146 OA
ATOM     13  O   UNL     1      -5.771  -2.645   1.722  0.00  0.00    -0.146 OA
BRANCH  11  14
ATOM     14  C   UNL     1      -7.008  -0.798   2.993  0.00  0.00    +0.117 A 
ATOM     15  C   UNL     1      -7.058  -1.585   4.134  0.00  0.00    +0.049 A 
ATOM     16  C   UNL     1      -7.879  -1.207   5.178  0.00  0.00    +0.114 A 
ATOM     17  N   UNL     1      -8.612  -0.113   5.099  0.00  0.00    -0.243 NA
ATOM     18  C   UNL     1      -8.590   0.660   4.030  0.00  0.00    +0.131 A 
ATOM     19  C   UNL     1      -7.786   0.348   2.947  0.00  0.00    +0.069 A 
ATOM     20 CL   UNL     1      -9.576   2.088   3.983  0.00  0.00    -0.062 Cl
ENDBRANCH  11  14
ENDBRANCH   6  11
TORSDOF 3
