REMARK  Name = ZINC38701285
REMARK  15 active torsions:
REMARK  status: ('A' for Active; 'I' for Inactive)
REMARK    1  A    between atoms: C_1  and  C_2
REMARK    2  A    between atoms: C_2  and  C_3
REMARK    3  A    between atoms: C_3  and  C_4
REMARK    4  A    between atoms: C_4  and  C_5
REMARK    5  A    between atoms: C_8  and  C_11
REMARK    6  A    between atoms: C_11  and  O_13
REMARK    7  A    between atoms: O_13  and  C_14
REMARK    8  A    between atoms: C_21  and  N_38
REMARK    9  A    between atoms: C_22  and  C_36
REMARK   10  A    between atoms: C_23  and  C_25
REMARK   11  A    between atoms: C_29  and  O_31
REMARK   12  A    between atoms: O_31  and  C_32
REMARK   13  A    between atoms: C_32  and  C_33
REMARK   14  A    between atoms: C_33  and  C_34
REMARK   15  A    between atoms: C_34  and  C_35
REMARK                            x       y       z     vdW  Elec       q    Type
REMARK                         _______ _______ _______ _____ _____    ______ ____
ROOT
ATOM      1  C   UNL     1      -7.841  -6.620   1.151  0.00  0.00    +0.135 A 
ATOM      2  C   UNL     1      -8.942  -5.777   1.225  0.00  0.00    +0.047 A 
ATOM      3  C   UNL     1     -10.216  -6.308   1.264  0.00  0.00    +0.012 A 
ATOM      4  C   UNL     1     -10.401  -7.679   1.230  0.00  0.00    +0.008 A 
ATOM      5  C   UNL     1      -9.306  -8.525   1.155  0.00  0.00    +0.138 A 
ATOM      6  C   UNL     1      -8.024  -7.992   1.110  0.00  0.00    +0.093 A 
ATOM      7  O   UNL     1      -9.467  -9.871   1.121  0.00  0.00    -0.441 OA
ATOM      8  C   UNL     1     -10.655 -10.395   0.774  0.00  0.00    +0.199 C 
ATOM      9  C   UNL     1     -11.799  -9.672   0.824  0.00  0.00    +0.098 C 
ATOM     10  C   UNL     1     -11.798  -8.238   1.274  0.00  0.00    +0.098 C 
ENDROOT
BRANCH  10  11
ATOM     11  C   UNL     1     -12.324  -8.158   2.684  0.00  0.00    -0.031 A 
ATOM     12  C   UNL     1     -11.662  -8.812   3.707  0.00  0.00    +0.005 A 
ATOM     13  C   UNL     1     -12.141  -8.740   5.002  0.00  0.00    +0.004 A 
ATOM     14  C   UNL     1     -13.284  -8.014   5.277  0.00  0.00    +0.045 A 
ATOM     15  C   UNL     1     -13.950  -7.356   4.253  0.00  0.00    +0.121 A 
ATOM     16  C   UNL     1     -13.463  -7.425   2.956  0.00  0.00    +0.050 A 
BRANCH  15  17
ATOM     17  O   UNL     1     -15.074  -6.641   4.521  0.00  0.00    -0.492 OA
BRANCH  17  18
ATOM     18  C   UNL     1     -15.513  -6.609   5.881  0.00  0.00    +0.229 C 
BRANCH  18  19
ATOM     19  C   UNL     1     -16.783  -5.762   5.986  0.00  0.00    +0.041 C 
BRANCH  19  20
ATOM     20  C   UNL     1     -17.254  -5.728   7.442  0.00  0.00    -0.000 C 
ATOM     21  C   UNL     1     -18.524  -4.881   7.547  0.00  0.00    +0.004 C 
ENDBRANCH  19  20
ENDBRANCH  18  19
ENDBRANCH  17  18
ENDBRANCH  15  17
ENDBRANCH  10  11
BRANCH   8  22
ATOM     22  N   UNL     1     -10.710 -11.701   0.356  0.00  0.00    -0.328 N 
ATOM     23  H   UNL     1      -9.899 -12.231   0.314  0.00  0.00    +0.145 HD
ATOM     24  H   UNL     1     -11.559 -12.093   0.102  0.00  0.00    +0.145 HD
ENDBRANCH   8  22
BRANCH   9  25
ATOM     25  C   UNL     1     -13.034 -10.287   0.440  0.00  0.00    +0.101 C 
ATOM     26  N   UNL     1     -14.014 -10.774   0.136  0.00  0.00    -0.191 NA
ENDBRANCH   9  25
BRANCH   1  27
ATOM     27  O   UNL     1      -6.586  -6.098   1.113  0.00  0.00    -0.426 OA
BRANCH  27  28
ATOM     28  C   UNL     1      -6.054  -5.651   2.261  0.00  0.00    +0.315 C 
ATOM     29  O   UNL     1      -6.720  -5.635   3.269  0.00  0.00    -0.250 OA
BRANCH  28  33
ATOM     30  C   UNL     1      -2.663  -3.048   2.777  0.00  0.00    -0.011 C 
ATOM     31  C   UNL     1      -2.825  -4.224   3.743  0.00  0.00    +0.004 C 
ATOM     32  C   UNL     1      -4.273  -4.715   3.711  0.00  0.00    +0.015 C 
ATOM     33  C   UNL     1      -4.628  -5.167   2.293  0.00  0.00    +0.098 C 
ATOM     34  C   UNL     1      -4.466  -3.991   1.327  0.00  0.00    +0.015 C 
ATOM     35  C   UNL     1      -3.017  -3.500   1.359  0.00  0.00    +0.004 C 
BRANCH  30  36
ATOM     36  C   UNL     1      -1.214  -2.557   2.809  0.00  0.00    +0.003 C 
BRANCH  36  37
ATOM     37  C   UNL     1      -0.899  -1.990   4.195  0.00  0.00    +0.000 C 
BRANCH  37  39
ATOM     38  C   UNL     1       0.866  -0.932   5.612  0.00  0.00    +0.004 C 
ATOM     39  C   UNL     1       0.550  -1.499   4.227  0.00  0.00    -0.003 C 
ENDBRANCH  37  39
ENDBRANCH  36  37
ENDBRANCH  30  36
ENDBRANCH  28  33
ENDBRANCH  27  28
ENDBRANCH   1  27
TORSDOF 13
