REMARK  Name = ZINC36610256
REMARK  11 active torsions:
REMARK  status: ('A' for Active; 'I' for Inactive)
REMARK    1  A    between atoms: C_1  and  C_2
REMARK    2  A    between atoms: C_2  and  C_3
REMARK    3  A    between atoms: C_3  and  C_4
REMARK    4  A    between atoms: C_4  and  N_5
REMARK    5  A    between atoms: C_6  and  C_8
REMARK    6  A    between atoms: C_8  and  C_10
REMARK    7  A    between atoms: C_8  and  N_16
REMARK    8  A    between atoms: N_16  and  C_17
REMARK    9  A    between atoms: C_23  and  C_25
REMARK   10  A    between atoms: C_29  and  O_32
REMARK   11  A    between atoms: C_30  and  O_31
REMARK                            x       y       z     vdW  Elec       q    Type
REMARK                         _______ _______ _______ _____ _____    ______ ____
ROOT
ATOM      1  N   UNL     1       1.468  -5.613  -3.956  0.00  0.00    -0.255 N 
ATOM      2  C   UNL     1       1.375  -6.274  -5.127  0.00  0.00    +0.255 C 
ATOM      3  O   UNL     1       1.296  -5.655  -6.170  0.00  0.00    -0.269 OA
ENDROOT
BRANCH   1   4
ATOM      4  C   UNL     1       1.674  -6.320  -2.768  0.00  0.00    +0.037 A 
ATOM      5  C   UNL     1       2.796  -6.063  -1.990  0.00  0.00    +0.023 A 
ATOM      6  C   UNL     1       2.997  -6.764  -0.817  0.00  0.00    +0.002 A 
ATOM      7  C   UNL     1       2.082  -7.720  -0.416  0.00  0.00    +0.000 A 
ATOM      8  C   UNL     1       0.964  -7.979  -1.188  0.00  0.00    +0.002 A 
ATOM      9  C   UNL     1       0.754  -7.277  -2.359  0.00  0.00    +0.023 A 
ENDBRANCH   1   4
BRANCH   2  10
ATOM     10  C   UNL     1       1.369  -7.749  -5.142  0.00  0.00    +0.082 A 
ATOM     11  C   UNL     1       2.073  -8.465  -4.169  0.00  0.00    +0.017 A 
ATOM     12  C   UNL     1       2.066  -9.842  -4.187  0.00  0.00    +0.005 A 
ATOM     13  C   UNL     1       1.362 -10.526  -5.165  0.00  0.00    +0.049 A 
ATOM     14  C   UNL     1       0.659  -9.832  -6.135  0.00  0.00    +0.159 A 
ATOM     15  C   UNL     1       0.653  -8.440  -6.127  0.00  0.00    +0.171 A 
BRANCH  15  16
ATOM     16  O   UNL     1      -0.040  -7.755  -7.073  0.00  0.00    -0.503 OA
ATOM     17  H   UNL     1       0.473  -7.554  -7.867  0.00  0.00    +0.292 HD
ENDBRANCH  15  16
BRANCH  14  18
ATOM     18  O   UNL     1      -0.029 -10.509  -7.092  0.00  0.00    -0.503 OA
ATOM     19  H   UNL     1      -0.945 -10.708  -6.852  0.00  0.00    +0.292 HD
ENDBRANCH  14  18
ENDBRANCH   2  10
BRANCH   1  20
ATOM     20  C   UNL     1       1.353  -4.153  -3.929  0.00  0.00    +0.170 C 
BRANCH  20  21
ATOM     21  C   UNL     1       2.612  -3.553  -3.301  0.00  0.00    +0.019 C 
ATOM     22  C   UNL     1       3.843  -4.023  -4.079  0.00  0.00    +0.006 C 
ATOM     23  C   UNL     1       5.103  -3.424  -3.450  0.00  0.00    +0.000 C 
ATOM     24  C   UNL     1       5.021  -1.897  -3.500  0.00  0.00    +0.000 C 
ATOM     25  C   UNL     1       3.790  -1.427  -2.722  0.00  0.00    +0.000 C 
ATOM     26  C   UNL     1       2.530  -2.026  -3.350  0.00  0.00    +0.006 C 
ENDBRANCH  20  21
BRANCH  20  28
ATOM     27  N   UNL     1      -0.421  -2.550  -3.292  0.00  0.00    -0.314 N 
ATOM     28  C   UNL     1       0.148  -3.759  -3.113  0.00  0.00    +0.234 C 
ATOM     29  O   UNL     1      -0.309  -4.529  -2.296  0.00  0.00    -0.274 OA
ATOM     30  H   UNL     1      -0.018  -1.909  -3.899  0.00  0.00    +0.149 HD
BRANCH  27  31
ATOM     31  C   UNL     1      -1.648  -2.204  -2.570  0.00  0.00    +0.104 C 
BRANCH  31  32
ATOM     32  C   UNL     1      -2.081  -0.787  -2.950  0.00  0.00    +0.018 C 
BRANCH  32  34
ATOM     33  C   UNL     1      -3.795   0.992  -2.576  0.00  0.00    +0.004 C 
ATOM     34  C   UNL     1      -3.362  -0.426  -2.196  0.00  0.00    -0.002 C 
ENDBRANCH  32  34
ENDBRANCH  31  32
ENDBRANCH  27  31
ENDBRANCH  20  28
ENDBRANCH   1  20
TORSDOF 10
