REMARK  Name = ZINC13643050
REMARK  9 active torsions:
REMARK  status: ('A' for Active; 'I' for Inactive)
REMARK    1  A    between atoms: C_1  and  C_2
REMARK    2  A    between atoms: C_2  and  N_3
REMARK    3  A    between atoms: C_14  and  C_16
REMARK    4  A    between atoms: C_29  and  C_32
REMARK    5  A    between atoms: N_34  and  C_35
REMARK    6  A    between atoms: C_35  and  C_36
REMARK    7  A    between atoms: C_36  and  C_37
REMARK    8  A    between atoms: C_37  and  O_38
REMARK    9  A    between atoms: O_38  and  C_39
REMARK                            x       y       z     vdW  Elec       q    Type
REMARK                         _______ _______ _______ _____ _____    ______ ____
ROOT
ATOM      1  C   UNL     1       2.485   1.047  -0.015  0.00  0.00    +0.105 C 
ATOM      2  C   UNL     1       3.083   1.028   1.376  0.00  0.00    +0.029 C 
ATOM      3  C   UNL     1       2.328   0.273   2.476  0.00  0.00    +0.033 C 
ATOM      4  C   UNL     1       3.477  -0.164   3.388  0.00  0.00    -0.030 C 
ATOM      5  C   UNL     1       4.601  -0.262   2.686  0.00  0.00    -0.023 C 
ATOM      6  C   UNL     1       4.300   0.057   1.268  0.00  0.00    +0.049 C 
ATOM      7  C   UNL     1       5.281   0.705   0.371  0.00  0.00    -0.019 A 
ATOM      8  C   UNL     1       6.638   0.543   0.543  0.00  0.00    +0.006 A 
ATOM      9  C   UNL     1       7.541   1.147  -0.316  0.00  0.00    +0.001 A 
ATOM     10  C   UNL     1       7.081   1.920  -1.360  0.00  0.00    +0.015 A 
ATOM     11  C   UNL     1       5.712   2.098  -1.548  0.00  0.00    +0.058 A 
ATOM     12  C   UNL     1       4.787   1.496  -0.671  0.00  0.00    +0.044 A 
ATOM     13  N   UNL     1       3.441   1.746  -0.889  0.00  0.00    -0.336 N 
ATOM     14  H   UNL     1       3.201   1.621  -1.861  0.00  0.00    +0.147 HD
ENDROOT
BRANCH   1  26
ATOM     15  N   UNL     1      -2.562   3.581   0.044  0.00  0.00    -0.340 N 
ATOM     16  C   UNL     1      -3.413   2.490   0.047  0.00  0.00    +0.050 A 
ATOM     17  C   UNL     1      -4.800   2.385   0.060  0.00  0.00    +0.026 A 
ATOM     18  C   UNL     1      -5.398   1.143   0.059  0.00  0.00    +0.002 A 
ATOM     19  C   UNL     1      -4.628  -0.010   0.046  0.00  0.00    +0.001 A 
ATOM     20  C   UNL     1      -3.253   0.074   0.033  0.00  0.00    +0.010 A 
ATOM     21  C   UNL     1      -2.635   1.322   0.034  0.00  0.00    +0.008 A 
ATOM     22  C   UNL     1      -1.227   1.758   0.017  0.00  0.00    +0.008 A 
ATOM     23  C   UNL     1      -1.244   3.161   0.030  0.00  0.00    +0.050 A 
ATOM     24  C   UNL     1      -0.039   3.857   0.022  0.00  0.00    +0.027 A 
ATOM     25  C   UNL     1       1.155   3.169   0.008  0.00  0.00    +0.007 A 
ATOM     26  C   UNL     1       1.171   1.783   0.001  0.00  0.00    -0.026 A 
ATOM     27  C   UNL     1      -0.013   1.076   0.008  0.00  0.00    +0.016 A 
BRANCH  15  29
ATOM     28  C   UNL     1      -3.159   5.474  -1.384  0.00  0.00    +0.027 C 
ATOM     29  C   UNL     1      -2.995   4.980   0.055  0.00  0.00    +0.119 C 
ENDBRANCH  15  29
ENDBRANCH   1  26
BRANCH  11  30
ATOM     30  C   UNL     1       5.228   2.920  -2.672  0.00  0.00    +0.246 C 
ATOM     31  O   UNL     1       4.034   3.077  -2.840  0.00  0.00    -0.270 OA
ATOM     32  N   UNL     1       6.109   3.497  -3.514  0.00  0.00    -0.311 N 
ATOM     33  H   UNL     1       7.061   3.371  -3.380  0.00  0.00    +0.149 HD
BRANCH  32  34
ATOM     34  C   UNL     1       5.628   4.314  -4.630  0.00  0.00    +0.107 C 
BRANCH  34  35
ATOM     35  C   UNL     1       6.822   4.847  -5.424  0.00  0.00    +0.047 C 
BRANCH  35  36
ATOM     36  C   UNL     1       6.320   5.700  -6.590  0.00  0.00    +0.161 C 
BRANCH  36  37
ATOM     37  O   UNL     1       7.436   6.198  -7.332  0.00  0.00    -0.383 OA
ATOM     38  C   UNL     1       7.074   7.012  -8.449  0.00  0.00    +0.193 C 
ENDBRANCH  36  37
ENDBRANCH  35  36
ENDBRANCH  34  35
ENDBRANCH  32  34
ENDBRANCH  11  30
TORSDOF 7
