REMARK  Name = ZINC08791219
REMARK  5 active torsions:
REMARK  status: ('A' for Active; 'I' for Inactive)
REMARK    1  A    between atoms: C_1  and  C_2
REMARK    2  A    between atoms: C_22  and  C_29
REMARK    3  A    between atoms: C_29  and  C_31
REMARK    4  A    between atoms: C_36  and  O_37
REMARK    5  A    between atoms: O_37  and  C_38
REMARK                            x       y       z     vdW  Elec       q    Type
REMARK                         _______ _______ _______ _____ _____    ______ ____
ROOT
ATOM      1  C   UNL     1       2.048   3.557  -5.813  0.00  0.00    +0.045 C 
ATOM      2  C   UNL     1       2.957   3.364  -4.627  0.00  0.00    -0.029 A 
ATOM      3  C   UNL     1       4.091   2.588  -4.749  0.00  0.00    +0.005 A 
ATOM      4  C   UNL     1       4.932   2.405  -3.667  0.00  0.00    +0.001 A 
ATOM      5  C   UNL     1       4.635   3.003  -2.455  0.00  0.00    +0.004 A 
ATOM      6  C   UNL     1       3.505   3.779  -2.329  0.00  0.00    -0.026 A 
ATOM      7  C   UNL     1       2.651   3.970  -3.411  0.00  0.00    +0.039 A 
ATOM      8  N   UNL     1       1.581   4.787  -3.042  0.00  0.00    -0.286 N 
ATOM      9  C   UNL     1       1.654   5.171  -1.755  0.00  0.00    +0.212 C 
ATOM     10  O   UNL     1       0.866   5.880  -1.165  0.00  0.00    -0.277 OA
ATOM     11  C   UNL     1       2.905   4.551  -1.185  0.00  0.00    +0.060 C 
ATOM     12  C   UNL     1       2.581   3.636  -0.008  0.00  0.00    +0.085 C 
ATOM     13  C   UNL     1       1.148   3.190  -0.008  0.00  0.00    -0.011 A 
ATOM     14  C   UNL     1      -0.056   3.857   0.005  0.00  0.00    +0.006 A 
ATOM     15  C   UNL     1      -1.243   3.146   0.000  0.00  0.00    +0.000 A 
ATOM     16  C   UNL     1      -1.217   1.764  -0.022  0.00  0.00    +0.002 A 
ATOM     17  C   UNL     1      -0.013   1.090  -0.030  0.00  0.00    +0.023 A 
ATOM     18  C   UNL     1       1.186   1.798  -0.027  0.00  0.00    +0.038 A 
ATOM     19  N   UNL     1       2.510   1.351  -0.041  0.00  0.00    -0.285 N 
ATOM     20  C   UNL     1       3.391   2.371  -0.031  0.00  0.00    +0.228 C 
ATOM     21  O   UNL     1       4.600   2.284  -0.038  0.00  0.00    -0.275 OA
ATOM     22  C   UNL     1       2.910   4.489   1.233  0.00  0.00    +0.066 C 
ATOM     23  C   UNL     1       4.120   5.316   0.730  0.00  0.00    -0.055 C 
ATOM     24  C   UNL     1       3.153   6.929  -0.716  0.00  0.00    -0.076 C 
ATOM     25  C   UNL     1       3.893   7.729   0.383  0.00  0.00    -0.020 C 
ATOM     26  C   UNL     1       4.155   6.662   1.470  0.00  0.00    -0.016 C 
ATOM     27  H   UNL     1       0.867   5.049  -3.645  0.00  0.00    +0.155 HD
ATOM     28  H   UNL     1       2.765   0.415  -0.056  0.00  0.00    +0.155 HD
ATOM     29  N   UNL     1       3.818   5.604  -0.665  0.00  0.00    +0.395 N 
ATOM     30  H   UNL     1       4.681   5.622  -1.221  0.00  0.00    -0.079 HD
ENDROOT
BRANCH  22  31
ATOM     31  C   UNL     1       1.754   5.388   1.593  0.00  0.00    +0.169 C 
ATOM     32  O   UNL     1       1.723   6.529   1.182  0.00  0.00    -0.292 OA
BRANCH  31  33
ATOM     33  C   UNL     1       0.667   4.882   2.439  0.00  0.00    +0.059 A 
ATOM     34  C   UNL     1       0.699   3.566   2.916  0.00  0.00    +0.015 A 
ATOM     35  C   UNL     1      -0.324   3.099   3.710  0.00  0.00    +0.001 A 
ATOM     36  C   UNL     1      -1.386   3.926   4.042  0.00  0.00    +0.004 A 
ATOM     37  C   UNL     1      -1.432   5.226   3.579  0.00  0.00    +0.046 A 
ATOM     38  C   UNL     1      -0.408   5.717   2.782  0.00  0.00    +0.131 A 
BRANCH  38  39
ATOM     39  O   UNL     1      -0.449   6.996   2.333  0.00  0.00    -0.494 OA
ATOM     40  C   UNL     1      -1.575   7.785   2.722  0.00  0.00    +0.277 C 
ENDBRANCH  38  39
ENDBRANCH  31  33
ENDBRANCH  22  31
TORSDOF 3
