REMARK  Name = ZINC00673418
REMARK  6 active torsions:
REMARK  status: ('A' for Active; 'I' for Inactive)
REMARK    1  A    between atoms: C_4  and  C_7
REMARK    2  A    between atoms: C_12  and  C_28
REMARK    3  A    between atoms: C_14  and  C_26
REMARK    4  A    between atoms: C_15  and  N_25
REMARK    5  A    between atoms: N_16  and  C_17
REMARK    6  A    between atoms: C_22  and  C_23
REMARK                            x       y       z     vdW  Elec       q    Type
REMARK                         _______ _______ _______ _____ _____    ______ ____
ROOT
ATOM      1  C   UNL     1      -1.741  -0.769   3.667  0.00  0.00    +0.032 C 
ATOM      2  C   UNL     1      -0.897  -1.104   2.435  0.00  0.00    +0.060 C 
ATOM      3  C   UNL     1      -1.764  -1.082   1.203  0.00  0.00    +0.025 C 
ATOM      4  C   UNL     1      -3.076  -1.400   1.268  0.00  0.00    +0.025 C 
ATOM      5  C   UNL     1      -3.942  -1.380   0.034  0.00  0.00    +0.097 C 
ATOM      6  C   UNL     1      -3.109  -1.395  -1.214  0.00  0.00    +0.077 C 
ATOM      7  C   UNL     1      -1.792  -1.066  -1.183  0.00  0.00    +0.107 C 
ATOM      8  N   UNL     1      -1.194  -0.721   0.009  0.00  0.00    -0.259 N 
ATOM      9  C   UNL     1      -3.672  -1.764   2.489  0.00  0.00    +0.162 C 
ATOM     10  O   UNL     1      -4.850  -2.063   2.511  0.00  0.00    -0.292 OA
ATOM     11  C   UNL     1      -2.880  -1.789   3.767  0.00  0.00    +0.088 C 
ENDROOT
BRANCH   5  12
ATOM     12  C   UNL     1      -4.790  -0.135   0.047  0.00  0.00    -0.031 A 
ATOM     13  C   UNL     1      -4.189   1.110   0.030  0.00  0.00    +0.008 A 
ATOM     14  C   UNL     1      -4.963   2.255   0.035  0.00  0.00    +0.050 A 
ATOM     15  C   UNL     1      -6.345   2.158   0.070  0.00  0.00    +0.166 A 
ATOM     16  C   UNL     1      -6.950   0.904   0.093  0.00  0.00    +0.167 A 
ATOM     17  C   UNL     1      -6.168  -0.239   0.080  0.00  0.00    +0.054 A 
ATOM     18  O   UNL     1      -8.304   1.074   0.125  0.00  0.00    -0.453 OA
ATOM     19  C   UNL     1      -8.511   2.439   0.535  0.00  0.00    +0.466 C 
ATOM     20  O   UNL     1      -7.319   3.114   0.089  0.00  0.00    -0.453 OA
ENDBRANCH   5  12
BRANCH   1  24
ATOM     21  C   UNL     1       0.689  -0.985   7.174  0.00  0.00    +0.000 A 
ATOM     22  C   UNL     1       0.050   0.196   6.848  0.00  0.00    +0.000 A 
ATOM     23  C   UNL     1      -0.737   0.266   5.713  0.00  0.00    +0.004 A 
ATOM     24  C   UNL     1      -0.883  -0.846   4.904  0.00  0.00    -0.044 A 
ATOM     25  C   UNL     1      -0.248  -2.028   5.233  0.00  0.00    +0.004 A 
ATOM     26  C   UNL     1       0.542  -2.097   6.365  0.00  0.00    +0.000 A 
ENDBRANCH   1  24
BRANCH   8  27
ATOM     27  C   UNL     1       0.002  -0.004   0.002  0.00  0.00    +0.057 A 
ATOM     28  C   UNL     1      -0.017   1.384   0.010  0.00  0.00    +0.025 A 
ATOM     29  C   UNL     1       1.169   2.092   0.002  0.00  0.00    +0.002 A 
ATOM     30  C   UNL     1       2.383   1.426  -0.013  0.00  0.00    +0.001 A 
ATOM     31  C   UNL     1       2.421   0.048  -0.021  0.00  0.00    +0.021 A 
ATOM     32  C   UNL     1       1.230  -0.682  -0.013  0.00  0.00    +0.073 A 
BRANCH  32  33
ATOM     33  C   UNL     1       1.263  -2.114  -0.021  0.00  0.00    +0.101 C 
ATOM     34  N   UNL     1       1.289  -3.249  -0.027  0.00  0.00    -0.191 NA
ENDBRANCH  32  33
ENDBRANCH   8  27
BRANCH   7  35
ATOM     35  N   UNL     1      -1.054  -1.078  -2.342  0.00  0.00    -0.345 N 
ATOM     36  H   UNL     1      -0.113  -0.844  -2.321  0.00  0.00    +0.144 HD
ATOM     37  H   UNL     1      -1.474  -1.321  -3.182  0.00  0.00    +0.144 HD
ENDBRANCH   7  35
BRANCH   6  38
ATOM     38  C   UNL     1      -3.714  -1.760  -2.459  0.00  0.00    +0.099 C 
ATOM     39  N   UNL     1      -4.194  -2.050  -3.447  0.00  0.00    -0.191 NA
ENDBRANCH   6  38
TORSDOF 6
