REMARK  Name = ZINC05017642
REMARK  7 active torsions:
REMARK  status: ('A' for Active; 'I' for Inactive)
REMARK    1  A    between atoms: C_1  and  C_2
REMARK    2  A    between atoms: C_5  and  C_8
REMARK    3  A    between atoms: C_10  and  C_22
REMARK    4  A    between atoms: C_11  and  C_16
REMARK    5  A    between atoms: C_16  and  N_48
REMARK    6  A    between atoms: C_22  and  O_24
REMARK    7  A    between atoms: O_24  and  C_25
REMARK                            x       y       z     vdW  Elec       q    Type
REMARK                         _______ _______ _______ _____ _____    ______ ____
ROOT
ATOM      1  C   UNL     1       2.364   1.308   0.199  0.00  0.00    +0.143 C 
ATOM      2  C   UNL     1       3.123   1.125   1.498  0.00  0.00    +0.076 C 
ATOM      3  C   UNL     1       4.439   1.425   1.505  0.00  0.00    +0.008 C 
ATOM      4  N   UNL     1       5.065   1.876   0.378  0.00  0.00    -0.274 N 
ATOM      5  C   UNL     1       4.444   2.055  -0.795  0.00  0.00    +0.304 C 
ATOM      6  O   UNL     1       5.086   2.462  -1.743  0.00  0.00    -0.252 OA
ATOM      7  N   UNL     1       3.131   1.800  -0.957  0.00  0.00    -0.288 N 
ATOM      8  H   UNL     1       6.012   2.079   0.431  0.00  0.00    +0.156 HD
ATOM      9  H   UNL     1       2.702   1.936  -1.816  0.00  0.00    +0.151 HD
ENDROOT
BRANCH   1  14
ATOM     10  C   UNL     1      -1.968   5.008   1.167  0.00  0.00    +0.044 C 
ATOM     11  C   UNL     1      -0.838   4.043   0.915  0.00  0.00    -0.050 A 
ATOM     12  C   UNL     1      -1.085   2.683   0.882  0.00  0.00    +0.004 A 
ATOM     13  C   UNL     1      -0.048   1.798   0.655  0.00  0.00    +0.006 A 
ATOM     14  C   UNL     1       1.235   2.272   0.452  0.00  0.00    -0.022 A 
ATOM     15  C   UNL     1       1.481   3.632   0.482  0.00  0.00    +0.006 A 
ATOM     16  C   UNL     1       0.445   4.517   0.714  0.00  0.00    +0.004 A 
ENDBRANCH   1  14
BRANCH   2  17
ATOM     17  C   UNL     1       2.473   0.658   2.665  0.00  0.00    +0.338 C 
ATOM     18  O   UNL     1       3.067   0.642   3.727  0.00  0.00    -0.245 OA
BRANCH  17  19
ATOM     19  O   UNL     1       1.195   0.229   2.600  0.00  0.00    -0.465 OA
ATOM     20  C   UNL     1       0.602  -0.229   3.817  0.00  0.00    +0.280 C 
ENDBRANCH  17  19
ENDBRANCH   2  17
BRANCH   3  21
ATOM     21  C   UNL     1       5.231   1.257   2.776  0.00  0.00    -0.026 C 
BRANCH  21  27
ATOM     22  C   UNL     1       5.586   3.640   2.984  0.00  0.00    -0.068 C 
ATOM     23  C   UNL     1       4.994   4.893   3.641  0.00  0.00    +0.050 C 
ATOM     24  S   UNL     1       5.478   4.903   5.395  0.00  0.00    -0.164 S 
ATOM     25  C   UNL     1       5.014   3.233   5.949  0.00  0.00    +0.050 C 
ATOM     26  C   UNL     1       5.604   2.217   4.964  0.00  0.00    -0.068 C 
ATOM     27  N   UNL     1       5.006   2.439   3.626  0.00  0.00    +0.384 N 
ATOM     28  H   UNL     1       3.995   2.581   3.737  0.00  0.00    -0.081 HD
ENDBRANCH  21  27
ENDBRANCH   3  21
TORSDOF 5
