REMARK  Name = ZINC04689458
REMARK  12 active torsions:
REMARK  status: ('A' for Active; 'I' for Inactive)
REMARK    1  A    between atoms: C_1  and  C_2
REMARK    2  A    between atoms: C_2  and  O_3
REMARK    3  A    between atoms: O_3  and  C_4
REMARK    4  A    between atoms: C_4  and  C_6
REMARK    5  A    between atoms: C_7  and  C_22
REMARK    6  A    between atoms: C_12  and  C_14
REMARK    7  A    between atoms: C_16  and  C_21
REMARK    8  A    between atoms: C_19  and  C_20
REMARK    9  A    between atoms: C_22  and  N_23
REMARK   10  A    between atoms: N_23  and  C_24
REMARK   11  A    between atoms: C_24  and  C_25
REMARK   12  A    between atoms: C_28  and  C_31
REMARK                            x       y       z     vdW  Elec       q    Type
REMARK                         _______ _______ _______ _____ _____    ______ ____
ROOT
ATOM      1  C   UNL     1       1.378  -2.051  -2.612  0.00  0.00    +0.076 C 
ATOM      2  C   UNL     1       1.562  -3.383  -2.735  0.00  0.00    +0.007 C 
ATOM      3  N   UNL     1       2.291  -3.902  -3.767  0.00  0.00    -0.274 N 
ATOM      4  C   UNL     1       2.870  -3.155  -4.716  0.00  0.00    +0.304 C 
ATOM      5  O   UNL     1       3.501  -3.708  -5.595  0.00  0.00    -0.252 OA
ATOM      6  N   UNL     1       2.775  -1.811  -4.728  0.00  0.00    -0.288 N 
ATOM      7  C   UNL     1       2.003  -1.153  -3.660  0.00  0.00    +0.144 C 
ATOM      8  H   UNL     1       2.397  -4.865  -3.814  0.00  0.00    +0.156 HD
ATOM      9  H   UNL     1       3.203  -1.289  -5.425  0.00  0.00    +0.151 HD
ENDROOT
BRANCH   7  10
ATOM     10  C   UNL     1       0.901  -0.352  -4.304  0.00  0.00    -0.019 A 
ATOM     11  C   UNL     1       0.250  -0.844  -5.420  0.00  0.00    +0.009 A 
ATOM     12  C   UNL     1      -0.761  -0.110  -6.011  0.00  0.00    -0.050 A 
ATOM     13  C   UNL     1      -1.122   1.117  -5.484  0.00  0.00    +0.003 A 
ATOM     14  C   UNL     1      -0.472   1.608  -4.368  0.00  0.00    +0.004 A 
ATOM     15  C   UNL     1       0.536   0.872  -3.775  0.00  0.00    -0.045 A 
ATOM     16  C   UNL     1       1.241   1.405  -2.554  0.00  0.00    +0.044 C 
ATOM     17  C   UNL     1      -1.470  -0.645  -7.228  0.00  0.00    +0.044 C 
ENDBRANCH   7  10
BRANCH   1  18
ATOM     18  C   UNL     1       0.622  -1.513  -1.545  0.00  0.00    +0.339 C 
ATOM     19  O   UNL     1      -0.527  -1.156  -1.732  0.00  0.00    -0.245 OA
BRANCH  18  20
ATOM     20  O   UNL     1       1.174  -1.395  -0.319  0.00  0.00    -0.462 OA
BRANCH  20  22
ATOM     21  C   UNL     1       1.142  -0.765   2.014  0.00  0.00    +0.048 C 
ATOM     22  C   UNL     1       0.320  -0.950   0.737  0.00  0.00    +0.229 C 
ENDBRANCH  20  22
ENDBRANCH  18  20
ENDBRANCH   1  18
BRANCH   2  23
ATOM     23  C   UNL     1       0.952  -4.313  -1.718  0.00  0.00    -0.030 C 
BRANCH  23  24
ATOM     24  N   UNL     1      -0.077  -5.138  -2.363  0.00  0.00    +0.385 N 
ATOM     25  H   UNL     1      -0.795  -4.542  -2.746  0.00  0.00    -0.085 HD
ATOM     26  H   UNL     1       0.342  -5.680  -3.104  0.00  0.00    -0.085 HD
BRANCH  24  27
ATOM     27  C   UNL     1      -0.671  -6.044  -1.371  0.00  0.00    -0.046 C 
BRANCH  27  28
ATOM     28  C   UNL     1      -1.727  -6.891  -2.033  0.00  0.00    -0.064 A 
ATOM     29  C   UNL     1      -3.037  -6.451  -2.081  0.00  0.00    +0.002 A 
ATOM     30  C   UNL     1      -4.005  -7.228  -2.688  0.00  0.00    +0.003 A 
ATOM     31  C   UNL     1      -3.664  -8.445  -3.248  0.00  0.00    -0.050 A 
ATOM     32  C   UNL     1      -2.355  -8.886  -3.200  0.00  0.00    +0.003 A 
ATOM     33  C   UNL     1      -1.385  -8.107  -2.597  0.00  0.00    +0.002 A 
ATOM     34  C   UNL     1      -4.721  -9.293  -3.909  0.00  0.00    +0.044 C 
ENDBRANCH  27  28
ENDBRANCH  24  27
ENDBRANCH  23  24
ENDBRANCH   2  23
TORSDOF 8
