REMARK  Name = ZINC19234246
REMARK  10 active torsions:
REMARK  status: ('A' for Active; 'I' for Inactive)
REMARK    1  A    between atoms: C_1  and  C_2
REMARK    2  A    between atoms: C_7  and  C_15
REMARK    3  A    between atoms: C_13  and  C_14
REMARK    4  A    between atoms: C_15  and  N_16
REMARK    5  A    between atoms: N_16  and  C_17
REMARK    6  A    between atoms: N_16  and  C_27
REMARK    7  A    between atoms: C_17  and  C_18
REMARK    8  A    between atoms: C_27  and  C_28
REMARK    9  A    between atoms: N_32  and  C_33
REMARK   10  A    between atoms: C_33  and  C_34
REMARK                            x       y       z     vdW  Elec       q    Type
REMARK                         _______ _______ _______ _____ _____    ______ ____
ROOT
ATOM      1  N   UNL     1       1.570  -6.566   1.259  0.00  0.00    +0.390 N 
ATOM      2  H   UNL     1       2.268  -6.159   0.654  0.00  0.00    -0.080 HD
ENDROOT
BRANCH   1   3
ATOM      3  C   UNL     1       0.272  -5.926   1.008  0.00  0.00    -0.036 C 
BRANCH   3  10
ATOM      4  C   UNL     1       1.127   2.003   0.878  0.00  0.00    +0.044 C 
ATOM      5  C   UNL     1       0.998   0.516   0.671  0.00  0.00    -0.046 A 
ATOM      6  C   UNL     1       1.115  -0.012  -0.607  0.00  0.00    +0.004 A 
ATOM      7  C   UNL     1       1.001  -1.357  -0.816  0.00  0.00    +0.010 A 
ATOM      8  C   UNL     1       0.764  -2.210   0.267  0.00  0.00    -0.001 A 
ATOM      9  C   UNL     1       0.637  -3.656   0.079  0.00  0.00    +0.017 A 
ATOM     10  C   UNL     1       0.408  -4.433   1.167  0.00  0.00    +0.001 A 
ATOM     11  C   UNL     1       0.296  -3.849   2.446  0.00  0.00    +0.251 A 
ATOM     12  O   UNL     1       0.090  -4.566   3.411  0.00  0.00    -0.268 OA
ATOM     13  N   UNL     1       0.411  -2.522   2.629  0.00  0.00    -0.322 N 
ATOM     14  H   UNL     1       0.329  -2.154   3.523  0.00  0.00    +0.169 HD
ATOM     15  C   UNL     1       0.645  -1.678   1.565  0.00  0.00    +0.052 A 
ATOM     16  C   UNL     1       0.770  -0.305   1.754  0.00  0.00    -0.024 A 
ATOM     17  C   UNL     1       0.651   0.282   3.137  0.00  0.00    +0.046 C 
ENDBRANCH   3  10
ENDBRANCH   1   3
BRANCH   1  18
ATOM     18  C   UNL     1       1.955  -6.357   2.661  0.00  0.00    -0.042 C 
BRANCH  18  19
ATOM     19  C   UNL     1       3.339  -6.909   2.889  0.00  0.00    -0.060 A 
ATOM     20  C   UNL     1       3.498  -8.186   3.393  0.00  0.00    +0.005 A 
ATOM     21  C   UNL     1       4.766  -8.697   3.603  0.00  0.00    +0.050 A 
ATOM     22  C   UNL     1       5.880  -7.928   3.310  0.00  0.00    +0.166 A 
ATOM     23  C   UNL     1       5.720  -6.641   2.802  0.00  0.00    +0.166 A 
ATOM     24  C   UNL     1       4.447  -6.138   2.589  0.00  0.00    +0.051 A 
ATOM     25  O   UNL     1       6.954  -6.096   2.598  0.00  0.00    -0.453 OA
ATOM     26  C   UNL     1       7.864  -6.905   3.366  0.00  0.00    +0.466 C 
ATOM     27  O   UNL     1       7.215  -8.189   3.423  0.00  0.00    -0.453 OA
ENDBRANCH  18  19
ENDBRANCH   1  18
BRANCH   1  28
ATOM     28  C   UNL     1       1.467  -8.006   0.988  0.00  0.00    +0.001 C 
BRANCH  28  29
ATOM     29  C   UNL     1       1.200  -8.223  -0.479  0.00  0.00    +0.136 A 
ATOM     30  N   UNL     1       0.029  -8.387  -1.046  0.00  0.00    -0.115 NA
ATOM     31  N   UNL     1       0.217  -8.542  -2.311  0.00  0.00    -0.023 NA
ATOM     32  N   UNL     1       1.477  -8.481  -2.566  0.00  0.00    -0.044 NA
ATOM     33  N   UNL     1       2.116  -8.280  -1.463  0.00  0.00    -0.224 N 
BRANCH  33  34
ATOM     34  C   UNL     1       3.567  -8.142  -1.310  0.00  0.00    +0.221 C 
BRANCH  34  35
ATOM     35  C   UNL     1       4.192  -9.509  -1.201  0.00  0.00    +0.126 A 
ATOM     36  C   UNL     1       4.641 -10.253  -2.228  0.00  0.00    +0.046 A 
ATOM     37  C   UNL     1       5.144 -11.453  -1.675  0.00  0.00    +0.041 A 
ATOM     38  C   UNL     1       4.973 -11.370  -0.343  0.00  0.00    +0.195 A 
ATOM     39  O   UNL     1       4.401 -10.188  -0.062  0.00  0.00    -0.466 OA
ENDBRANCH  34  35
ENDBRANCH  33  34
ENDBRANCH  28  29
ENDBRANCH   1  28
TORSDOF 8
