REMARK  Name = ZINC39980045
REMARK  6 active torsions:
REMARK  status: ('A' for Active; 'I' for Inactive)
REMARK    1  A    between atoms: C_4  and  S_7
REMARK    2  A    between atoms: S_7  and  N_10
REMARK    3  A    between atoms: C_12  and  N_22
REMARK    4  A    between atoms: N_22  and  C_23
REMARK    5  A    between atoms: C_26  and  C_29
REMARK    6  A    between atoms: C_29  and  O_31
REMARK                            x       y       z     vdW  Elec       q    Type
REMARK                         _______ _______ _______ _____ _____    ______ ____
ROOT
ATOM      1  N   UNL     1       4.600  -0.915   1.375  0.00  0.00    -0.110 NA
ATOM      2  C   UNL     1       5.616  -1.635   1.752  0.00  0.00    +0.192 C 
ATOM      3  C   UNL     1       5.855  -1.918   3.217  0.00  0.00    +0.237 C 
ATOM      4  N   UNL     1       7.021  -2.739   3.577  0.00  0.00    -0.359 N 
ATOM      5  C   UNL     1       7.790  -3.181   2.621  0.00  0.00    +0.063 A 
ATOM      6  C   UNL     1       8.968  -4.005   2.928  0.00  0.00    +0.027 A 
ATOM      7  C   UNL     1       9.741  -4.445   1.911  0.00  0.00    +0.002 A 
ATOM      8  C   UNL     1       9.447  -4.135   0.572  0.00  0.00    +0.002 A 
ATOM      9  C   UNL     1       8.383  -3.383   0.213  0.00  0.00    +0.030 A 
ATOM     10  C   UNL     1       7.503  -2.869   1.199  0.00  0.00    +0.089 A 
ATOM     11  N   UNL     1       6.466  -2.141   0.844  0.00  0.00    -0.226 NA
ATOM     12  H   UNL     1       7.214  -2.947   4.505  0.00  0.00    +0.162 HD
ENDROOT
BRANCH   1  13
ATOM     13  S   UNL     1       4.347  -0.618  -0.234  0.00  0.00    +0.100 S 
ATOM     14  O   UNL     1       4.034  -1.867  -0.834  0.00  0.00    -0.146 OA
ATOM     15  O   UNL     1       5.431   0.189  -0.674  0.00  0.00    -0.146 OA
BRANCH  13  19
ATOM     16  C   UNL     1       0.624   1.937  -0.555  0.00  0.00    +0.000 A 
ATOM     17  C   UNL     1       1.863   2.535  -0.428  0.00  0.00    +0.002 A 
ATOM     18  C   UNL     1       3.001   1.755  -0.330  0.00  0.00    +0.029 A 
ATOM     19  C   UNL     1       2.898   0.377  -0.358  0.00  0.00    +0.113 A 
ATOM     20  C   UNL     1       1.658  -0.221  -0.484  0.00  0.00    +0.029 A 
ATOM     21  C   UNL     1       0.521   0.559  -0.583  0.00  0.00    +0.002 A 
ENDBRANCH  13  19
ENDBRANCH   1  13
BRANCH   3  22
ATOM     22  N   UNL     1       5.984  -0.632   3.906  0.00  0.00    -0.318 N 
ATOM     23  H   UNL     1       6.516   0.078   3.513  0.00  0.00    +0.148 HD
BRANCH  22  24
ATOM     24  C   UNL     1       5.345  -0.428   5.124  0.00  0.00    +0.029 A 
ATOM     25  C   UNL     1       5.333   0.840   5.698  0.00  0.00    +0.024 A 
ATOM     26  C   UNL     1       4.703   1.045   6.899  0.00  0.00    +0.017 A 
ATOM     27  C   UNL     1       4.072  -0.022   7.546  0.00  0.00    +0.059 A 
ATOM     28  C   UNL     1       4.086  -1.294   6.967  0.00  0.00    +0.017 A 
ATOM     29  C   UNL     1       4.713  -1.491   5.763  0.00  0.00    +0.024 A 
BRANCH  27  30
ATOM     30  C   UNL     1       3.394   0.194   8.837  0.00  0.00    +0.337 C 
ATOM     31  O   UNL     1       3.384   1.301   9.340  0.00  0.00    -0.245 OA
BRANCH  30  32
ATOM     32  O   UNL     1       2.787  -0.835   9.460  0.00  0.00    -0.477 OA
ATOM     33  H   UNL     1       2.371  -0.596  10.299  0.00  0.00    +0.295 HD
ENDBRANCH  30  32
ENDBRANCH  27  30
ENDBRANCH  22  24
ENDBRANCH   3  22
TORSDOF 6
