REMARK  Name = ZINC65117578
REMARK  9 active torsions:
REMARK  status: ('A' for Active; 'I' for Inactive)
REMARK    1  A    between atoms: N_9  and  C_11
REMARK    2  A    between atoms: C_11  and  C_12
REMARK    3  A    between atoms: C_12  and  C_13
REMARK    4  A    between atoms: C_13  and  N_14
REMARK    5  A    between atoms: C_15  and  C_17
REMARK    6  A    between atoms: C_19  and  C_22
REMARK    7  A    between atoms: C_22  and  C_23
REMARK    8  A    between atoms: C_23  and  S_24
REMARK    9  A    between atoms: S_24  and  C_27
REMARK                            x       y       z     vdW  Elec       q    Type
REMARK                         _______ _______ _______ _____ _____    ______ ____
ROOT
ATOM      1  N   UNL     1       8.238  -2.333   1.887  0.00  0.00    -0.307 N 
ATOM      2  C   UNL     1       9.494  -2.821   1.903  0.00  0.00    +0.302 C 
ATOM      3  O   UNL     1       9.800  -3.738   1.167  0.00  0.00    -0.265 OA
ATOM      4  H   UNL     1       7.994  -1.601   2.474  0.00  0.00    +0.149 HD
ENDROOT
BRANCH   2   5
ATOM      5  C   UNL     1      10.503  -2.238   2.820  0.00  0.00    +0.313 A 
ATOM      6  N   UNL     1      11.754  -2.616   2.929  0.00  0.00    -0.188 NA
ATOM      7  C   UNL     1      12.377  -1.878   3.848  0.00  0.00    +0.174 A 
ATOM      8  N   UNL     1      11.535  -1.014   4.343  0.00  0.00    -0.061 NA
ATOM      9  O   UNL     1      10.297  -1.227   3.681  0.00  0.00    -0.328 OA
BRANCH   7  10
ATOM     10  C   UNL     1      13.822  -2.019   4.251  0.00  0.00    +0.103 C 
BRANCH  10  11
ATOM     11  C   UNL     1      14.688  -1.117   3.369  0.00  0.00    +0.179 C 
BRANCH  11  12
ATOM     12  S   UNL     1      16.428  -1.288   3.853  0.00  0.00    -0.003 S 
ATOM     13  O   UNL     1      16.630  -0.745   5.150  0.00  0.00    -0.169 OA
ATOM     14  O   UNL     1      16.900  -2.589   3.530  0.00  0.00    -0.169 OA
BRANCH  12  15
ATOM     15  C   UNL     1      17.306  -0.209   2.772  0.00  0.00    +0.088 A 
ATOM     16  C   UNL     1      17.777  -0.679   1.560  0.00  0.00    +0.030 A 
ATOM     17  C   UNL     1      18.466   0.166   0.711  0.00  0.00    +0.040 A 
ATOM     18  C   UNL     1      18.685   1.484   1.075  0.00  0.00    +0.124 A 
ATOM     19  C   UNL     1      18.213   1.954   2.289  0.00  0.00    +0.040 A 
ATOM     20  C   UNL     1      17.520   1.108   3.134  0.00  0.00    +0.030 A 
ATOM     21  F   UNL     1      19.359   2.311   0.246  0.00  0.00    -0.205 F 
ENDBRANCH  12  15
ENDBRANCH  11  12
ENDBRANCH  10  11
ENDBRANCH   7  10
ENDBRANCH   2   5
BRANCH   1  22
ATOM     22  C   UNL     1       7.241  -2.908   0.981  0.00  0.00    +0.103 C 
BRANCH  22  23
ATOM     23  C   UNL     1       5.908  -2.179   1.160  0.00  0.00    +0.000 C 
BRANCH  23  24
ATOM     24  C   UNL     1       4.866  -2.780   0.214  0.00  0.00    -0.077 C 
BRANCH  24  33
ATOM     25  C   UNL     1      -0.017   1.376   0.010  0.00  0.00    +0.000 A 
ATOM     26  C   UNL     1       1.173   2.080   0.002  0.00  0.00    +0.000 A 
ATOM     27  C   UNL     1       2.375   1.401  -0.015  0.00  0.00    +0.002 A 
ATOM     28  C   UNL     1       2.395   0.014  -0.023  0.00  0.00    -0.061 A 
ATOM     29  C   UNL     1       1.208  -0.687  -0.013  0.00  0.00    -0.048 A 
ATOM     30  C   UNL     1       0.002  -0.004   0.002  0.00  0.00    +0.004 A 
ATOM     31  C   UNL     1       1.186  -2.194  -0.014  0.00  0.00    +0.017 C 
ATOM     32  C   UNL     1       2.554  -2.732  -0.434  0.00  0.00    -0.074 C 
ATOM     33  N   UNL     1       3.587  -2.079   0.386  0.00  0.00    +0.383 N 
ATOM     34  C   UNL     1       3.728  -0.686  -0.046  0.00  0.00    -0.043 C 
ATOM     35  H   UNL     1       3.313  -2.106   1.357  0.00  0.00    -0.081 HD
ENDBRANCH  24  33
ENDBRANCH  23  24
ENDBRANCH  22  23
ENDBRANCH   1  22
TORSDOF 9
