REMARK  Name = ZINC13102347
REMARK  3 active torsions:
REMARK  status: ('A' for Active; 'I' for Inactive)
REMARK    1  A    between atoms: N_12  and  N_13
REMARK    2  A    between atoms: C_14  and  C_16
REMARK    3  A    between atoms: C_18  and  N_24
REMARK                            x       y       z     vdW  Elec       q    Type
REMARK                         _______ _______ _______ _____ _____    ______ ____
ROOT
ATOM      1  N   UNL     1      -0.360  -2.965   0.087  0.00  0.00    -0.201 N 
ATOM      2  C   UNL     1      -1.179  -4.031   0.191  0.00  0.00    +0.283 C 
ATOM      3  O   UNL     1      -0.717  -5.157   0.180  0.00  0.00    -0.267 OA
ATOM      4  H   UNL     1      -0.729  -2.068   0.096  0.00  0.00    +0.178 HD
ENDROOT
BRANCH   1  16
ATOM      5  C   UNL     1       0.048   1.258   0.763  0.00  0.00    +0.001 A 
ATOM      6  C   UNL     1       1.287   2.060   0.679  0.00  0.00    +0.008 A 
ATOM      7  C   UNL     1       2.415   1.449   0.407  0.00  0.00    -0.017 A 
ATOM      8  C   UNL     1       3.727   2.108   0.292  0.00  0.00    +0.008 A 
ATOM      9  C   UNL     1       4.784   1.370   0.012  0.00  0.00    +0.001 A 
ATOM     10  C   UNL     1       4.730  -0.086  -0.195  0.00  0.00    +0.012 A 
ATOM     11  C   UNL     1       3.602  -0.750  -0.110  0.00  0.00    +0.032 A 
ATOM     12  C   UNL     1       2.386   0.001   0.198  0.00  0.00    +0.002 A 
ATOM     13  C   UNL     1       1.322  -0.733   0.264  0.00  0.00    +0.014 A 
ATOM     14  C   UNL     1       0.050  -0.047   0.571  0.00  0.00    +0.011 A 
ATOM     15  C   UNL     1       1.700  -2.131  -0.004  0.00  0.00    +0.137 C 
ATOM     16  N   UNL     1       0.913  -3.139  -0.024  0.00  0.00    -0.176 NA
ATOM     17  C   UNL     1       3.167  -2.152  -0.246  0.00  0.00    +0.214 C 
ATOM     18  O   UNL     1       3.853  -3.111  -0.500  0.00  0.00    -0.285 OA
ENDBRANCH   1  16
BRANCH   2  19
ATOM     19  C   UNL     1      -2.637  -3.832   0.318  0.00  0.00    +0.149 A 
ATOM     20  C   UNL     1      -3.478  -4.939   0.431  0.00  0.00    +0.094 A 
ATOM     21  C   UNL     1      -4.852  -4.733   0.550  0.00  0.00    +0.067 A 
ATOM     22  C   UNL     1      -5.328  -3.422   0.551  0.00  0.00    +0.100 A 
ATOM     23  C   UNL     1      -4.429  -2.374   0.435  0.00  0.00    +0.150 A 
ATOM     24  N   UNL     1      -3.136  -2.599   0.330  0.00  0.00    -0.228 NA
ATOM     25 CL   UNL     1      -5.017  -0.741   0.436  0.00  0.00    -0.060 Cl
ATOM     26 CL   UNL     1      -7.029  -3.107   0.697  0.00  0.00    -0.078 Cl
ATOM     27 CL   UNL     1      -2.824  -6.547   0.422  0.00  0.00    -0.079 Cl
BRANCH  21  28
ATOM     28  N   UNL     1      -5.727  -5.811   0.664  0.00  0.00    -0.356 N 
ATOM     29  H   UNL     1      -5.383  -6.718   0.661  0.00  0.00    +0.142 HD
ATOM     30  H   UNL     1      -6.681  -5.655   0.747  0.00  0.00    +0.142 HD
ENDBRANCH  21  28
ENDBRANCH   2  19
TORSDOF 3
