REMARK  Name = ZINC32926984
REMARK  5 active torsions:
REMARK  status: ('A' for Active; 'I' for Inactive)
REMARK    1  A    between atoms: C_1  and  C_2
REMARK    2  A    between atoms: N_7  and  S_9
REMARK    3  A    between atoms: S_9  and  C_12
REMARK    4  A    between atoms: C_15  and  N_21
REMARK    5  A    between atoms: C_16  and  N_18
REMARK                            x       y       z     vdW  Elec       q    Type
REMARK                         _______ _______ _______ _____ _____    ______ ____
ROOT
ATOM      1  C   UNL     1      -5.583   7.014   2.171  0.00  0.00    +0.108 A 
ATOM      2  C   UNL     1      -4.207   7.130   2.109  0.00  0.00    +0.030 A 
ATOM      3  C   UNL     1      -3.432   6.030   1.798  0.00  0.00    +0.027 A 
ATOM      4  C   UNL     1      -4.037   4.805   1.547  0.00  0.00    +0.061 A 
ATOM      5  C   UNL     1      -5.421   4.693   1.604  0.00  0.00    +0.149 A 
ATOM      6  C   UNL     1      -6.189   5.796   1.922  0.00  0.00    +0.063 A 
ENDROOT
BRANCH   4   7
ATOM      7  N   UNL     1      -3.257   3.691   1.232  0.00  0.00    -0.322 N 
ATOM      8  C   UNL     1      -2.512   3.906  -0.006  0.00  0.00    +0.124 C 
ATOM      9  C   UNL     1      -1.959   2.638  -0.612  0.00  0.00    +0.120 C 
ATOM     10  N   UNL     1      -0.965   2.033   0.292  0.00  0.00    -0.342 N 
ATOM     11  C   UNL     1      -1.435   1.236   1.339  0.00  0.00    +0.032 A 
ATOM     12  C   UNL     1      -1.198  -0.132   1.348  0.00  0.00    +0.023 A 
ATOM     13  C   UNL     1      -1.733  -0.912   2.356  0.00  0.00    +0.002 A 
ATOM     14  C   UNL     1      -2.502  -0.333   3.349  0.00  0.00    +0.000 A 
ATOM     15  C   UNL     1      -2.727   1.032   3.349  0.00  0.00    +0.007 A 
ATOM     16  C   UNL     1      -2.189   1.814   2.348  0.00  0.00    -0.009 A 
ATOM     17  C   UNL     1      -2.398   3.317   2.357  0.00  0.00    +0.142 C 
ATOM     18  H   UNL     1       0.108   2.215   0.130  0.00  0.00    +0.146 HD
ENDBRANCH   4   7
BRANCH   1  19
ATOM     19  S   UNL     1      -6.568   8.420   2.568  0.00  0.00    +0.061 S 
ATOM     20  O   UNL     1      -7.790   7.924   3.097  0.00  0.00    -0.153 OA
ATOM     21  O   UNL     1      -5.730   9.311   3.291  0.00  0.00    -0.153 OA
BRANCH  19  27
ATOM     22  C   UNL     1      -9.031   8.210  -1.866  0.00  0.00    +0.009 C 
ATOM     23  C   UNL     1      -7.766   8.461  -1.041  0.00  0.00    +0.002 C 
ATOM     24  C   UNL     1      -6.980   9.624  -1.651  0.00  0.00    +0.006 C 
ATOM     25  C   UNL     1      -5.699   9.853  -0.846  0.00  0.00    +0.017 C 
ATOM     26  C   UNL     1      -6.068  10.224   0.599  0.00  0.00    +0.109 C 
ATOM     27  N   UNL     1      -6.941   9.175   1.141  0.00  0.00    -0.176 NA
ATOM     28  C   UNL     1      -8.156   8.812   0.398  0.00  0.00    +0.112 C 
ENDBRANCH  19  27
ENDBRANCH   1  19
BRANCH   5  29
ATOM     29  N   UNL     1      -6.070   3.391   1.332  0.00  0.00    +0.058 N 
ATOM     30  O   UNL     1      -7.285   3.313   1.291  0.00  0.00    -0.126 OA
ATOM     31  O   UNL     1      -5.390   2.398   1.148  0.00  0.00    -0.126 OA
ENDBRANCH   5  29
TORSDOF 4
