REMARK  Name = ZINC01412922
REMARK  7 active torsions:
REMARK  status: ('A' for Active; 'I' for Inactive)
REMARK    1  A    between atoms: C_4  and  C_7
REMARK    2  A    between atoms: C_7  and  C_8
REMARK    3  A    between atoms: C_8  and  C_10
REMARK    4  A    between atoms: C_8  and  N_16
REMARK    5  A    between atoms: C_17  and  C_19
REMARK    6  A    between atoms: C_19  and  N_25
REMARK    7  A    between atoms: C_26  and  C_31
REMARK                            x       y       z     vdW  Elec       q    Type
REMARK                         _______ _______ _______ _____ _____    ______ ____
ROOT
ATOM      1  C   UNL     1       2.100  -2.776   3.833  0.00  0.00    +0.115 C 
ATOM      2  C   UNL     1       1.459  -1.992   4.974  0.00  0.00    +0.046 C 
ATOM      3  C   UNL     1       0.173  -2.689   5.428  0.00  0.00    +0.071 C 
ATOM      4  S   UNL     1       0.597  -4.338   6.065  0.00  0.00    -0.161 S 
ATOM      5  C   UNL     1       1.576  -5.061   4.713  0.00  0.00    +0.071 C 
ATOM      6  C   UNL     1       2.697  -4.085   4.343  0.00  0.00    +0.046 C 
ENDROOT
BRANCH   1   7
ATOM      7  N   UNL     1       1.082  -3.073   2.822  0.00  0.00    -0.280 N 
ATOM      8  C   UNL     1       0.954  -2.739   1.409  0.00  0.00    +0.116 C 
ATOM      9  C   UNL     1      -0.366  -3.501   1.405  0.00  0.00    +0.123 C 
ATOM     10  C   UNL     1      -0.069  -3.754   2.853  0.00  0.00    +0.219 C 
ATOM     11  O   UNL     1      -0.655  -4.355   3.729  0.00  0.00    -0.275 OA
BRANCH   8  12
ATOM     12  C   UNL     1       2.014  -3.370   0.544  0.00  0.00    -0.023 A 
ATOM     13  C   UNL     1       2.367  -4.692   0.740  0.00  0.00    +0.009 A 
ATOM     14  C   UNL     1       3.340  -5.275  -0.051  0.00  0.00    +0.050 A 
ATOM     15  C   UNL     1       3.963  -4.535  -1.042  0.00  0.00    +0.166 A 
ATOM     16  C   UNL     1       3.608  -3.202  -1.239  0.00  0.00    +0.167 A 
ATOM     17  C   UNL     1       2.629  -2.626  -0.446  0.00  0.00    +0.055 A 
ATOM     18  O   UNL     1       4.358  -2.697  -2.262  0.00  0.00    -0.453 OA
ATOM     19  C   UNL     1       5.460  -3.611  -2.418  0.00  0.00    +0.466 C 
ATOM     20  O   UNL     1       4.936  -4.864  -1.942  0.00  0.00    -0.453 OA
ENDBRANCH   8  12
ENDBRANCH   1   7
BRANCH   1  22
ATOM     21  N   UNL     1       4.325  -1.697   3.895  0.00  0.00    -0.306 N 
ATOM     22  C   UNL     1       3.190  -1.943   3.210  0.00  0.00    +0.237 C 
ATOM     23  O   UNL     1       3.047  -1.495   2.092  0.00  0.00    -0.273 OA
ATOM     24  H   UNL     1       4.410  -1.994   4.814  0.00  0.00    +0.149 HD
BRANCH  21  25
ATOM     25  C   UNL     1       5.428  -0.981   3.250  0.00  0.00    +0.107 C 
BRANCH  25  26
ATOM     26  C   UNL     1       5.249   0.502   3.449  0.00  0.00    -0.027 A 
ATOM     27  C   UNL     1       4.807   0.988   4.665  0.00  0.00    +0.005 A 
ATOM     28  C   UNL     1       4.643   2.348   4.848  0.00  0.00    +0.000 A 
ATOM     29  C   UNL     1       4.921   3.223   3.814  0.00  0.00    +0.000 A 
ATOM     30  C   UNL     1       5.364   2.737   2.598  0.00  0.00    +0.000 A 
ATOM     31  C   UNL     1       5.532   1.377   2.417  0.00  0.00    +0.005 A 
ENDBRANCH  25  26
BRANCH  25  32
ATOM     32  C   UNL     1       6.755  -1.423   3.872  0.00  0.00    +0.062 C 
BRANCH  32  36
ATOM     33  C   UNL     1       7.405  -5.565   3.054  0.00  0.00    +0.000 A 
ATOM     34  C   UNL     1       7.772  -4.611   2.124  0.00  0.00    +0.000 A 
ATOM     35  C   UNL     1       7.561  -3.270   2.389  0.00  0.00    +0.004 A 
ATOM     36  C   UNL     1       6.983  -2.884   3.583  0.00  0.00    -0.045 A 
ATOM     37  C   UNL     1       6.615  -3.838   4.513  0.00  0.00    +0.004 A 
ATOM     38  C   UNL     1       6.827  -5.178   4.249  0.00  0.00    +0.000 A 
ENDBRANCH  32  36
ENDBRANCH  25  32
ENDBRANCH  21  25
ENDBRANCH   1  22
TORSDOF 7
