REMARK  Name = ZINC02461349
REMARK  8 active torsions:
REMARK  status: ('A' for Active; 'I' for Inactive)
REMARK    1  A    between atoms: C_1  and  C_2
REMARK    2  A    between atoms: C_6  and  C_36
REMARK    3  A    between atoms: C_7  and  N_8
REMARK    4  A    between atoms: C_9  and  C_11
REMARK    5  A    between atoms: C_11  and  C_13
REMARK    6  A    between atoms: C_11  and  N_21
REMARK    7  A    between atoms: C_22  and  C_24
REMARK    8  A    between atoms: C_24  and  N_25
REMARK                            x       y       z     vdW  Elec       q    Type
REMARK                         _______ _______ _______ _____ _____    ______ ____
ROOT
ATOM      1  C   UNL     1      -1.858  -0.533   0.182  0.00  0.00    +0.191 C 
ENDROOT
BRANCH   1   2
ATOM      2  C   UNL     1      -0.376  -0.805   0.154  0.00  0.00    +0.000 A 
ATOM      3  C   UNL     1       0.097  -2.081   0.397  0.00  0.00    +0.009 A 
ATOM      4  C   UNL     1       1.456  -2.332   0.371  0.00  0.00    +0.020 A 
ATOM      5  C   UNL     1       2.344  -1.305   0.102  0.00  0.00    +0.042 A 
ATOM      6  C   UNL     1       1.871  -0.028  -0.141  0.00  0.00    +0.040 A 
ATOM      7  C   UNL     1       0.510   0.222  -0.115  0.00  0.00    +0.048 A 
ATOM      8 CL   UNL     1      -0.084   1.823  -0.427  0.00  0.00    -0.083 Cl
ATOM      9 CL   UNL     1       4.051  -1.619   0.070  0.00  0.00    -0.083 Cl
ENDBRANCH   1   2
BRANCH   1  11
ATOM     10  N   UNL     1      -1.947   0.210  -2.175  0.00  0.00    -0.283 N 
ATOM     11  C   UNL     1      -2.411  -0.616  -1.217  0.00  0.00    +0.242 C 
ATOM     12  O   UNL     1      -3.274  -1.427  -1.481  0.00  0.00    -0.273 OA
ATOM     13  H   UNL     1      -1.308   0.904  -1.949  0.00  0.00    +0.155 HD
BRANCH  10  20
ATOM     14  C   UNL     1      -2.967   2.506  -3.510  0.00  0.00    +0.045 C 
ATOM     15  C   UNL     1      -2.891   1.161  -4.184  0.00  0.00    -0.029 A 
ATOM     16  C   UNL     1      -3.318   1.017  -5.490  0.00  0.00    +0.005 A 
ATOM     17  C   UNL     1      -3.253  -0.218  -6.108  0.00  0.00    +0.001 A 
ATOM     18  C   UNL     1      -2.756  -1.312  -5.423  0.00  0.00    +0.005 A 
ATOM     19  C   UNL     1      -2.322  -1.173  -4.119  0.00  0.00    -0.029 A 
ATOM     20  C   UNL     1      -2.386   0.066  -3.496  0.00  0.00    +0.039 A 
ATOM     21  C   UNL     1      -1.780  -2.365  -3.374  0.00  0.00    +0.045 C 
ENDBRANCH  10  20
ENDBRANCH   1  11
BRANCH   1  22
ATOM     22  N   UNL     1      -2.521  -1.528   1.029  0.00  0.00    -0.299 N 
ATOM     23  C   UNL     1      -2.591  -1.339   2.362  0.00  0.00    +0.232 C 
ATOM     24  O   UNL     1      -2.106  -0.346   2.860  0.00  0.00    -0.274 OA
ATOM     25  H   UNL     1      -2.909  -2.323   0.631  0.00  0.00    +0.150 HD
BRANCH  23  26
ATOM     26  C   UNL     1      -3.273  -2.363   3.233  0.00  0.00    +0.212 C 
BRANCH  26  27
ATOM     27  N   UNL     1      -3.217  -1.929   4.631  0.00  0.00    -0.225 N 
ATOM     28  C   UNL     1      -2.227  -2.243   5.486  0.00  0.00    +0.254 C 
ATOM     29  O   UNL     1      -1.253  -2.920   5.225  0.00  0.00    -0.270 OA
ATOM     30  C   UNL     1      -2.521  -1.624   6.796  0.00  0.00    +0.049 A 
ATOM     31  C   UNL     1      -1.877  -1.601   8.022  0.00  0.00    +0.014 A 
ATOM     32  C   UNL     1      -2.442  -0.909   9.082  0.00  0.00    +0.001 A 
ATOM     33  C   UNL     1      -3.642  -0.243   8.924  0.00  0.00    +0.001 A 
ATOM     34  C   UNL     1      -4.298  -0.258   7.703  0.00  0.00    +0.014 A 
ATOM     35  C   UNL     1      -3.746  -0.945   6.634  0.00  0.00    +0.049 A 
ATOM     36  C   UNL     1      -4.151  -1.170   5.231  0.00  0.00    +0.254 C 
ATOM     37  O   UNL     1      -5.160  -0.741   4.707  0.00  0.00    -0.270 OA
ENDBRANCH  26  27
ENDBRANCH  23  26
ENDBRANCH   1  22
TORSDOF 6
