REMARK  Name = ZINC15907292
REMARK  6 active torsions:
REMARK  status: ('A' for Active; 'I' for Inactive)
REMARK    1  A    between atoms: C_1  and  C_2
REMARK    2  A    between atoms: C_5  and  C_8
REMARK    3  A    between atoms: C_8  and  N_9
REMARK    4  A    between atoms: C_12  and  C_19
REMARK    5  A    between atoms: N_24  and  S_26
REMARK    6  A    between atoms: S_26  and  C_29
REMARK                            x       y       z     vdW  Elec       q    Type
REMARK                         _______ _______ _______ _____ _____    ______ ____
ROOT
ATOM      1  N   UNL     1       1.447  -4.746  -0.032  0.00  0.00    -0.222 N 
ATOM      2  C   UNL     1       2.213  -4.996  -1.130  0.00  0.00    +0.186 A 
ATOM      3  N   UNL     1       2.011  -4.915  -2.453  0.00  0.00    -0.213 NA
ATOM      4  C   UNL     1       2.941  -5.223  -3.310  0.00  0.00    +0.117 A 
ATOM      5  N   UNL     1       4.174  -5.645  -2.938  0.00  0.00    -0.309 N 
ATOM      6  C   UNL     1       4.490  -5.764  -1.628  0.00  0.00    +0.281 A 
ATOM      7  O   UNL     1       5.594  -6.141  -1.276  0.00  0.00    -0.265 OA
ATOM      8  C   UNL     1       3.457  -5.422  -0.647  0.00  0.00    +0.195 A 
ATOM      9  N   UNL     1       3.406  -5.417   0.692  0.00  0.00    -0.122 NA
ATOM     10  N   UNL     1       2.247  -5.020   1.088  0.00  0.00    -0.063 NA
ATOM     11  H   UNL     1       4.834  -5.863  -3.615  0.00  0.00    +0.170 HD
ENDROOT
BRANCH   4  12
ATOM     12  C   UNL     1       2.632  -5.105  -4.781  0.00  0.00    +0.071 C 
ATOM     13  C   UNL     1       3.104  -3.742  -5.294  0.00  0.00    +0.014 C 
ATOM     14  C   UNL     1       2.822  -3.634  -6.794  0.00  0.00    +0.018 C 
ATOM     15  C   UNL     1       1.313  -3.745  -7.035  0.00  0.00    +0.109 C 
ATOM     16  N   UNL     1       0.826  -4.986  -6.416  0.00  0.00    -0.176 NA
ATOM     17  C   UNL     1       1.121  -5.233  -4.999  0.00  0.00    +0.120 C 
BRANCH  16  18
ATOM     18  S   UNL     1      -0.041  -6.085  -7.301  0.00  0.00    +0.064 S 
ATOM     19  O   UNL     1      -0.815  -6.833  -6.373  0.00  0.00    -0.153 OA
ATOM     20  O   UNL     1      -0.627  -5.368  -8.379  0.00  0.00    -0.153 OA
BRANCH  18  21
ATOM     21  C   UNL     1       1.115  -7.209  -8.013  0.00  0.00    +0.140 A 
ATOM     22  C   UNL     1       1.103  -8.540  -7.643  0.00  0.00    +0.031 A 
ATOM     23  C   UNL     1       2.009  -9.422  -8.201  0.00  0.00    +0.002 A 
ATOM     24  C   UNL     1       2.929  -8.972  -9.130  0.00  0.00    +0.003 A 
ATOM     25  C   UNL     1       2.943  -7.642  -9.502  0.00  0.00    +0.040 A 
ATOM     26  C   UNL     1       2.031  -6.759  -8.948  0.00  0.00    +0.150 A 
ATOM     27  F   UNL     1       2.041  -5.459  -9.314  0.00  0.00    -0.203 F 
ENDBRANCH  18  21
ENDBRANCH  16  18
ENDBRANCH   4  12
BRANCH   1  28
ATOM     28  C   UNL     1       0.059  -4.275  -0.021  0.00  0.00    +0.182 C 
BRANCH  28  33
ATOM     29  C   UNL     1      -0.018   1.503   0.010  0.00  0.00    +0.044 C 
ATOM     30  C   UNL     1       0.002  -0.004   0.002  0.00  0.00    -0.050 A 
ATOM     31  C   UNL     1       0.006  -0.689  -1.199  0.00  0.00    +0.004 A 
ATOM     32  C   UNL     1       0.025  -2.071  -1.206  0.00  0.00    +0.006 A 
ATOM     33  C   UNL     1       0.040  -2.768  -0.013  0.00  0.00    -0.026 A 
ATOM     34  C   UNL     1       0.037  -2.084   1.188  0.00  0.00    +0.006 A 
ATOM     35  C   UNL     1       0.023  -0.702   1.195  0.00  0.00    +0.004 A 
ENDBRANCH  28  33
ENDBRANCH   1  28
TORSDOF 5
