REMARK  Name = ZINC01058915
REMARK  9 active torsions:
REMARK  status: ('A' for Active; 'I' for Inactive)
REMARK    1  A    between atoms: C_1  and  C_2
REMARK    2  A    between atoms: C_7  and  N_8
REMARK    3  A    between atoms: N_8  and  S_9
REMARK    4  A    between atoms: S_9  and  C_12
REMARK    5  A    between atoms: C_15  and  N_18
REMARK    6  A    between atoms: N_18  and  S_19
REMARK    7  A    between atoms: S_19  and  C_22
REMARK    8  A    between atoms: C_25  and  S_28
REMARK    9  A    between atoms: S_28  and  C_29
REMARK                            x       y       z     vdW  Elec       q    Type
REMARK                         _______ _______ _______ _____ _____    ______ ____
ROOT
ATOM      1  C   UNL     1       4.012   3.498  -0.442  0.00  0.00    +0.109 A 
ATOM      2  C   UNL     1       2.849   3.788  -1.131  0.00  0.00    +0.030 A 
ATOM      3  C   UNL     1       1.754   2.952  -1.023  0.00  0.00    +0.026 A 
ATOM      4  C   UNL     1       1.823   1.820  -0.221  0.00  0.00    +0.048 A 
ATOM      5  C   UNL     1       2.991   1.536   0.474  0.00  0.00    +0.026 A 
ATOM      6  C   UNL     1       4.083   2.372   0.358  0.00  0.00    +0.030 A 
ENDROOT
BRANCH   1   7
ATOM      7  S   UNL     1       5.406   4.566  -0.583  0.00  0.00    +0.072 S 
ATOM      8  O   UNL     1       6.550   3.784  -0.271  0.00  0.00    -0.150 OA
ATOM      9  O   UNL     1       5.267   5.254  -1.818  0.00  0.00    -0.150 OA
BRANCH   7  10
ATOM     10  N   UNL     1       5.272   5.706   0.611  0.00  0.00    -0.216 N 
ATOM     11  H   UNL     1       5.216   6.646   0.380  0.00  0.00    +0.174 HD
BRANCH  10  18
ATOM     12  C   UNL     1       3.774   7.289   2.438  0.00  0.00    +0.046 C 
ATOM     13  C   UNL     1       4.522   6.057   2.878  0.00  0.00    -0.028 A 
ATOM     14  C   UNL     1       4.492   5.666   4.202  0.00  0.00    +0.006 A 
ATOM     15  C   UNL     1       5.177   4.536   4.607  0.00  0.00    +0.020 A 
ATOM     16  C   UNL     1       5.895   3.792   3.686  0.00  0.00    +0.043 A 
ATOM     17  C   UNL     1       5.925   4.175   2.359  0.00  0.00    +0.044 A 
ATOM     18  C   UNL     1       5.241   5.314   1.951  0.00  0.00    +0.052 A 
ATOM     19 CL   UNL     1       6.753   2.372   4.199  0.00  0.00    -0.083 Cl
ENDBRANCH  10  18
ENDBRANCH   7  10
ENDBRANCH   1   7
BRANCH   4  20
ATOM     20  N   UNL     1       0.717   0.974  -0.109  0.00  0.00    -0.216 N 
ATOM     21  H   UNL     1      -0.167   1.347   0.028  0.00  0.00    +0.174 HD
BRANCH  20  22
ATOM     22  S   UNL     1       0.917  -0.667  -0.219  0.00  0.00    +0.072 S 
ATOM     23  O   UNL     1       1.961  -1.010   0.682  0.00  0.00    -0.150 OA
ATOM     24  O   UNL     1      -0.381  -1.240  -0.135  0.00  0.00    -0.150 OA
BRANCH  22  25
ATOM     25  C   UNL     1       1.516  -1.012  -1.839  0.00  0.00    +0.109 A 
ATOM     26  C   UNL     1       0.626  -1.151  -2.889  0.00  0.00    +0.030 A 
ATOM     27  C   UNL     1       1.093  -1.416  -4.161  0.00  0.00    +0.016 A 
ATOM     28  C   UNL     1       2.457  -1.554  -4.384  0.00  0.00    +0.008 A 
ATOM     29  C   UNL     1       3.348  -1.419  -3.326  0.00  0.00    +0.016 A 
ATOM     30  C   UNL     1       2.875  -1.149  -2.057  0.00  0.00    +0.030 A 
BRANCH  28  31
ATOM     31  S   UNL     1       3.057  -1.899  -6.005  0.00  0.00    -0.129 S 
ATOM     32  C   UNL     1       1.555  -1.982  -7.019  0.00  0.00    +0.090 C 
ENDBRANCH  28  31
ENDBRANCH  22  25
ENDBRANCH  20  22
ENDBRANCH   4  20
TORSDOF 7
