REMARK  Name = ZINC00192733
REMARK  3 active torsions:
REMARK  status: ('A' for Active; 'I' for Inactive)
REMARK    1  A    between atoms: C_9  and  C_12
REMARK    2  A    between atoms: N_14  and  N_15
REMARK    3  A    between atoms: C_16  and  C_17
REMARK                            x       y       z     vdW  Elec       q    Type
REMARK                         _______ _______ _______ _____ _____    ______ ____
ROOT
ATOM      1  C   UNL     1      -0.715   1.919   1.252  0.00  0.00    +0.276 C 
ATOM      2  O   UNL     1      -1.074   1.129   2.099  0.00  0.00    -0.270 OA
ATOM      3  N   UNL     1      -0.940   3.237   1.421  0.00  0.00    -0.204 N 
ATOM      4  H   UNL     1      -0.652   3.869   0.744  0.00  0.00    +0.177 HD
ENDROOT
BRANCH   1  13
ATOM      5  C   UNL     1       2.542  -1.845  -2.686  0.00  0.00    +0.004 A 
ATOM      6  C   UNL     1       1.512  -2.557  -2.102  0.00  0.00    +0.004 A 
ATOM      7  C   UNL     1       0.663  -1.938  -1.203  0.00  0.00    +0.049 A 
ATOM      8  C   UNL     1       0.844  -0.600  -0.886  0.00  0.00    +0.163 A 
ATOM      9  C   UNL     1       1.878   0.117  -1.476  0.00  0.00    +0.162 A 
ATOM     10  C   UNL     1       2.727  -0.511  -2.376  0.00  0.00    +0.049 A 
ATOM     11  O   UNL     1       2.069   1.433  -1.185  0.00  0.00    -0.484 OA
ATOM     12  C   UNL     1       1.433   1.928  -0.001  0.00  0.00    +0.283 C 
ATOM     13  C   UNL     1      -0.017   1.427   0.010  0.00  0.00    +0.297 C 
ATOM     14  O   UNL     1       0.002  -0.004   0.002  0.00  0.00    -0.472 OA
ENDBRANCH   1  13
BRANCH   3  15
ATOM     15  N   UNL     1      -1.589   3.695   2.576  0.00  0.00    -0.188 NA
ATOM     16  C   UNL     1      -1.805   4.964   2.739  0.00  0.00    +0.138 C 
BRANCH  16  17
ATOM     17  C   UNL     1      -2.488   5.445   3.954  0.00  0.00    -0.005 A 
ATOM     18  C   UNL     1      -2.908   4.537   4.929  0.00  0.00    +0.011 A 
ATOM     19  C   UNL     1      -3.542   4.994   6.065  0.00  0.00    +0.020 A 
ATOM     20  C   UNL     1      -3.771   6.349   6.236  0.00  0.00    +0.041 A 
ATOM     21  C   UNL     1      -3.361   7.254   5.271  0.00  0.00    +0.020 A 
ATOM     22  C   UNL     1      -2.722   6.811   4.133  0.00  0.00    +0.011 A 
ATOM     23 CL   UNL     1      -4.575   6.916   7.667  0.00  0.00    -0.084 Cl
ENDBRANCH  16  17
ENDBRANCH   3  15
TORSDOF 3
