REMARK  Name = ZINC12659248
REMARK  3 active torsions:
REMARK  status: ('A' for Active; 'I' for Inactive)
REMARK    1  A    between atoms: C_8  and  S_10
REMARK    2  A    between atoms: S_10  and  C_11
REMARK    3  A    between atoms: C_11  and  C_12
REMARK                            x       y       z     vdW  Elec       q    Type
REMARK                         _______ _______ _______ _____ _____    ______ ____
ROOT
ATOM      1  C   UNL     1      -0.013   1.086   0.008  0.00  0.00    +0.133 C 
ENDROOT
BRANCH   1   2
ATOM      2  C   UNL     1      -0.742   1.585  -1.213  0.00  0.00    +0.070 A 
ATOM      3  C   UNL     1      -1.740   0.939  -1.853  0.00  0.00    +0.116 A 
ATOM      4  N   UNL     1      -2.126   1.730  -2.902  0.00  0.00    -0.305 N 
ATOM      5  C   UNL     1      -3.077   1.581  -3.869  0.00  0.00    +0.108 A 
ATOM      6  C   UNL     1      -3.252   2.530  -4.813  0.00  0.00    +0.034 A 
ATOM      7  C   UNL     1      -2.454   3.687  -4.811  0.00  0.00    +0.020 A 
ATOM      8  C   UNL     1      -1.502   3.847  -3.853  0.00  0.00    +0.048 A 
ATOM      9  C   UNL     1      -1.332   2.847  -2.874  0.00  0.00    +0.138 A 
ATOM     10  N   UNL     1      -0.504   2.737  -1.845  0.00  0.00    -0.232 NA
ATOM     11 BR   UNL     1      -4.577   2.303  -6.143  0.00  0.00    -0.049 Br
ENDBRANCH   1   2
BRANCH   1  12
ATOM     12  S   UNL     1      -0.860   1.669   1.497  0.00  0.00    -0.093 S 
BRANCH  12  20
ATOM     13  C   UNL     1       1.907  -0.228   6.997  0.00  0.00    +0.002 A 
ATOM     14  C   UNL     1       2.919  -0.925   6.353  0.00  0.00    +0.001 A 
ATOM     15  C   UNL     1       2.953  -0.948   4.970  0.00  0.00    +0.017 A 
ATOM     16  C   UNL     1       1.986  -0.284   4.258  0.00  0.00    +0.040 A 
ATOM     17  C   UNL     1       0.940   0.436   4.879  0.00  0.00    +0.079 A 
ATOM     18  C   UNL     1       0.938   0.439   6.293  0.00  0.00    +0.029 A 
ATOM     19  N   UNL     1       0.066   1.037   4.043  0.00  0.00    -0.233 NA
ATOM     20  C   UNL     1       0.174   0.961   2.735  0.00  0.00    +0.136 A 
ATOM     21  S   UNL     1       1.633  -0.051   2.533  0.00  0.00    -0.061 S 
ENDBRANCH  12  20
ENDBRANCH   1  12
TORSDOF 3
