REMARK  Name = ZINC62832817
REMARK  6 active torsions:
REMARK  status: ('A' for Active; 'I' for Inactive)
REMARK    1  A    between atoms: C_1  and  C_2
REMARK    2  A    between atoms: C_5  and  C_7
REMARK    3  A    between atoms: C_7  and  C_9
REMARK    4  A    between atoms: C_7  and  N_10
REMARK    5  A    between atoms: C_11  and  C_13
REMARK    6  A    between atoms: C_20  and  N_23
REMARK                            x       y       z     vdW  Elec       q    Type
REMARK                         _______ _______ _______ _____ _____    ______ ____
ROOT
ATOM      1  C   UNL     1       3.701  -5.387  -2.385  0.00  0.00    +0.062 A 
ATOM      2  C   UNL     1       4.532  -4.362  -2.731  0.00  0.00    +0.096 A 
ATOM      3  N   UNL     1       5.489  -4.814  -3.576  0.00  0.00    -0.360 N 
ATOM      4  H   UNL     1       6.194  -4.268  -3.957  0.00  0.00    +0.165 HD
ATOM      5  C   UNL     1       5.320  -6.164  -3.818  0.00  0.00    +0.047 A 
ATOM      6  C   UNL     1       4.201  -6.586  -3.082  0.00  0.00    +0.014 A 
ATOM      7  C   UNL     1       3.793  -7.916  -3.130  0.00  0.00    +0.033 A 
ATOM      8  C   UNL     1       4.500  -8.820  -3.904  0.00  0.00    +0.025 A 
ATOM      9  C   UNL     1       5.612  -8.401  -4.630  0.00  0.00    +0.025 A 
ATOM     10  C   UNL     1       6.015  -7.085  -4.595  0.00  0.00    +0.028 A 
ENDROOT
BRANCH   1  12
ATOM     11  N   UNL     1       2.201  -4.137  -0.921  0.00  0.00    -0.304 N 
ATOM     12  C   UNL     1       2.539  -5.311  -1.489  0.00  0.00    +0.247 C 
ATOM     13  O   UNL     1       1.882  -6.309  -1.259  0.00  0.00    -0.270 OA
ATOM     14  H   UNL     1       2.725  -3.341  -1.103  0.00  0.00    +0.150 HD
BRANCH  11  15
ATOM     15  C   UNL     1       1.043  -4.062  -0.027  0.00  0.00    +0.107 C 
ATOM     16  C   UNL     1       1.465  -4.458   1.389  0.00  0.00    +0.033 C 
BRANCH  15  21
ATOM     17  C   UNL     1      -0.018   1.503   0.010  0.00  0.00    +0.051 C 
ATOM     18  C   UNL     1       0.002  -0.004   0.002  0.00  0.00    -0.013 A 
ATOM     19  C   UNL     1      -1.039  -0.872   0.002  0.00  0.00    +0.011 A 
ATOM     20  C   UNL     1      -0.780  -2.230  -0.007  0.00  0.00    +0.013 A 
ATOM     21  C   UNL     1       0.507  -2.653  -0.016  0.00  0.00    +0.010 A 
ATOM     22  S   UNL     1       1.404  -1.109  -0.018  0.00  0.00    -0.097 S 
ENDBRANCH  15  21
ENDBRANCH  11  15
ENDBRANCH   1  12
BRANCH   8  23
ATOM     23  N   UNL     1       4.096 -10.159  -3.956  0.00  0.00    -0.358 N 
ATOM     24  H   UNL     1       3.322 -10.453  -3.450  0.00  0.00    +0.142 HD
ATOM     25  H   UNL     1       4.590 -10.794  -4.498  0.00  0.00    +0.142 HD
ENDBRANCH   8  23
TORSDOF 4
