REMARK  Name = ZINC33810339
REMARK  12 active torsions:
REMARK  status: ('A' for Active; 'I' for Inactive)
REMARK    1  A    between atoms: C_1  and  C_2
REMARK    2  A    between atoms: C_2  and  C_35
REMARK    3  A    between atoms: C_6  and  C_20
REMARK    4  A    between atoms: C_11  and  S_15
REMARK    5  A    between atoms: S_15  and  C_16
REMARK    6  A    between atoms: C_16  and  C_17
REMARK    7  A    between atoms: C_22  and  O_30
REMARK    8  A    between atoms: C_23  and  O_28
REMARK    9  A    between atoms: C_24  and  O_26
REMARK   10  A    between atoms: O_26  and  C_27
REMARK   11  A    between atoms: O_28  and  C_29
REMARK   12  A    between atoms: O_30  and  C_31
REMARK                            x       y       z     vdW  Elec       q    Type
REMARK                         _______ _______ _______ _____ _____    ______ ____
ROOT
ATOM      1  C   UNL     1       5.839   1.462  -3.126  0.00  0.00    +0.011 C 
ATOM      2  C   UNL     1       6.691   1.730  -1.883  0.00  0.00    -0.023 C 
ATOM      3  C   UNL     1       5.841   2.426  -0.818  0.00  0.00    +0.058 C 
ATOM      4  C   UNL     1       4.696   1.529  -0.418  0.00  0.00    +0.017 C 
ATOM      5  C   UNL     1       4.823   0.185  -0.445  0.00  0.00    +0.024 C 
ATOM      6  C   UNL     1       3.687  -0.710  -0.019  0.00  0.00    +0.093 C 
ATOM      7  C   UNL     1       2.382   0.031  -0.015  0.00  0.00    +0.069 A 
ATOM      8  C   UNL     1       2.350   1.391  -0.011  0.00  0.00    +0.135 A 
ATOM      9  N   UNL     1       1.141   2.034   0.002  0.00  0.00    -0.208 NA
ATOM     10  C   UNL     1      -0.016   1.313   0.009  0.00  0.00    +0.171 A 
ATOM     11  N   UNL     1       0.002  -0.004   0.002  0.00  0.00    -0.302 N 
ATOM     12  C   UNL     1       1.162  -0.679  -0.012  0.00  0.00    +0.258 A 
ATOM     13  O   UNL     1       1.162  -1.901  -0.021  0.00  0.00    -0.267 OA
ATOM     14  N   UNL     1       3.522   2.111  -0.021  0.00  0.00    -0.302 N 
ATOM     15  C   UNL     1       6.019  -0.421  -0.866  0.00  0.00    +0.162 C 
ATOM     16  O   UNL     1       6.103  -1.633  -0.873  0.00  0.00    -0.292 OA
ATOM     17  C   UNL     1       7.197   0.403  -1.310  0.00  0.00    +0.086 C 
ATOM     18  C   UNL     1       7.878   2.620  -2.256  0.00  0.00    +0.011 C 
ATOM     19  H   UNL     1       3.510   3.164   0.295  0.00  0.00    +0.153 HD
ATOM     20  H   UNL     1      -0.943  -0.567   0.007  0.00  0.00    +0.171 HD
ENDROOT
BRANCH   6  21
ATOM     21  C   UNL     1       3.962  -1.232   1.368  0.00  0.00    -0.028 A 
ATOM     22  C   UNL     1       4.080  -0.350   2.425  0.00  0.00    +0.054 A 
ATOM     23  C   UNL     1       4.327  -0.826   3.704  0.00  0.00    +0.165 A 
ATOM     24  C   UNL     1       4.468  -2.192   3.919  0.00  0.00    +0.204 A 
ATOM     25  C   UNL     1       4.354  -3.075   2.852  0.00  0.00    +0.165 A 
ATOM     26  C   UNL     1       4.100  -2.591   1.578  0.00  0.00    +0.054 A 
BRANCH  25  27
ATOM     27  O   UNL     1       4.491  -4.413   3.058  0.00  0.00    -0.491 OA
ATOM     28  C   UNL     1       4.362  -5.261   1.915  0.00  0.00    +0.277 C 
ENDBRANCH  25  27
BRANCH  24  29
ATOM     29  O   UNL     1       4.717  -2.663   5.171  0.00  0.00    -0.488 OA
ATOM     30  C   UNL     1       6.087  -2.792   5.556  0.00  0.00    +0.277 C 
ENDBRANCH  24  29
BRANCH  23  31
ATOM     31  O   UNL     1       4.437   0.042   4.745  0.00  0.00    -0.491 OA
ATOM     32  C   UNL     1       4.281   1.431   4.450  0.00  0.00    +0.277 C 
ENDBRANCH  23  31
ENDBRANCH   6  21
BRANCH  10  33
ATOM     33  S   UNL     1      -1.562   2.157   0.021  0.00  0.00    -0.084 S 
BRANCH  33  34
ATOM     34  C   UNL     1      -2.692   0.744   0.019  0.00  0.00    +0.104 C 
BRANCH  34  35
ATOM     35  C   UNL     1      -4.116   1.238   0.028  0.00  0.00    -0.023 C 
ATOM     36  C   UNL     1      -4.897   1.006  -0.998  0.00  0.00    +0.005 C 
ENDBRANCH  34  35
ENDBRANCH  33  34
ENDBRANCH  10  33
TORSDOF 7
