REMARK  Name = ZINC09548242
REMARK  7 active torsions:
REMARK  status: ('A' for Active; 'I' for Inactive)
REMARK    1  A    between atoms: C_1  and  C_2
REMARK    2  A    between atoms: N_13  and  C_16
REMARK    3  A    between atoms: C_16  and  N_61
REMARK    4  A    between atoms: N_19  and  S_22
REMARK    5  A    between atoms: S_22  and  C_25
REMARK    6  A    between atoms: C_28  and  O_31
REMARK    7  A    between atoms: O_31  and  C_32
REMARK                            x       y       z     vdW  Elec       q    Type
REMARK                         _______ _______ _______ _____ _____    ______ ____
ROOT
ATOM      1  C   UNL     1      -5.336   0.565  -0.213  0.00  0.00    -0.059 C 
ATOM      2  C   UNL     1      -6.155   0.598  -1.508  0.00  0.00    +0.091 C 
ATOM      3  N   UNL     1      -7.555   0.289  -1.183  0.00  0.00    -0.180 NA
ATOM      4  C   UNL     1      -7.836  -0.915  -0.386  0.00  0.00    +0.091 C 
ATOM      5  C   UNL     1      -6.951  -0.888   0.865  0.00  0.00    -0.059 C 
ATOM      6  N   UNL     1      -5.540  -0.744   0.445  0.00  0.00    +0.393 N 
ATOM      7  H   UNL     1      -5.313  -1.490  -0.222  0.00  0.00    -0.079 HD
ENDROOT
BRANCH   3   8
ATOM      8  S   UNL     1      -8.784   1.272  -1.699  0.00  0.00    +0.061 S 
ATOM      9  O   UNL     1      -8.299   1.963  -2.842  0.00  0.00    -0.153 OA
ATOM     10  O   UNL     1      -9.957   0.470  -1.735  0.00  0.00    -0.153 OA
BRANCH   8  11
ATOM     11  C   UNL     1      -9.042   2.486  -0.449  0.00  0.00    +0.106 A 
ATOM     12  C   UNL     1      -9.945   2.246   0.571  0.00  0.00    +0.032 A 
ATOM     13  C   UNL     1     -10.144   3.194   1.556  0.00  0.00    +0.047 A 
ATOM     14  C   UNL     1      -9.446   4.392   1.515  0.00  0.00    +0.120 A 
ATOM     15  C   UNL     1      -8.545   4.633   0.488  0.00  0.00    +0.047 A 
ATOM     16  C   UNL     1      -8.345   3.679  -0.491  0.00  0.00    +0.032 A 
BRANCH  14  17
ATOM     17  O   UNL     1      -9.645   5.328   2.480  0.00  0.00    -0.495 OA
ATOM     18  C   UNL     1     -10.587   5.012   3.506  0.00  0.00    +0.277 C 
ENDBRANCH  14  17
ENDBRANCH   8  11
ENDBRANCH   3   8
BRANCH   6  19
ATOM     19  C   UNL     1      -4.650  -0.862   1.619  0.00  0.00    +0.051 C 
BRANCH  19  31
ATOM     20  C   UNL     1       3.546   2.093  -1.322  0.00  0.00    +0.008 C 
ATOM     21  C   UNL     1       2.194   1.398  -1.157  0.00  0.00    -0.009 C 
ATOM     22  C   UNL     1       1.421   2.037  -0.001  0.00  0.00    +0.008 C 
ATOM     23  C   UNL     1      -0.019   1.522   0.010  0.00  0.00    +0.037 C 
ATOM     24  C   UNL     1       0.002  -0.004   0.002  0.00  0.00    -0.023 A 
ATOM     25  C   UNL     1       1.113  -0.674  -0.386  0.00  0.00    -0.004 A 
ATOM     26  S   UNL     1       0.692  -2.393  -0.240  0.00  0.00    -0.073 S 
ATOM     27  C   UNL     1      -0.965  -2.210   0.338  0.00  0.00    +0.116 A 
ATOM     28  C   UNL     1      -1.139  -0.809   0.399  0.00  0.00    +0.075 A 
ATOM     29  C   UNL     1      -2.417  -0.330   0.843  0.00  0.00    +0.261 A 
ATOM     30  O   UNL     1      -2.669   0.859   0.931  0.00  0.00    -0.267 OA
ATOM     31  N   UNL     1      -3.325  -1.284   1.159  0.00  0.00    -0.316 N 
ATOM     32  C   UNL     1      -3.065  -2.611   1.068  0.00  0.00    +0.201 A 
ATOM     33  N   UNL     1      -1.908  -3.088   0.665  0.00  0.00    -0.230 NA
ATOM     34  C   UNL     1       2.414  -0.088  -0.839  0.00  0.00    +0.046 C 
ENDBRANCH  19  31
ENDBRANCH   6  19
TORSDOF 5
