REMARK  Name = ZINC01022610
REMARK  7 active torsions:
REMARK  status: ('A' for Active; 'I' for Inactive)
REMARK    1  A    between atoms: C_1  and  C_2
REMARK    2  A    between atoms: C_2  and  C_32
REMARK    3  A    between atoms: C_6  and  C_23
REMARK    4  A    between atoms: C_8  and  C_21
REMARK    5  A    between atoms: C_9  and  N_20
REMARK    6  A    between atoms: N_10  and  C_11
REMARK    7  A    between atoms: C_15  and  N_17
REMARK                            x       y       z     vdW  Elec       q    Type
REMARK                         _______ _______ _______ _____ _____    ______ ____
ROOT
ATOM      1  C   UNL     1       3.279   5.563   2.064  0.00  0.00    +0.011 C 
ATOM      2  C   UNL     1       3.545   5.815   0.579  0.00  0.00    -0.023 C 
ATOM      3  C   UNL     1       2.393   5.248  -0.254  0.00  0.00    +0.058 C 
ATOM      4  C   UNL     1       1.108   5.946   0.117  0.00  0.00    +0.025 C 
ATOM      5  C   UNL     1       1.112   7.230   0.530  0.00  0.00    +0.025 C 
ATOM      6  C   UNL     1      -0.172   7.928   0.901  0.00  0.00    +0.097 C 
ATOM      7  C   UNL     1      -1.364   7.200   0.350  0.00  0.00    +0.077 C 
ATOM      8  C   UNL     1      -1.270   5.909  -0.061  0.00  0.00    +0.107 C 
ATOM      9  N   UNL     1      -0.066   5.247   0.015  0.00  0.00    -0.260 N 
ATOM     10  C   UNL     1       2.312   7.955   0.634  0.00  0.00    +0.162 C 
ATOM     11  O   UNL     1       2.279   9.113   1.000  0.00  0.00    -0.292 OA
ATOM     12  C   UNL     1       3.635   7.323   0.320  0.00  0.00    +0.086 C 
ATOM     13  C   UNL     1       4.856   5.140   0.170  0.00  0.00    +0.011 C 
ENDROOT
BRANCH   9  14
ATOM     14  C   UNL     1      -0.040   3.847  -0.006  0.00  0.00    +0.042 A 
ATOM     15  C   UNL     1       0.046   3.171  -1.217  0.00  0.00    +0.024 A 
ATOM     16  C   UNL     1       0.071   1.791  -1.235  0.00  0.00    +0.004 A 
ATOM     17  C   UNL     1       0.010   1.081  -0.049  0.00  0.00    +0.033 A 
ATOM     18  C   UNL     1      -0.081   1.751   1.157  0.00  0.00    +0.128 A 
ATOM     19  C   UNL     1      -0.101   3.132   1.182  0.00  0.00    +0.056 A 
BRANCH  18  20
ATOM     20  N   UNL     1      -0.152   0.987   2.423  0.00  0.00    +0.056 N 
ATOM     21  O   UNL     1      -0.130  -0.230   2.402  0.00  0.00    -0.126 OA
ATOM     22  O   UNL     1      -0.233   1.577   3.486  0.00  0.00    -0.126 OA
ENDBRANCH  18  20
ENDBRANCH   9  14
BRANCH   6  23
ATOM     23  C   UNL     1      -0.283   7.991   2.402  0.00  0.00    -0.035 A 
ATOM     24  C   UNL     1      -0.344   6.824   3.141  0.00  0.00    +0.004 A 
ATOM     25  C   UNL     1      -0.441   6.881   4.519  0.00  0.00    +0.000 A 
ATOM     26  C   UNL     1      -0.486   8.107   5.157  0.00  0.00    +0.000 A 
ATOM     27  C   UNL     1      -0.429   9.274   4.419  0.00  0.00    +0.000 A 
ATOM     28  C   UNL     1      -0.328   9.216   3.041  0.00  0.00    +0.004 A 
ENDBRANCH   6  23
BRANCH   8  29
ATOM     29  N   UNL     1      -2.379   5.264  -0.553  0.00  0.00    -0.345 N 
ATOM     30  H   UNL     1      -2.334   4.319  -0.769  0.00  0.00    +0.144 HD
ATOM     31  H   UNL     1      -3.206   5.753  -0.685  0.00  0.00    +0.144 HD
ENDBRANCH   8  29
BRANCH   7  32
ATOM     32  C   UNL     1      -2.621   7.880   0.256  0.00  0.00    +0.099 C 
ATOM     33  N   UNL     1      -3.618   8.418   0.182  0.00  0.00    -0.191 NA
ENDBRANCH   7  32
TORSDOF 5
