REMARK  Name = ZINC20848852
REMARK  9 active torsions:
REMARK  status: ('A' for Active; 'I' for Inactive)
REMARK    1  A    between atoms: C_1  and  C_2
REMARK    2  A    between atoms: C_5  and  C_31
REMARK    3  A    between atoms: C_6  and  S_8
REMARK    4  A    between atoms: S_8  and  C_11
REMARK    5  A    between atoms: C_11  and  C_12
REMARK    6  A    between atoms: C_13  and  C_27
REMARK    7  A    between atoms: C_14  and  C_20
REMARK    8  A    between atoms: C_27  and  O_29
REMARK    9  A    between atoms: O_29  and  C_30
REMARK                            x       y       z     vdW  Elec       q    Type
REMARK                         _______ _______ _______ _____ _____    ______ ____
ROOT
ATOM      1  C   UNL     1       0.880  -0.445  -0.370  0.00  0.00    +0.045 C 
ATOM      2  C   UNL     1       2.137   0.048  -0.405  0.00  0.00    +0.080 C 
ATOM      3  C   UNL     1       2.344   1.483   0.034  0.00  0.00    +0.145 C 
ATOM      4  N   UNL     1       1.149   2.228   0.467  0.00  0.00    -0.288 N 
ATOM      5  C   UNL     1      -0.042   1.597   0.446  0.00  0.00    +0.304 C 
ATOM      6  O   UNL     1      -1.034   2.205   0.796  0.00  0.00    -0.252 OA
ATOM      7  N   UNL     1      -0.168   0.325   0.048  0.00  0.00    -0.271 N 
ATOM      8  H   UNL     1       1.242   3.273   0.796  0.00  0.00    +0.151 HD
ATOM      9  H   UNL     1      -1.184  -0.094   0.070  0.00  0.00    +0.156 HD
ENDROOT
BRANCH   3  10
ATOM     10  C   UNL     1       2.969   2.235  -1.113  0.00  0.00    -0.004 A 
ATOM     11  C   UNL     1       2.167   2.893  -2.026  0.00  0.00    +0.007 A 
ATOM     12  C   UNL     1       2.739   3.582  -3.079  0.00  0.00    +0.000 A 
ATOM     13  C   UNL     1       4.114   3.614  -3.219  0.00  0.00    +0.001 A 
ATOM     14  C   UNL     1       4.917   2.956  -2.306  0.00  0.00    +0.020 A 
ATOM     15  C   UNL     1       4.345   2.270  -1.249  0.00  0.00    +0.046 A 
ATOM     16 CL   UNL     1       5.353   1.450  -0.099  0.00  0.00    -0.083 Cl
ENDBRANCH   3  10
BRANCH   2  17
ATOM     17  C   UNL     1       3.223  -0.749  -0.837  0.00  0.00    +0.339 C 
ATOM     18  O   UNL     1       3.953  -1.277  -0.020  0.00  0.00    -0.245 OA
BRANCH  17  19
ATOM     19  O   UNL     1       3.449  -0.923  -2.156  0.00  0.00    -0.465 OA
ATOM     20  C   UNL     1       4.563  -1.740  -2.521  0.00  0.00    +0.280 C 
ENDBRANCH  17  19
ENDBRANCH   2  17
BRANCH   1  21
ATOM     21  C   UNL     1       0.629  -1.868  -0.798  0.00  0.00    +0.223 C 
BRANCH  21  22
ATOM     22  S   UNL     1       0.342  -2.899   0.666  0.00  0.00    +0.002 S 
ATOM     23  O   UNL     1       1.535  -3.007   1.431  0.00  0.00    -0.169 OA
ATOM     24  O   UNL     1      -0.885  -2.538   1.286  0.00  0.00    -0.169 OA
BRANCH  22  30
ATOM     25  C   UNL     1       1.714  -7.914   0.133  0.00  0.00    +0.044 C 
ATOM     26  C   UNL     1       0.741  -6.807  -0.179  0.00  0.00    -0.049 A 
ATOM     27  C   UNL     1      -0.369  -7.062  -0.962  0.00  0.00    +0.004 A 
ATOM     28  C   UNL     1      -1.262  -6.046  -1.248  0.00  0.00    +0.005 A 
ATOM     29  C   UNL     1      -1.048  -4.776  -0.746  0.00  0.00    -0.026 A 
ATOM     30  C   UNL     1       0.065  -4.519   0.032  0.00  0.00    +0.092 A 
ATOM     31  C   UNL     1       0.958  -5.535   0.318  0.00  0.00    +0.030 A 
ATOM     32  C   UNL     1      -2.024  -3.670  -1.053  0.00  0.00    +0.046 C 
ENDBRANCH  22  30
ENDBRANCH  21  22
ENDBRANCH   1  21
TORSDOF 6
