REMARK  Name = ZINC12711064
REMARK  8 active torsions:
REMARK  status: ('A' for Active; 'I' for Inactive)
REMARK    1  A    between atoms: C_3  and  C_6
REMARK    2  A    between atoms: C_6  and  C_8
REMARK    3  A    between atoms: C_6  and  N_16
REMARK    4  A    between atoms: N_10  and  C_11
REMARK    5  A    between atoms: N_16  and  C_17
REMARK    6  A    between atoms: C_26  and  C_28
REMARK    7  A    between atoms: C_29  and  N_36
REMARK    8  A    between atoms: C_30  and  C_33
REMARK                            x       y       z     vdW  Elec       q    Type
REMARK                         _______ _______ _______ _____ _____    ______ ____
ROOT
ATOM      1  N   UNL     1      -1.684  -2.991   1.402  0.00  0.00    -0.250 N 
ATOM      2  C   UNL     1      -1.469  -2.610   2.676  0.00  0.00    +0.262 C 
ATOM      3  O   UNL     1      -0.378  -2.183   3.008  0.00  0.00    -0.269 OA
ENDROOT
BRANCH   1   4
ATOM      4  C   UNL     1      -2.968  -3.371   0.992  0.00  0.00    +0.041 A 
ATOM      5  C   UNL     1      -3.305  -4.717   0.923  0.00  0.00    +0.027 A 
ATOM      6  C   UNL     1      -4.571  -5.094   0.518  0.00  0.00    +0.051 A 
ATOM      7  C   UNL     1      -5.508  -4.131   0.181  0.00  0.00    +0.166 A 
ATOM      8  C   UNL     1      -5.174  -2.781   0.250  0.00  0.00    +0.168 A 
ATOM      9  C   UNL     1      -3.906  -2.404   0.660  0.00  0.00    +0.073 A 
ATOM     10  O   UNL     1      -6.259  -2.043  -0.128  0.00  0.00    -0.453 OA
ATOM     11  C   UNL     1      -7.383  -2.937  -0.035  0.00  0.00    +0.466 C 
ATOM     12  O   UNL     1      -6.803  -4.239  -0.240  0.00  0.00    -0.453 OA
ENDBRANCH   1   4
BRANCH   2  13
ATOM     13  C   UNL     1      -2.547  -2.708   3.662  0.00  0.00    +0.116 A 
ATOM     14  C   UNL     1      -2.532  -2.400   5.024  0.00  0.00    +0.076 A 
ATOM     15  C   UNL     1      -3.766  -2.623   5.635  0.00  0.00    +0.155 A 
ATOM     16  N   UNL     1      -4.766  -3.085   4.917  0.00  0.00    -0.203 NA
ATOM     17  S   UNL     1      -4.227  -3.259   3.446  0.00  0.00    +0.019 S 
BRANCH  15  18
ATOM     18  C   UNL     1      -3.945  -2.351   7.073  0.00  0.00    +0.262 C 
ATOM     19  O   UNL     1      -3.016  -1.924   7.731  0.00  0.00    -0.269 OA
ATOM     20  N   UNL     1      -5.139  -2.574   7.658  0.00  0.00    -0.324 N 
ATOM     21  H   UNL     1      -5.880  -2.915   7.133  0.00  0.00    +0.145 HD
ATOM     22  H   UNL     1      -5.256  -2.395   8.604  0.00  0.00    +0.145 HD
ENDBRANCH  15  18
BRANCH  14  23
ATOM     23  N   UNL     1      -1.414  -1.922   5.694  0.00  0.00    -0.355 N 
ATOM     24  H   UNL     1      -0.583  -1.784   5.214  0.00  0.00    +0.142 HD
ATOM     25  H   UNL     1      -1.465  -1.726   6.643  0.00  0.00    +0.142 HD
ENDBRANCH  14  23
ENDBRANCH   2  13
BRANCH   1  26
ATOM     26  C   UNL     1      -0.575  -3.007   0.445  0.00  0.00    +0.204 C 
BRANCH  26  29
ATOM     27  C   UNL     1       0.361  -6.470  -0.836  0.00  0.00    +0.008 A 
ATOM     28  C   UNL     1       0.507  -5.277  -0.155  0.00  0.00    +0.013 A 
ATOM     29  C   UNL     1      -0.494  -4.363  -0.207  0.00  0.00    +0.019 A 
ATOM     30  S   UNL     1      -1.686  -5.181  -1.254  0.00  0.00    -0.099 S 
ATOM     31  C   UNL     1      -0.774  -6.688  -1.545  0.00  0.00    +0.045 A 
ENDBRANCH  26  29
BRANCH  26  32
ATOM     32  C   UNL     1      -0.807  -1.956  -0.610  0.00  0.00    +0.239 C 
ATOM     33  O   UNL     1      -1.824  -1.296  -0.596  0.00  0.00    -0.273 OA
ATOM     34  N   UNL     1       0.117  -1.750  -1.570  0.00  0.00    -0.311 N 
ATOM     35  H   UNL     1       0.931  -2.278  -1.581  0.00  0.00    +0.149 HD
BRANCH  34  36
ATOM     36  C   UNL     1      -0.108  -0.728  -2.596  0.00  0.00    +0.073 C 
ATOM     37  C   UNL     1      -0.888  -1.332  -3.781  0.00  0.00    +0.022 C 
ATOM     38  C   UNL     1      -0.274  -0.649  -5.028  0.00  0.00    +0.002 C 
ATOM     39  C   UNL     1       1.230  -0.566  -4.667  0.00  0.00    +0.002 C 
ATOM     40  C   UNL     1       1.239  -0.241  -3.159  0.00  0.00    +0.022 C 
ENDBRANCH  34  36
ENDBRANCH  26  32
ENDBRANCH   1  26
TORSDOF 8
