REMARK  Name = ZINC28296918
REMARK  6 active torsions:
REMARK  status: ('A' for Active; 'I' for Inactive)
REMARK    1  A    between atoms: C_3  and  C_6
REMARK    2  A    between atoms: N_10  and  C_14
REMARK    3  A    between atoms: C_14  and  C_15
REMARK    4  A    between atoms: C_15  and  C_16
REMARK    5  A    between atoms: C_16  and  C_17
REMARK    6  A    between atoms: C_24  and  C_26
REMARK                            x       y       z     vdW  Elec       q    Type
REMARK                         _______ _______ _______ _____ _____    ______ ____
ROOT
ATOM      1  C   UNL     1       1.925  -3.203  -0.181  0.00  0.00    +0.115 C 
ENDROOT
BRANCH   1   6
ATOM      2  C   UNL     1      -0.119   1.313   0.055  0.00  0.00    +0.066 C 
ATOM      3  C   UNL     1      -0.082  -0.050   0.038  0.00  0.00    +0.080 C 
ATOM      4  C   UNL     1       1.074  -0.955  -0.080  0.00  0.00    +0.258 C 
ATOM      5  O   UNL     1       2.210  -0.530  -0.184  0.00  0.00    -0.269 OA
ATOM      6  N   UNL     1       0.816  -2.252  -0.067  0.00  0.00    -0.255 N 
ATOM      7  C   UNL     1      -0.444  -2.719   0.049  0.00  0.00    +0.121 C 
ATOM      8  S   UNL     1      -0.977  -4.345   0.086  0.00  0.00    -0.027 S 
ATOM      9  S   UNL     1      -1.420  -1.228   0.162  0.00  0.00    -0.061 S 
BRANCH   2  12
ATOM     10  C   UNL     1       2.568   3.718   0.165  0.00  0.00    +0.042 A 
ATOM     11  C   UNL     1       1.196   3.425   0.191  0.00  0.00    +0.049 A 
ATOM     12  C   UNL     1       1.085   2.054   0.074  0.00  0.00    +0.129 A 
ATOM     13  O   UNL     1       2.332   1.546  -0.014  0.00  0.00    -0.463 OA
ATOM     14  C   UNL     1       3.225   2.545   0.036  0.00  0.00    +0.195 A 
ENDBRANCH   2  12
ENDBRANCH   1   6
BRANCH   1  15
ATOM     15  C   UNL     1       2.447  -3.548   1.215  0.00  0.00    +0.029 C 
BRANCH  15  16
ATOM     16  C   UNL     1       3.604  -4.541   1.096  0.00  0.00    +0.097 C 
BRANCH  16  17
ATOM     17  C   UNL     1       4.119  -4.880   2.471  0.00  0.00    +0.216 C 
ATOM     18  O   UNL     1       3.610  -4.377   3.450  0.00  0.00    -0.276 OA
ATOM     19  N   UNL     1       5.145  -5.743   2.613  0.00  0.00    -0.288 N 
ATOM     20  C   UNL     1       5.817  -6.306   1.435  0.00  0.00    +0.108 C 
ATOM     21  C   UNL     1       7.326  -6.042   1.560  0.00  0.00    +0.019 C 
ATOM     22  C   UNL     1       7.826  -6.599   2.895  0.00  0.00    +0.004 C 
ATOM     23  C   UNL     1       7.114  -5.885   4.047  0.00  0.00    +0.034 C 
ATOM     24  C   UNL     1       5.607  -6.142   3.949  0.00  0.00    +0.189 C 
BRANCH  24  25
ATOM     25  C   UNL     1       4.887  -5.332   4.996  0.00  0.00    +0.376 C 
ATOM     26  O   UNL     1       5.071  -4.140   5.070  0.00  0.00    -0.244 OA
ATOM     27  O   UNL     1       4.042  -5.935   5.847  0.00  0.00    -0.244 OA
ENDBRANCH  24  25
ENDBRANCH  16  17
ENDBRANCH  15  16
ENDBRANCH   1  15
TORSDOF 6
