REMARK  Name = ZINC04593801
REMARK  9 active torsions:
REMARK  status: ('A' for Active; 'I' for Inactive)
REMARK    1  A    between atoms: C_4  and  C_7
REMARK    2  A    between atoms: C_8  and  S_9
REMARK    3  A    between atoms: S_9  and  N_12
REMARK    4  A    between atoms: N_12  and  C_13
REMARK    5  A    between atoms: C_17  and  C_19
REMARK    6  A    between atoms: C_19  and  O_21
REMARK    7  A    between atoms: O_21  and  C_22
REMARK    8  A    between atoms: C_22  and  C_23
REMARK    9  A    between atoms: N_25  and  C_26
REMARK                            x       y       z     vdW  Elec       q    Type
REMARK                         _______ _______ _______ _____ _____    ______ ____
ROOT
ATOM      1  C   UNL     1       8.165   9.481  -0.882  0.00  0.00    +0.049 A 
ATOM      2  C   UNL     1       7.874   9.956   0.392  0.00  0.00    +0.024 A 
ATOM      3  C   UNL     1       7.038   9.239   1.228  0.00  0.00    +0.003 A 
ATOM      4  C   UNL     1       6.484   8.049   0.801  0.00  0.00    +0.015 A 
ATOM      5  C   UNL     1       6.774   7.560  -0.474  0.00  0.00    +0.061 A 
ATOM      6  C   UNL     1       7.617   8.285  -1.318  0.00  0.00    +0.039 A 
ENDROOT
BRANCH   1   7
ATOM      7  N   UNL     1       9.009  10.211  -1.723  0.00  0.00    -0.217 N 
ATOM      8  H   UNL     1       9.717   9.759  -2.210  0.00  0.00    +0.174 HD
BRANCH   7   9
ATOM      9  S   UNL     1       8.802  11.845  -1.889  0.00  0.00    +0.066 S 
ATOM     10  O   UNL     1       8.792  12.389  -0.576  0.00  0.00    -0.151 OA
ATOM     11  O   UNL     1       9.723  12.272  -2.883  0.00  0.00    -0.151 OA
BRANCH   9  13
ATOM     12  C   UNL     1       6.267  12.723  -1.832  0.00  0.00    +0.028 C 
ATOM     13  C   UNL     1       7.190  12.101  -2.553  0.00  0.00    +0.157 C 
BRANCH  12  17
ATOM     14  C   UNL     1       2.382  13.341  -3.432  0.00  0.00    +0.000 A 
ATOM     15  C   UNL     1       2.681  13.789  -2.158  0.00  0.00    +0.001 A 
ATOM     16  C   UNL     1       3.942  13.592  -1.632  0.00  0.00    +0.008 A 
ATOM     17  C   UNL     1       4.915  12.938  -2.389  0.00  0.00    -0.024 A 
ATOM     18  C   UNL     1       4.608  12.492  -3.675  0.00  0.00    +0.008 A 
ATOM     19  C   UNL     1       3.342  12.691  -4.186  0.00  0.00    +0.001 A 
ENDBRANCH  12  17
ENDBRANCH   9  13
ENDBRANCH   7   9
ENDBRANCH   1   7
BRANCH   5  20
ATOM     20  C   UNL     1       6.186   6.284  -0.931  0.00  0.00    +0.340 C 
ATOM     21  O   UNL     1       6.436   5.864  -2.043  0.00  0.00    -0.245 OA
BRANCH  20  22
ATOM     22  O   UNL     1       5.373   5.587  -0.114  0.00  0.00    -0.452 OA
BRANCH  22  23
ATOM     23  C   UNL     1       4.831   4.342  -0.629  0.00  0.00    +0.328 C 
BRANCH  23  24
ATOM     24  C   UNL     1       3.951   3.707   0.416  0.00  0.00    +0.251 C 
ATOM     25  O   UNL     1       3.795   4.250   1.489  0.00  0.00    -0.272 OA
ATOM     26  N   UNL     1       3.337   2.535   0.158  0.00  0.00    -0.306 N 
ATOM     27  H   UNL     1       3.461   2.101  -0.701  0.00  0.00    +0.149 HD
BRANCH  26  28
ATOM     28  C   UNL     1       2.481   1.917   1.174  0.00  0.00    +0.104 C 
ATOM     29  C   UNL     1       2.421   0.410   0.933  0.00  0.00    +0.027 C 
ATOM     30  C   UNL     1       1.358  -0.186   1.863  0.00  0.00    +0.007 C 
ATOM     31  C   UNL     1      -0.017   0.271   1.379  0.00  0.00    +0.035 C 
ATOM     32  C   UNL     1      -0.044   1.766   1.195  0.00  0.00    -0.042 A 
ATOM     33  C   UNL     1       1.103   2.522   1.097  0.00  0.00    -0.024 A 
ATOM     34  C   UNL     1       1.009   3.896   0.923  0.00  0.00    +0.006 A 
ATOM     35  C   UNL     1      -0.225   4.510   0.851  0.00  0.00    +0.000 A 
ATOM     36  C   UNL     1      -1.376   3.752   0.953  0.00  0.00    +0.000 A 
ATOM     37  C   UNL     1      -1.284   2.386   1.119  0.00  0.00    +0.004 A 
ENDBRANCH  26  28
ENDBRANCH  23  24
ENDBRANCH  22  23
ENDBRANCH  20  22
ENDBRANCH   5  20
TORSDOF 9
