REMARK  Name = ZINC05720552
REMARK  6 active torsions:
REMARK  status: ('A' for Active; 'I' for Inactive)
REMARK    1  A    between atoms: C_1  and  O_2
REMARK    2  A    between atoms: O_2  and  C_3
REMARK    3  A    between atoms: C_6  and  S_9
REMARK    4  A    between atoms: S_9  and  N_12
REMARK    5  A    between atoms: N_12  and  N_13
REMARK    6  A    between atoms: C_14  and  C_16
REMARK                            x       y       z     vdW  Elec       q    Type
REMARK                         _______ _______ _______ _____ _____    ______ ____
ROOT
ATOM      1  N   UNL     1       2.257  -2.535  -2.463  0.00  0.00    -0.227 N 
ATOM      2  C   UNL     1       2.955  -3.466  -3.143  0.00  0.00    +0.265 C 
ATOM      3  O   UNL     1       2.683  -4.646  -3.012  0.00  0.00    -0.268 OA
ATOM      4  H   UNL     1       2.473  -1.595  -2.568  0.00  0.00    +0.171 HD
ENDROOT
BRANCH   2   5
ATOM      5  C   UNL     1       4.040  -3.060  -4.038  0.00  0.00    +0.076 A 
ATOM      6  C   UNL     1       4.873  -3.853  -4.814  0.00  0.00    +0.025 A 
ATOM      7  C   UNL     1       5.837  -3.263  -5.596  0.00  0.00    -0.032 A 
ATOM      8  C   UNL     1       5.905  -1.867  -5.546  0.00  0.00    +0.023 A 
ATOM      9  S   UNL     1       4.636  -1.415  -4.407  0.00  0.00    -0.083 S 
ATOM     10  C   UNL     1       6.868  -1.078  -6.306  0.00  0.00    -0.008 A 
ATOM     11  C   UNL     1       7.120   0.265  -6.056  0.00  0.00    +0.009 A 
ATOM     12  C   UNL     1       8.068   0.935  -6.803  0.00  0.00    +0.001 A 
ATOM     13  C   UNL     1       8.757   0.271  -7.803  0.00  0.00    +0.000 A 
ATOM     14  C   UNL     1       8.489  -1.058  -8.077  0.00  0.00    +0.004 A 
ATOM     15  C   UNL     1       7.533  -1.738  -7.352  0.00  0.00    -0.039 A 
ATOM     16  C   UNL     1       7.168  -3.153  -7.704  0.00  0.00    +0.040 C 
ATOM     17  C   UNL     1       6.826  -4.003  -6.487  0.00  0.00    +0.041 C 
ENDBRANCH   2   5
BRANCH   1  18
ATOM     18  N   UNL     1       1.219  -2.924  -1.607  0.00  0.00    -0.108 NA
ATOM     19  H   UNL     1       0.494  -3.475  -1.942  0.00  0.00    +0.172 HD
BRANCH  18  20
ATOM     20  S   UNL     1       1.228  -2.442  -0.022  0.00  0.00    +0.074 S 
ATOM     21  O   UNL     1       2.484  -2.836   0.514  0.00  0.00    -0.152 OA
ATOM     22  O   UNL     1      -0.007  -2.865   0.539  0.00  0.00    -0.152 OA
BRANCH  20  26
ATOM     23  C   UNL     1       1.176   2.086   0.002  0.00  0.00    +0.120 A 
ATOM     24  C   UNL     1      -0.017   1.377   0.010  0.00  0.00    +0.047 A 
ATOM     25  C   UNL     1       0.002  -0.004   0.002  0.00  0.00    +0.032 A 
ATOM     26  C   UNL     1       1.208  -0.680  -0.013  0.00  0.00    +0.107 A 
ATOM     27  C   UNL     1       2.398   0.024  -0.021  0.00  0.00    +0.032 A 
ATOM     28  C   UNL     1       2.385   1.405  -0.013  0.00  0.00    +0.047 A 
BRANCH  23  30
ATOM     29  C   UNL     1       2.426   4.108   0.001  0.00  0.00    +0.277 C 
ATOM     30  O   UNL     1       1.160   3.445   0.009  0.00  0.00    -0.495 OA
ENDBRANCH  23  30
ENDBRANCH  20  26
ENDBRANCH  18  20
ENDBRANCH   1  18
TORSDOF 5
