REMARK  Name = ZINC39328011
REMARK  15 active torsions:
REMARK  status: ('A' for Active; 'I' for Inactive)
REMARK    1  A    between atoms: C_1  and  C_2
REMARK    2  A    between atoms: C_2  and  O_3
REMARK    3  A    between atoms: O_3  and  C_4
REMARK    4  A    between atoms: C_4  and  C_6
REMARK    5  A    between atoms: C_7  and  C_25
REMARK    6  A    between atoms: C_9  and  N_24
REMARK    7  A    between atoms: C_10  and  C_22
REMARK    8  A    between atoms: C_11  and  C_13
REMARK    9  A    between atoms: C_16  and  C_19
REMARK   10  A    between atoms: C_19  and  C_20
REMARK   11  A    between atoms: C_19  and  C_21
REMARK   12  A    between atoms: C_25  and  S_26
REMARK   13  A    between atoms: S_26  and  C_27
REMARK   14  A    between atoms: C_28  and  C_38
REMARK   15  A    between atoms: N_35  and  C_37
REMARK                            x       y       z     vdW  Elec       q    Type
REMARK                         _______ _______ _______ _____ _____    ______ ____
ROOT
ATOM      1  C   UNL     1       1.569  -2.364   2.372  0.00  0.00    +0.088 C 
ATOM      2  C   UNL     1       1.492  -3.680   2.611  0.00  0.00    +0.128 C 
ATOM      3  O   UNL     1       2.018  -4.233   3.715  0.00  0.00    -0.444 OA
ATOM      4  C   UNL     1       2.304  -3.462   4.780  0.00  0.00    +0.198 C 
ATOM      5  C   UNL     1       2.430  -2.117   4.667  0.00  0.00    +0.098 C 
ATOM      6  C   UNL     1       2.260  -1.437   3.334  0.00  0.00    +0.105 C 
ENDROOT
BRANCH   6   7
ATOM      7  C   UNL     1       3.611  -1.060   2.783  0.00  0.00    -0.034 A 
ATOM      8  C   UNL     1       4.549  -2.041   2.523  0.00  0.00    +0.005 A 
ATOM      9  C   UNL     1       5.789  -1.695   2.017  0.00  0.00    +0.004 A 
ATOM     10  C   UNL     1       6.089  -0.368   1.772  0.00  0.00    -0.045 A 
ATOM     11  C   UNL     1       5.150   0.612   2.031  0.00  0.00    +0.004 A 
ATOM     12  C   UNL     1       3.909   0.266   2.533  0.00  0.00    +0.005 A 
BRANCH  10  13
ATOM     13  C   UNL     1       7.440   0.009   1.221  0.00  0.00    +0.013 C 
ATOM     14  C   UNL     1       7.264   0.716  -0.124  0.00  0.00    +0.012 C 
ATOM     15  C   UNL     1       8.147   0.947   2.202  0.00  0.00    +0.012 C 
ENDBRANCH  10  13
ENDBRANCH   6   7
BRANCH   4  16
ATOM     16  N   UNL     1       2.472  -4.051   6.009  0.00  0.00    -0.328 N 
ATOM     17  H   UNL     1       2.384  -5.012   6.102  0.00  0.00    +0.145 HD
ATOM     18  H   UNL     1       2.678  -3.505   6.784  0.00  0.00    +0.145 HD
ENDBRANCH   4  16
BRANCH   1  19
ATOM     19  C   UNL     1       0.995  -1.837   1.190  0.00  0.00    +0.339 C 
ATOM     20  O   UNL     1      -0.088  -1.284   1.233  0.00  0.00    -0.245 OA
BRANCH  19  21
ATOM     21  O   UNL     1       1.648  -1.949   0.015  0.00  0.00    -0.462 OA
BRANCH  21  23
ATOM     22  C   UNL     1       1.894  -1.616  -2.366  0.00  0.00    +0.048 C 
ATOM     23  C   UNL     1       1.010  -1.395  -1.138  0.00  0.00    +0.229 C 
ENDBRANCH  21  23
ENDBRANCH  19  21
ENDBRANCH   1  19
BRANCH   5  24
ATOM     24  C   UNL     1       2.734  -1.335   5.828  0.00  0.00    +0.101 C 
ATOM     25  N   UNL     1       2.974  -0.715   6.749  0.00  0.00    -0.191 NA
ENDBRANCH   5  24
BRANCH   2  26
ATOM     26  C   UNL     1       0.793  -4.565   1.612  0.00  0.00    +0.150 C 
BRANCH  26  27
ATOM     27  S   UNL     1       2.027  -5.492   0.658  0.00  0.00    -0.097 S 
BRANCH  27  28
ATOM     28  C   UNL     1       1.065  -6.466  -0.451  0.00  0.00    +0.115 A 
ATOM     29  C   UNL     1       1.703  -7.332  -1.358  0.00  0.00    +0.084 A 
ATOM     30  C   UNL     1       0.912  -8.088  -2.227  0.00  0.00    +0.028 A 
ATOM     31  C   UNL     1      -0.468  -7.957  -2.158  0.00  0.00    -0.011 A 
ATOM     32  C   UNL     1      -1.024  -7.091  -1.240  0.00  0.00    +0.048 A 
ATOM     33  N   UNL     1      -0.254  -6.385  -0.425  0.00  0.00    -0.244 NA
ATOM     34  C   UNL     1      -2.519  -6.926  -1.122  0.00  0.00    +0.071 C 
ATOM     35  C   UNL     1      -3.205  -7.473  -2.373  0.00  0.00    +0.090 C 
ATOM     36  N   UNL     1      -2.699  -8.831  -2.630  0.00  0.00    -0.301 NA
ATOM     37  C   UNL     1      -1.312  -8.773  -3.102  0.00  0.00    +0.121 C 
ATOM     38  C   UNL     1      -3.553  -9.538  -3.593  0.00  0.00    +0.105 C 
BRANCH  29  39
ATOM     39  C   UNL     1       3.131  -7.435  -1.390  0.00  0.00    +0.102 C 
ATOM     40  N   UNL     1       4.264  -7.516  -1.416  0.00  0.00    -0.191 NA
ENDBRANCH  29  39
ENDBRANCH  27  28
ENDBRANCH  26  27
ENDBRANCH   2  26
TORSDOF 11
