REMARK  Name = ZINC37374366
REMARK  5 active torsions:
REMARK  status: ('A' for Active; 'I' for Inactive)
REMARK    1  A    between atoms: C_1  and  O_2
REMARK    2  A    between atoms: O_2  and  C_3
REMARK    3  A    between atoms: C_6  and  C_19
REMARK    4  A    between atoms: N_8  and  S_10
REMARK    5  A    between atoms: S_10  and  C_13
REMARK                            x       y       z     vdW  Elec       q    Type
REMARK                         _______ _______ _______ _____ _____    ______ ____
ROOT
ATOM      1  C   UNL     1       0.652  -0.570  -1.138  0.00  0.00    +0.136 C 
ATOM      2  C   UNL     1       0.093  -1.983  -1.452  0.00  0.00    +0.065 C 
ATOM      3  C   UNL     1       1.274  -2.671  -2.169  0.00  0.00    +0.195 C 
ATOM      4  N   UNL     1       2.498  -1.958  -1.774  0.00  0.00    -0.160 NA
ATOM      5  C   UNL     1       2.138  -0.883  -0.832  0.00  0.00    +0.142 C 
ENDROOT
BRANCH   4   6
ATOM      6  S   UNL     1       4.030  -2.307  -2.300  0.00  0.00    +0.068 S 
ATOM      7  O   UNL     1       4.921  -1.810  -1.312  0.00  0.00    -0.152 OA
ATOM      8  O   UNL     1       4.021  -3.670  -2.702  0.00  0.00    -0.152 OA
BRANCH   6   9
ATOM      9  C   UNL     1       4.309  -1.354  -3.756  0.00  0.00    +0.144 A 
ATOM     10  C   UNL     1       4.831  -0.108  -3.873  0.00  0.00    +0.037 A 
ATOM     11  C   UNL     1       4.959   0.449  -5.132  0.00  0.00    +0.025 A 
ATOM     12  C   UNL     1       4.559  -0.268  -6.212  0.00  0.00    +0.057 A 
ATOM     13  S   UNL     1       3.987  -1.782  -5.459  0.00  0.00    -0.062 S 
ATOM     14 BR   UNL     1       4.603   0.209  -8.041  0.00  0.00    -0.043 Br
ENDBRANCH   6   9
ENDBRANCH   4   6
BRANCH   3  15
ATOM     15  C   UNL     1       1.359  -4.115  -1.747  0.00  0.00    +0.375 C 
ATOM     16  O   UNL     1       0.521  -4.912  -2.131  0.00  0.00    -0.245 OA
ATOM     17  O   UNL     1       2.267  -4.486  -1.022  0.00  0.00    -0.245 OA
ENDBRANCH   3  15
BRANCH   1  19
ATOM     18  C   UNL     1      -0.017   1.425   0.010  0.00  0.00    +0.194 C 
ATOM     19  O   UNL     1       0.002  -0.004   0.002  0.00  0.00    -0.378 OA
ENDBRANCH   1  19
TORSDOF 4
