REMARK  Name = ZINC13129481
REMARK  14 active torsions:
REMARK  status: ('A' for Active; 'I' for Inactive)
REMARK    1  A    between atoms: C_1  and  C_2
REMARK    2  A    between atoms: C_2  and  N_3
REMARK    3  A    between atoms: C_7  and  S_30
REMARK    4  A    between atoms: C_11  and  S_12
REMARK    5  A    between atoms: S_12  and  C_13
REMARK    6  A    between atoms: C_13  and  C_14
REMARK    7  A    between atoms: N_16  and  C_17
REMARK    8  A    between atoms: C_17  and  C_19
REMARK    9  A    between atoms: C_17  and  C_20
REMARK   10  A    between atoms: S_30  and  N_33
REMARK   11  A    between atoms: N_33  and  C_34
REMARK   12  A    between atoms: N_33  and  C_36
REMARK   13  A    between atoms: C_34  and  C_35
REMARK   14  A    between atoms: C_36  and  C_37
REMARK                            x       y       z     vdW  Elec       q    Type
REMARK                         _______ _______ _______ _____ _____    ______ ____
ROOT
ATOM      1  N   UNL     1      -8.328   2.390  -5.690  0.00  0.00    -0.319 N 
ATOM      2  C   UNL     1      -9.298   1.470  -5.325  0.00  0.00    +0.070 A 
ATOM      3  C   UNL     1     -10.658   1.360  -5.570  0.00  0.00    +0.030 A 
ATOM      4  C   UNL     1     -11.367   0.299  -5.045  0.00  0.00    +0.030 A 
ATOM      5  C   UNL     1     -10.727  -0.661  -4.275  0.00  0.00    +0.108 A 
ATOM      6  C   UNL     1      -9.377  -0.568  -4.023  0.00  0.00    +0.058 A 
ATOM      7  C   UNL     1      -8.645   0.501  -4.546  0.00  0.00    +0.092 A 
ATOM      8  N   UNL     1      -7.336   0.860  -4.475  0.00  0.00    -0.222 NA
ATOM      9  C   UNL     1      -7.146   1.967  -5.149  0.00  0.00    +0.170 A 
ENDROOT
BRANCH   5  10
ATOM     10  S   UNL     1     -11.649  -2.009  -3.615  0.00  0.00    +0.061 S 
ATOM     11  O   UNL     1     -10.933  -2.474  -2.479  0.00  0.00    -0.153 OA
ATOM     12  O   UNL     1     -13.001  -1.578  -3.538  0.00  0.00    -0.153 OA
BRANCH  10  13
ATOM     13  N   UNL     1     -11.603  -3.229  -4.734  0.00  0.00    -0.177 NA
BRANCH  13  14
ATOM     14  C   UNL     1     -10.530  -4.224  -4.689  0.00  0.00    +0.106 C 
ATOM     15  C   UNL     1     -11.005  -5.452  -3.909  0.00  0.00    +0.022 C 
ENDBRANCH  13  14
BRANCH  13  16
ATOM     16  C   UNL     1     -12.637  -3.312  -5.769  0.00  0.00    +0.106 C 
ATOM     17  C   UNL     1     -12.142  -2.620  -7.041  0.00  0.00    +0.022 C 
ENDBRANCH  13  16
ENDBRANCH  10  13
ENDBRANCH   5  10
BRANCH   1  19
ATOM     18  C   UNL     1      -8.330   3.242  -7.982  0.00  0.00    +0.027 C 
ATOM     19  C   UNL     1      -8.530   3.589  -6.506  0.00  0.00    +0.121 C 
ENDBRANCH   1  19
BRANCH   9  20
ATOM     20  S   UNL     1      -5.599   2.792  -5.326  0.00  0.00    -0.078 S 
BRANCH  20  21
ATOM     21  C   UNL     1      -4.540   1.685  -4.363  0.00  0.00    +0.173 C 
BRANCH  21  22
ATOM     22  C   UNL     1      -3.126   2.206  -4.374  0.00  0.00    +0.224 C 
ATOM     23  O   UNL     1      -2.861   3.227  -4.973  0.00  0.00    -0.275 OA
ATOM     24  N   UNL     1      -2.157   1.539  -3.717  0.00  0.00    -0.312 N 
ATOM     25  H   UNL     1      -2.369   0.723  -3.237  0.00  0.00    +0.149 HD
BRANCH  24  26
ATOM     26  C   UNL     1      -0.782   2.046  -3.727  0.00  0.00    +0.076 C 
ATOM     27  C   UNL     1      -0.066   1.553  -4.986  0.00  0.00    +0.028 C 
BRANCH  26  28
ATOM     28  C   UNL     1      -0.043   1.539  -2.488  0.00  0.00    -0.010 C 
ATOM     29  C   UNL     1      -0.759   2.033  -1.229  0.00  0.00    +0.012 C 
ATOM     30  C   UNL     1      -0.019   1.526   0.010  0.00  0.00    -0.010 C 
ATOM     31  C   UNL     1       1.417   2.055  -0.000  0.00  0.00    +0.007 C 
ATOM     32  C   UNL     1       2.133   1.562  -1.259  0.00  0.00    -0.010 C 
ATOM     33  C   UNL     1       1.393   2.069  -2.499  0.00  0.00    +0.012 C 
ATOM     34  C   UNL     1       2.154   0.032  -1.268  0.00  0.00    +0.007 C 
ATOM     35  C   UNL     1       0.718  -0.497  -1.257  0.00  0.00    -0.010 C 
ATOM     36  C   UNL     1       0.002  -0.004   0.002  0.00  0.00    +0.007 C 
ATOM     37  C   UNL     1      -0.022   0.009  -2.496  0.00  0.00    +0.012 C 
ENDBRANCH  26  28
ENDBRANCH  24  26
ENDBRANCH  21  22
ENDBRANCH  20  21
ENDBRANCH   9  20
TORSDOF 10
