REMARK  Name = ZINC03568616
REMARK  4 active torsions:
REMARK  status: ('A' for Active; 'I' for Inactive)
REMARK    1  A    between atoms: C_4  and  O_31
REMARK    2  A    between atoms: C_5  and  N_7
REMARK    3  A    between atoms: C_20  and  C_22
REMARK    4  A    between atoms: C_22  and  N_61
REMARK                            x       y       z     vdW  Elec       q    Type
REMARK                         _______ _______ _______ _____ _____    ______ ____
ROOT
ATOM      1  N   UNL     1      -0.908  -1.219  -0.988  0.00  0.00    -0.324 N 
ATOM      2  C   UNL     1      -1.713  -0.888   0.196  0.00  0.00    +0.124 C 
ATOM      3  C   UNL     1      -3.049  -1.631   0.126  0.00  0.00    +0.125 C 
ATOM      4  N   UNL     1      -2.798  -3.077   0.051  0.00  0.00    -0.312 N 
ATOM      5  C   UNL     1      -1.994  -3.409  -1.133  0.00  0.00    +0.125 C 
ATOM      6  C   UNL     1      -0.658  -2.666  -1.063  0.00  0.00    +0.124 C 
ATOM      7  C   UNL     1      -3.986  -3.787   0.058  0.00  0.00    +0.133 A 
ATOM      8  C   UNL     1      -4.268  -4.712   1.101  0.00  0.00    +0.051 A 
ATOM      9  C   UNL     1      -3.439  -5.055   2.268  0.00  0.00    -0.025 A 
ATOM     10  C   UNL     1      -3.940  -5.962   3.122  0.00  0.00    -0.004 A 
ATOM     11  S   UNL     1      -5.522  -6.411   2.446  0.00  0.00    -0.073 S 
ATOM     12  C   UNL     1      -5.506  -5.372   1.010  0.00  0.00    +0.114 A 
ATOM     13  N   UNL     1      -6.336  -5.146   0.009  0.00  0.00    -0.227 NA
ATOM     14  C   UNL     1      -6.019  -4.280  -0.934  0.00  0.00    +0.116 A 
ATOM     15  N   UNL     1      -4.875  -3.619  -0.908  0.00  0.00    -0.219 NA
ATOM     16  C   UNL     1      -3.009  -6.234   4.273  0.00  0.00    +0.043 C 
ATOM     17  C   UNL     1      -2.022  -5.045   4.263  0.00  0.00    +0.010 C 
ATOM     18  C   UNL     1      -2.065  -4.617   2.783  0.00  0.00    +0.037 C 
ENDROOT
BRANCH   1  23
ATOM     19  C   UNL     1       2.418   0.003  -0.005  0.00  0.00    +0.002 A 
ATOM     20  C   UNL     1       2.672   0.918  -1.010  0.00  0.00    +0.004 A 
ATOM     21  C   UNL     1       1.740   1.129  -2.010  0.00  0.00    +0.047 A 
ATOM     22  C   UNL     1       0.549   0.421  -2.007  0.00  0.00    +0.138 A 
ATOM     23  C   UNL     1       0.293  -0.501  -0.996  0.00  0.00    +0.072 A 
ATOM     24  C   UNL     1       1.232  -0.707   0.005  0.00  0.00    +0.027 A 
BRANCH  22  25
ATOM     25  O   UNL     1      -0.365   0.623  -2.994  0.00  0.00    -0.505 OA
ATOM     26  H   UNL     1      -1.010   1.316  -2.796  0.00  0.00    +0.292 HD
ENDBRANCH  22  25
ENDBRANCH   1  23
BRANCH  14  27
ATOM     27  C   UNL     1      -6.983  -4.038  -2.066  0.00  0.00    -0.001 C 
BRANCH  27  33
ATOM     28  C   UNL     1      -5.383  -4.692  -3.763  0.00  0.00    -0.050 C 
ATOM     29  C   UNL     1      -5.099  -5.724  -4.858  0.00  0.00    +0.141 C 
ATOM     30  O   UNL     1      -6.154  -5.691  -5.823  0.00  0.00    -0.383 OA
ATOM     31  C   UNL     1      -7.446  -5.961  -5.272  0.00  0.00    +0.141 C 
ATOM     32  C   UNL     1      -7.755  -4.932  -4.181  0.00  0.00    -0.050 C 
ATOM     33  N   UNL     1      -6.695  -4.998  -3.153  0.00  0.00    +0.387 N 
ATOM     34  H   UNL     1      -6.668  -5.947  -2.762  0.00  0.00    -0.081 HD
ENDBRANCH  27  33
ENDBRANCH  14  27
TORSDOF 4
