REMARK  Name = ZINC39478816
REMARK  10 active torsions:
REMARK  status: ('A' for Active; 'I' for Inactive)
REMARK    1  A    between atoms: C_1  and  C_2
REMARK    2  A    between atoms: C_4  and  C_11
REMARK    3  A    between atoms: N_13  and  C_14
REMARK    4  A    between atoms: N_13  and  C_38
REMARK    5  A    between atoms: C_14  and  C_15
REMARK    6  A    between atoms: C_24  and  C_25
REMARK    7  A    between atoms: C_29  and  O_33
REMARK    8  A    between atoms: C_30  and  O_31
REMARK    9  A    between atoms: O_31  and  C_32
REMARK   10  A    between atoms: O_33  and  C_34
REMARK                            x       y       z     vdW  Elec       q    Type
REMARK                         _______ _______ _______ _____ _____    ______ ____
ROOT
ATOM      1  C   UNL     1      -0.625  -4.546  -3.961  0.00  0.00    -0.003 A 
ATOM      2  C   UNL     1      -0.118  -3.489  -4.656  0.00  0.00    +0.017 A 
ATOM      3  C   UNL     1       1.026  -3.700  -5.452  0.00  0.00    +0.001 A 
ATOM      4  C   UNL     1       1.600  -2.658  -6.194  0.00  0.00    +0.014 A 
ATOM      5  C   UNL     1       2.708  -2.893  -6.956  0.00  0.00    -0.043 A 
ATOM      6  C   UNL     1       3.281  -4.164  -7.005  0.00  0.00    -0.042 A 
ATOM      7  C   UNL     1       2.746  -5.198  -6.294  0.00  0.00    +0.032 A 
ATOM      8  C   UNL     1       1.605  -4.992  -5.500  0.00  0.00    +0.072 A 
ATOM      9  N   UNL     1       1.065  -5.992  -4.798  0.00  0.00    -0.246 NA
ATOM     10  C   UNL     1      -0.004  -5.802  -4.047  0.00  0.00    +0.080 A 
ATOM     11  C   UNL     1       4.489  -4.139  -7.920  0.00  0.00    +0.036 C 
ATOM     12  C   UNL     1       4.335  -2.855  -8.760  0.00  0.00    +0.009 C 
ATOM     13  C   UNL     1       3.500  -1.946  -7.834  0.00  0.00    +0.036 C 
ENDROOT
BRANCH  10  14
ATOM     14  C   UNL     1      -0.563  -6.941  -3.282  0.00  0.00    +0.046 A 
ATOM     15  C   UNL     1      -1.908  -7.286  -3.423  0.00  0.00    +0.014 A 
ATOM     16  C   UNL     1      -2.426  -8.346  -2.709  0.00  0.00    +0.004 A 
ATOM     17  C   UNL     1      -1.618  -9.072  -1.851  0.00  0.00    +0.049 A 
ATOM     18  C   UNL     1      -0.281  -8.740  -1.702  0.00  0.00    +0.162 A 
ATOM     19  C   UNL     1       0.255  -7.677  -2.421  0.00  0.00    +0.171 A 
BRANCH  19  20
ATOM     20  O   UNL     1       1.567  -7.351  -2.282  0.00  0.00    -0.491 OA
ATOM     21  C   UNL     1       1.897  -6.409  -1.260  0.00  0.00    +0.277 C 
ENDBRANCH  19  20
BRANCH  18  22
ATOM     22  O   UNL     1       0.508  -9.456  -0.857  0.00  0.00    -0.491 OA
ATOM     23  C   UNL     1      -0.108 -10.538  -0.155  0.00  0.00    +0.277 C 
ENDBRANCH  18  22
ENDBRANCH  10  14
BRANCH   1  24
ATOM     24  C   UNL     1      -1.847  -4.365  -3.098  0.00  0.00    +0.145 C 
BRANCH  24  27
ATOM     25  C   UNL     1      -3.172  -2.574  -4.084  0.00  0.00    +0.232 C 
ATOM     26  O   UNL     1      -3.655  -3.387  -4.843  0.00  0.00    -0.274 OA
ATOM     27  N   UNL     1      -2.281  -2.967  -3.152  0.00  0.00    -0.293 N 
BRANCH  25  31
ATOM     28  C   UNL     1      -6.163  -0.525  -6.977  0.00  0.00    +0.045 C 
ATOM     29  C   UNL     1      -4.858  -0.606  -6.228  0.00  0.00    -0.033 C 
ATOM     30  C   UNL     1      -4.838  -1.017  -4.971  0.00  0.00    -0.000 C 
ATOM     31  C   UNL     1      -3.566  -1.123  -4.184  0.00  0.00    +0.184 C 
ATOM     32  C   UNL     1      -2.445  -0.358  -4.819  0.00  0.00    +0.233 C 
ATOM     33  O   UNL     1      -1.475  -0.082  -4.146  0.00  0.00    -0.274 OA
ATOM     34  N   UNL     1      -2.471   0.034  -6.102  0.00  0.00    -0.285 N 
ATOM     35  C   UNL     1      -3.595  -0.232  -6.896  0.00  0.00    +0.029 C 
ATOM     36  C   UNL     1      -3.529  -0.144  -8.227  0.00  0.00    +0.034 C 
ATOM     37  H   UNL     1      -1.709   0.498  -6.482  0.00  0.00    +0.155 HD
ENDBRANCH  25  31
BRANCH  27  38
ATOM     38  C   UNL     1      -1.748  -1.997  -2.193  0.00  0.00    +0.077 C 
ATOM     39  C   UNL     1      -0.244  -1.719  -2.232  0.00  0.00    +0.024 C 
ATOM     40  C   UNL     1      -0.843  -2.528  -1.080  0.00  0.00    +0.024 C 
ENDBRANCH  27  38
ENDBRANCH  24  27
ENDBRANCH   1  24
TORSDOF 7
