REMARK  Name = ZINC60343124
REMARK  13 active torsions:
REMARK  status: ('A' for Active; 'I' for Inactive)
REMARK    1  A    between atoms: C_1  and  C_2
REMARK    2  A    between atoms: C_7  and  S_33
REMARK    3  A    between atoms: C_12  and  C_14
REMARK    4  A    between atoms: C_14  and  N_15
REMARK    5  A    between atoms: C_20  and  C_22
REMARK    6  A    between atoms: C_22  and  C_24
REMARK    7  A    between atoms: C_22  and  N_25
REMARK    8  A    between atoms: C_26  and  O_28
REMARK    9  A    between atoms: O_28  and  C_29
REMARK   10  A    between atoms: C_29  and  C_30
REMARK   11  A    between atoms: C_29  and  C_31
REMARK   12  A    between atoms: C_29  and  C_32
REMARK   13  A    between atoms: S_33  and  N_36
REMARK                            x       y       z     vdW  Elec       q    Type
REMARK                         _______ _______ _______ _____ _____    ______ ____
ROOT
ATOM      1  C   UNL     1       1.231  -0.862   3.564  0.00  0.00    +0.020 C 
ENDROOT
BRANCH   1  12
ATOM      2  C   UNL     1      -0.019   1.526   0.010  0.00  0.00    +0.029 C 
ATOM      3  C   UNL     1       0.002  -0.004   0.002  0.00  0.00    +0.083 C 
ATOM      4  C   UNL     1       0.778  -0.520  -1.221  0.00  0.00    +0.059 C 
ATOM      5  C   UNL     1       1.932  -1.304  -0.637  0.00  0.00    -0.022 A 
ATOM      6  C   UNL     1       2.960  -1.995  -1.249  0.00  0.00    +0.034 A 
ATOM      7  C   UNL     1       3.912  -2.643  -0.485  0.00  0.00    +0.105 A 
ATOM      8  C   UNL     1       3.833  -2.599   0.895  0.00  0.00    +0.030 A 
ATOM      9  C   UNL     1       2.809  -1.912   1.510  0.00  0.00    +0.026 A 
ATOM     10  C   UNL     1       1.844  -1.254   0.745  0.00  0.00    +0.040 A 
ATOM     11  N   UNL     1       0.735  -0.509   1.166  0.00  0.00    -0.270 N 
ATOM     12  C   UNL     1       0.393  -0.287   2.450  0.00  0.00    +0.203 C 
ATOM     13  O   UNL     1      -0.589   0.375   2.711  0.00  0.00    -0.277 OA
BRANCH   7  14
ATOM     14  S   UNL     1       5.222  -3.524  -1.268  0.00  0.00    +0.056 S 
ATOM     15  O   UNL     1       5.670  -4.498  -0.335  0.00  0.00    -0.153 OA
ATOM     16  O   UNL     1       4.761  -3.869  -2.567  0.00  0.00    -0.153 OA
BRANCH  14  17
ATOM     17  N   UNL     1       6.472  -2.458  -1.477  0.00  0.00    -0.204 NA
ATOM     18  H   UNL     1       6.381  -1.540  -1.180  0.00  0.00    +0.144 HD
ATOM     19  H   UNL     1       7.296  -2.753  -1.896  0.00  0.00    +0.144 HD
ENDBRANCH  14  17
ENDBRANCH   7  14
ENDBRANCH   1  12
BRANCH   1  20
ATOM     20  N   UNL     1       0.652  -0.481   4.859  0.00  0.00    +0.388 N 
ATOM     21  C   UNL     1      -0.673  -1.095   5.002  0.00  0.00    -0.078 C 
ATOM     22  C   UNL     1      -1.314  -0.636   6.313  0.00  0.00    -0.019 C 
ATOM     23  C   UNL     1      -0.424  -1.060   7.485  0.00  0.00    -0.003 C 
ATOM     24  C   UNL     1       0.977  -0.474   7.288  0.00  0.00    -0.014 C 
ATOM     25  C   UNL     1       1.533  -0.939   5.940  0.00  0.00    -0.047 C 
ATOM     26  H   UNL     1       0.562   0.523   4.903  0.00  0.00    -0.081 HD
BRANCH  25  27
ATOM     27  C   UNL     1       2.933  -0.356   5.739  0.00  0.00    +0.060 C 
ATOM     28  C   UNL     1       2.841   1.167   5.631  0.00  0.00    +0.026 C 
BRANCH  27  29
ATOM     29  N   UNL     1       3.780  -0.714   6.879  0.00  0.00    -0.280 N 
ATOM     30  C   UNL     1       5.119  -0.773   6.732  0.00  0.00    +0.401 C 
ATOM     31  O   UNL     1       5.623  -0.528   5.654  0.00  0.00    -0.226 OA
ATOM     32  H   UNL     1       3.378  -0.909   7.739  0.00  0.00    +0.152 HD
BRANCH  30  33
ATOM     33  O   UNL     1       5.897  -1.102   7.780  0.00  0.00    -0.445 OA
BRANCH  33  34
ATOM     34  C   UNL     1       7.307  -1.145   7.552  0.00  0.00    +0.107 C 
ATOM     35  C   UNL     1       7.792   0.233   7.097  0.00  0.00    +0.055 C 
ATOM     36  C   UNL     1       8.021  -1.534   8.848  0.00  0.00    +0.055 C 
ATOM     37  C   UNL     1       7.618  -2.179   6.468  0.00  0.00    +0.055 C 
ENDBRANCH  33  34
ENDBRANCH  30  33
ENDBRANCH  27  29
ENDBRANCH  25  27
ENDBRANCH   1  20
TORSDOF 8
