REMARK  Name = ZINC46715108
REMARK  11 active torsions:
REMARK  status: ('A' for Active; 'I' for Inactive)
REMARK    1  A    between atoms: C_1  and  C_2
REMARK    2  A    between atoms: C_2  and  C_3
REMARK    3  A    between atoms: C_3  and  C_5
REMARK    4  A    between atoms: C_3  and  C_6
REMARK    5  A    between atoms: C_6  and  C_8
REMARK    6  A    between atoms: C_6  and  N_27
REMARK    7  A    between atoms: N_10  and  C_11
REMARK    8  A    between atoms: C_11  and  C_12
REMARK    9  A    between atoms: C_17  and  C_18
REMARK   10  A    between atoms: C_18  and  N_19
REMARK   11  A    between atoms: C_24  and  C_26
REMARK                            x       y       z     vdW  Elec       q    Type
REMARK                         _______ _______ _______ _____ _____    ______ ____
ROOT
ATOM      1  C   UNL     1       1.601  -2.533   2.392  0.00  0.00    +0.234 C 
ATOM      2  O   UNL     1       2.781  -2.805   2.325  0.00  0.00    -0.274 OA
ATOM      3  N   UNL     1       0.941  -2.677   3.558  0.00  0.00    -0.310 N 
ATOM      4  H   UNL     1      -0.002  -2.459   3.612  0.00  0.00    +0.149 HD
ENDROOT
BRANCH   1   5
ATOM      5  C   UNL     1       0.872  -2.034   1.171  0.00  0.00    +0.163 C 
BRANCH   5   6
ATOM      6  N   UNL     1       1.622  -2.405  -0.032  0.00  0.00    -0.288 N 
ATOM      7  C   UNL     1       2.884  -1.962  -0.202  0.00  0.00    +0.298 C 
ATOM      8  O   UNL     1       3.399  -1.255   0.642  0.00  0.00    -0.253 OA
ATOM      9  N   UNL     1       3.574  -2.303  -1.308  0.00  0.00    -0.313 N 
ATOM     10  H   UNL     1       1.211  -2.969  -0.705  0.00  0.00    +0.151 HD
ATOM     11  H   UNL     1       3.163  -2.867  -1.982  0.00  0.00    +0.146 HD
ATOM     12  H   UNL     1       4.482  -1.984  -1.431  0.00  0.00    +0.146 HD
ENDBRANCH   5   6
BRANCH   5  13
ATOM     13  C   UNL     1       0.742  -0.511   1.242  0.00  0.00    +0.015 C 
ATOM     14  C   UNL     1      -0.042  -0.124   2.497  0.00  0.00    +0.010 C 
BRANCH  13  16
ATOM     15  C   UNL     1      -0.019   1.526   0.010  0.00  0.00    +0.004 C 
ATOM     16  C   UNL     1       0.002  -0.004   0.002  0.00  0.00    +0.002 C 
ENDBRANCH  13  16
ENDBRANCH   5  13
ENDBRANCH   1   5
BRANCH   3  17
ATOM     17  C   UNL     1       1.650  -3.162   4.745  0.00  0.00    +0.139 C 
BRANCH  17  18
ATOM     18  C   UNL     1       0.693  -3.232   5.908  0.00  0.00    -0.029 A 
ATOM     19  C   UNL     1       0.676  -2.222   6.851  0.00  0.00    +0.005 A 
ATOM     20  C   UNL     1      -0.201  -2.286   7.917  0.00  0.00    +0.000 A 
ATOM     21  C   UNL     1      -1.062  -3.361   8.040  0.00  0.00    +0.000 A 
ATOM     22  C   UNL     1      -1.045  -4.371   7.096  0.00  0.00    +0.002 A 
ATOM     23  C   UNL     1      -0.171  -4.304   6.028  0.00  0.00    -0.059 A 
BRANCH  23  24
ATOM     24  C   UNL     1      -0.157  -5.403   4.996  0.00  0.00    -0.042 C 
BRANCH  24  25
ATOM     25  N   UNL     1       0.959  -6.319   5.271  0.00  0.00    +0.384 N 
ATOM     26  C   UNL     1       0.735  -6.986   6.559  0.00  0.00    -0.078 C 
ATOM     27  C   UNL     1       1.933  -7.880   6.889  0.00  0.00    -0.019 C 
ATOM     28  C   UNL     1       2.096  -8.932   5.788  0.00  0.00    -0.003 C 
ATOM     29  C   UNL     1       2.254  -8.225   4.439  0.00  0.00    -0.016 C 
ATOM     30  C   UNL     1       1.044  -7.318   4.200  0.00  0.00    -0.071 C 
ATOM     31  C   UNL     1       1.198  -6.609   2.853  0.00  0.00    -0.013 C 
ATOM     32  H   UNL     1       1.820  -5.795   5.311  0.00  0.00    -0.081 HD
ENDBRANCH  24  25
ENDBRANCH  23  24
ENDBRANCH  17  18
ENDBRANCH   3  17
TORSDOF 8
