REMARK  Name = ZINC10135290
REMARK  8 active torsions:
REMARK  status: ('A' for Active; 'I' for Inactive)
REMARK    1  A    between atoms: C_1  and  C_2
REMARK    2  A    between atoms: C_2  and  N_66
REMARK    3  A    between atoms: C_5  and  N_8
REMARK    4  A    between atoms: C_9  and  C_11
REMARK    5  A    between atoms: C_11  and  S_12
REMARK    6  A    between atoms: S_12  and  C_13
REMARK    7  A    between atoms: N_26  and  C_27
REMARK    8  A    between atoms: C_30  and  C_33
REMARK                            x       y       z     vdW  Elec       q    Type
REMARK                         _______ _______ _______ _____ _____    ______ ____
ROOT
ATOM      1  C   UNL     1      -0.033  -4.765  -0.519  0.00  0.00    +0.178 A 
ATOM      2  N   UNL     1      -0.942  -3.823  -0.309  0.00  0.00    -0.215 NA
ATOM      3  C   UNL     1      -0.503  -2.627   0.066  0.00  0.00    +0.117 A 
ATOM      4  C   UNL     1       0.861  -2.309   0.253  0.00  0.00    +0.076 A 
ATOM      5  C   UNL     1       1.149  -0.945   0.665  0.00  0.00    -0.023 A 
ATOM      6  C   UNL     1       0.088  -0.124   0.829  0.00  0.00    -0.004 A 
ATOM      7  S   UNL     1      -1.333  -1.116   0.445  0.00  0.00    -0.073 S 
ATOM      8  C   UNL     1       0.110   1.315   1.246  0.00  0.00    +0.043 C 
ATOM      9  C   UNL     1       1.496   1.634   1.822  0.00  0.00    +0.005 C 
ATOM     10  C   UNL     1       2.561   1.091   0.864  0.00  0.00    +0.005 C 
ATOM     11  C   UNL     1       2.568  -0.437   0.908  0.00  0.00    +0.037 C 
ATOM     12  C   UNL     1       1.815  -3.352   0.018  0.00  0.00    +0.268 A 
ATOM     13  O   UNL     1       3.014  -3.174   0.152  0.00  0.00    -0.267 OA
ATOM     14  N   UNL     1       1.304  -4.546  -0.363  0.00  0.00    -0.255 N 
ENDROOT
BRANCH  14  15
ATOM     15  C   UNL     1       2.189  -5.605  -0.607  0.00  0.00    +0.052 A 
ATOM     16  C   UNL     1       2.550  -6.462   0.424  0.00  0.00    +0.026 A 
ATOM     17  C   UNL     1       3.419  -7.507   0.178  0.00  0.00    +0.005 A 
ATOM     18  C   UNL     1       3.936  -7.695  -1.090  0.00  0.00    -0.050 A 
ATOM     19  C   UNL     1       3.582  -6.841  -2.118  0.00  0.00    +0.005 A 
ATOM     20  C   UNL     1       2.710  -5.796  -1.880  0.00  0.00    +0.026 A 
ATOM     21  C   UNL     1       4.888  -8.834  -1.353  0.00  0.00    +0.044 C 
ENDBRANCH  14  15
BRANCH   1  22
ATOM     22  S   UNL     1      -0.574  -6.366  -1.019  0.00  0.00    -0.078 S 
BRANCH  22  23
ATOM     23  C   UNL     1      -2.363  -6.092  -1.064  0.00  0.00    +0.173 C 
BRANCH  23  25
ATOM     24  N   UNL     1      -4.399  -7.398  -1.583  0.00  0.00    -0.312 N 
ATOM     25  C   UNL     1      -3.055  -7.365  -1.480  0.00  0.00    +0.224 C 
ATOM     26  O   UNL     1      -2.404  -8.358  -1.721  0.00  0.00    -0.275 OA
ATOM     27  H   UNL     1      -4.920  -6.603  -1.389  0.00  0.00    +0.149 HD
BRANCH  24  30
ATOM     28  C   UNL     1      -7.223  -9.901  -1.926  0.00  0.00    -0.077 C 
ATOM     29  C   UNL     1      -6.506  -8.636  -1.450  0.00  0.00    +0.003 C 
ATOM     30  C   UNL     1      -5.072  -8.635  -1.986  0.00  0.00    +0.069 C 
ATOM     31  C   UNL     1      -5.107  -8.723  -3.515  0.00  0.00    +0.003 C 
ATOM     32  C   UNL     1      -5.864  -9.986  -3.931  0.00  0.00    -0.077 C 
ATOM     33  N   UNL     1      -7.244  -9.914  -3.404  0.00  0.00    +0.380 N 
ATOM     34  H   UNL     1      -7.682  -9.048  -3.739  0.00  0.00    -0.082 HD
BRANCH  33  36
ATOM     35  C   UNL     1      -7.814 -11.225  -5.395  0.00  0.00    -0.017 C 
ATOM     36  C   UNL     1      -8.029 -11.068  -3.888  0.00  0.00    -0.082 C 
ENDBRANCH  33  36
ENDBRANCH  24  30
ENDBRANCH  23  25
ENDBRANCH  22  23
ENDBRANCH   1  22
TORSDOF 6
