REMARK  Name = ZINC11135167
REMARK  6 active torsions:
REMARK  status: ('A' for Active; 'I' for Inactive)
REMARK    1  A    between atoms: C_1  and  C_2
REMARK    2  A    between atoms: C_5  and  N_8
REMARK    3  A    between atoms: C_12  and  S_13
REMARK    4  A    between atoms: S_13  and  C_14
REMARK    5  A    between atoms: C_14  and  C_16
REMARK    6  A    between atoms: C_14  and  C_17
REMARK                            x       y       z     vdW  Elec       q    Type
REMARK                         _______ _______ _______ _____ _____    ______ ____
ROOT
ATOM      1  N   UNL     1       1.440   5.117   1.453  0.00  0.00    -0.259 N 
ATOM      2  C   UNL     1       2.802   5.037   1.564  0.00  0.00    +0.225 A 
ATOM      3  N   UNL     1       3.133   3.770   1.581  0.00  0.00    -0.112 NA
ATOM      4  N   UNL     1       1.958   3.013   1.485  0.00  0.00    -0.120 NA
ATOM      5  C   UNL     1       0.945   3.842   1.412  0.00  0.00    +0.198 A 
ATOM      6  N   UNL     1       3.679   6.112   1.639  0.00  0.00    -0.299 N 
ATOM      7  C   UNL     1       3.428   6.920   2.860  0.00  0.00    +0.108 C 
ATOM      8  C   UNL     1       4.757   7.693   3.053  0.00  0.00    +0.020 C 
ATOM      9  C   UNL     1       5.824   6.654   2.639  0.00  0.00    +0.020 C 
ATOM     10  C   UNL     1       5.079   5.646   1.745  0.00  0.00    +0.108 C 
ENDROOT
BRANCH   1  15
ATOM     11  C   UNL     1      -1.616   9.896   1.222  0.00  0.00    +0.044 C 
ATOM     12  C   UNL     1      -0.804   8.627   1.283  0.00  0.00    -0.050 A 
ATOM     13  C   UNL     1      -0.943   7.771   2.360  0.00  0.00    +0.005 A 
ATOM     14  C   UNL     1      -0.201   6.607   2.419  0.00  0.00    +0.026 A 
ATOM     15  C   UNL     1       0.685   6.298   1.396  0.00  0.00    +0.052 A 
ATOM     16  C   UNL     1       0.826   7.162   0.319  0.00  0.00    +0.026 A 
ATOM     17  C   UNL     1       0.077   8.322   0.263  0.00  0.00    +0.005 A 
ENDBRANCH   1  15
BRANCH   5  18
ATOM     18  S   UNL     1      -0.753   3.393   1.277  0.00  0.00    -0.073 S 
BRANCH  18  19
ATOM     19  C   UNL     1      -0.729   1.579   1.267  0.00  0.00    +0.137 C 
ATOM     20  C   UNL     1      -0.013   1.086   0.008  0.00  0.00    +0.029 C 
BRANCH  19  21
ATOM     21  C   UNL     1      -2.143   1.058   1.278  0.00  0.00    +0.233 C 
ATOM     22  O   UNL     1      -3.045   1.743   0.846  0.00  0.00    -0.274 OA
ATOM     23  N   UNL     1      -2.404  -0.171   1.767  0.00  0.00    -0.260 N 
ATOM     24  C   UNL     1      -1.327  -1.024   2.290  0.00  0.00    +0.209 C 
ATOM     25  C   UNL     1      -1.544  -2.437   1.825  0.00  0.00    +0.235 C 
ATOM     26  O   UNL     1      -0.590  -3.170   1.672  0.00  0.00    -0.274 OA
ATOM     27  N   UNL     1      -2.784  -2.898   1.573  0.00  0.00    -0.283 N 
ATOM     28  C   UNL     1      -3.897  -2.060   1.693  0.00  0.00    +0.055 A 
ATOM     29  C   UNL     1      -3.712  -0.679   1.788  0.00  0.00    +0.058 A 
ATOM     30  C   UNL     1      -4.804   0.163   1.900  0.00  0.00    +0.025 A 
ATOM     31  C   UNL     1      -6.081  -0.369   1.922  0.00  0.00    +0.002 A 
ATOM     32  C   UNL     1      -6.267  -1.736   1.832  0.00  0.00    +0.002 A 
ATOM     33  C   UNL     1      -5.179  -2.583   1.718  0.00  0.00    +0.025 A 
ATOM     34  H   UNL     1      -2.906  -3.822   1.304  0.00  0.00    +0.155 HD
ENDBRANCH  19  21
ENDBRANCH  18  19
ENDBRANCH   5  18
TORSDOF 4
