REMARK  Name = ZINC03531027
REMARK  9 active torsions:
REMARK  status: ('A' for Active; 'I' for Inactive)
REMARK    1  A    between atoms: C_1  and  C_2
REMARK    2  A    between atoms: C_6  and  N_9
REMARK    3  A    between atoms: C_7  and  C_8
REMARK    4  A    between atoms: N_9  and  C_10
REMARK    5  A    between atoms: C_15  and  C_16
REMARK    6  A    between atoms: C_16  and  O_18
REMARK    7  A    between atoms: O_18  and  C_19
REMARK    8  A    between atoms: C_19  and  C_20
REMARK    9  A    between atoms: N_22  and  C_23
REMARK                            x       y       z     vdW  Elec       q    Type
REMARK                         _______ _______ _______ _____ _____    ______ ____
ROOT
ATOM      1  C   UNL     1       1.146   2.213  -0.171  0.00  0.00    +0.045 A 
ATOM      2  C   UNL     1       1.064   3.576  -0.428  0.00  0.00    +0.024 A 
ATOM      3  C   UNL     1      -0.159   4.213  -0.398  0.00  0.00    +0.002 A 
ATOM      4  C   UNL     1      -1.314   3.502  -0.113  0.00  0.00    +0.001 A 
ATOM      5  C   UNL     1      -1.255   2.149   0.138  0.00  0.00    +0.017 A 
ATOM      6  C   UNL     1      -0.022   1.490   0.118  0.00  0.00    +0.080 A 
ENDROOT
BRANCH   1   7
ATOM      7  N   UNL     1       2.377   1.570  -0.201  0.00  0.00    -0.314 N 
ATOM      8  H   UNL     1       2.963   1.609   0.571  0.00  0.00    +0.152 HD
BRANCH   7  14
ATOM      9  C   UNL     1       5.632  -1.331  -2.470  0.00  0.00    +0.044 C 
ATOM     10  C   UNL     1       4.343  -0.550  -2.470  0.00  0.00    -0.046 A 
ATOM     11  C   UNL     1       3.547  -0.531  -3.601  0.00  0.00    +0.004 A 
ATOM     12  C   UNL     1       2.363   0.184  -3.605  0.00  0.00    +0.002 A 
ATOM     13  C   UNL     1       1.969   0.877  -2.477  0.00  0.00    +0.023 A 
ATOM     14  C   UNL     1       2.769   0.865  -1.341  0.00  0.00    +0.035 A 
ATOM     15  C   UNL     1       3.958   0.145  -1.341  0.00  0.00    -0.026 A 
ATOM     16  C   UNL     1       4.826   0.124  -0.109  0.00  0.00    +0.046 C 
ENDBRANCH   7  14
ENDBRANCH   1   7
BRANCH   6  17
ATOM     17  C   UNL     1       0.050   0.044   0.392  0.00  0.00    +0.341 C 
ATOM     18  O   UNL     1       1.119  -0.530   0.346  0.00  0.00    -0.245 OA
BRANCH  17  19
ATOM     19  O   UNL     1      -1.071  -0.641   0.693  0.00  0.00    -0.452 OA
BRANCH  19  20
ATOM     20  C   UNL     1      -0.925  -2.062   0.952  0.00  0.00    +0.328 C 
BRANCH  20  21
ATOM     21  C   UNL     1      -2.273  -2.656   1.269  0.00  0.00    +0.251 C 
ATOM     22  O   UNL     1      -3.260  -1.951   1.277  0.00  0.00    -0.272 OA
ATOM     23  N   UNL     1      -2.383  -3.971   1.544  0.00  0.00    -0.308 N 
ATOM     24  H   UNL     1      -1.594  -4.535   1.538  0.00  0.00    +0.149 HD
BRANCH  23  25
ATOM     25  C   UNL     1      -3.693  -4.548   1.853  0.00  0.00    +0.095 C 
ATOM     26  C   UNL     1      -3.989  -4.394   3.354  0.00  0.00    +0.046 C 
ATOM     27  C   UNL     1      -5.203  -5.270   3.746  0.00  0.00    +0.168 C 
ATOM     28  S   UNL     1      -5.126  -6.638   2.519  0.00  0.00    -0.029 S 
ATOM     29  O   UNL     1      -6.297  -6.603   1.715  0.00  0.00    -0.174 OA
ATOM     30  O   UNL     1      -4.772  -7.840   3.188  0.00  0.00    -0.174 OA
ATOM     31  C   UNL     1      -3.692  -6.066   1.513  0.00  0.00    +0.188 C 
ENDBRANCH  23  25
ENDBRANCH  20  21
ENDBRANCH  19  20
ENDBRANCH  17  19
ENDBRANCH   6  17
TORSDOF 7
