REMARK  Name = ZINC08442118
REMARK  6 active torsions:
REMARK  status: ('A' for Active; 'I' for Inactive)
REMARK    1  A    between atoms: C_1  and  C_2
REMARK    2  A    between atoms: C_5  and  S_8
REMARK    3  A    between atoms: S_8  and  C_9
REMARK    4  A    between atoms: C_9  and  C_10
REMARK    5  A    between atoms: C_17  and  N_32
REMARK    6  A    between atoms: C_18  and  C_30
REMARK                            x       y       z     vdW  Elec       q    Type
REMARK                         _______ _______ _______ _____ _____    ______ ____
ROOT
ATOM      1  C   UNL     1       0.097  -6.482   1.870  0.00  0.00    +0.081 A 
ATOM      2  C   UNL     1      -1.016  -7.308   1.944  0.00  0.00    +0.062 A 
ATOM      3  C   UNL     1      -0.578  -8.600   2.061  0.00  0.00    +0.223 A 
ATOM      4  N   UNL     1       0.764  -8.573   2.059  0.00  0.00    -0.246 N 
ATOM      5  H   UNL     1       1.351  -9.343   2.129  0.00  0.00    +0.192 HD
ATOM      6  N   UNL     1       1.169  -7.235   1.933  0.00  0.00    -0.175 NA
ATOM      7  O   UNL     1      -1.426  -9.653   2.156  0.00  0.00    -0.423 OA
ATOM      8  C   UNL     1      -2.727  -9.396   2.402  0.00  0.00    +0.201 C 
ATOM      9  C   UNL     1      -3.280  -8.165   2.306  0.00  0.00    +0.110 C 
ATOM     10  C   UNL     1      -2.477  -6.957   1.910  0.00  0.00    +0.145 C 
ATOM     11  C   UNL     1      -2.883  -6.453   0.562  0.00  0.00    +0.001 A 
ATOM     12  C   UNL     1      -2.861  -7.046  -0.682  0.00  0.00    +0.045 A 
ATOM     13  C   UNL     1      -3.318  -6.284  -1.754  0.00  0.00    +0.124 A 
ATOM     14  C   UNL     1      -3.773  -4.991  -1.574  0.00  0.00    +0.040 A 
ATOM     15  C   UNL     1      -3.798  -4.390  -0.325  0.00  0.00    +0.026 A 
ATOM     16  C   UNL     1      -3.342  -5.144   0.757  0.00  0.00    +0.038 A 
ATOM     17  N   UNL     1      -3.259  -4.799   2.096  0.00  0.00    -0.284 N 
ATOM     18  C   UNL     1      -2.762  -5.805   2.847  0.00  0.00    +0.238 C 
ATOM     19  O   UNL     1      -2.580  -5.788   4.046  0.00  0.00    -0.274 OA
ATOM     20  F   UNL     1      -3.317  -6.819  -2.994  0.00  0.00    -0.205 F 
ATOM     21  H   UNL     1      -3.525  -3.937   2.451  0.00  0.00    +0.155 HD
ENDROOT
BRANCH   8  22
ATOM     22  N   UNL     1      -3.536 -10.443   2.768  0.00  0.00    -0.328 N 
ATOM     23  H   UNL     1      -3.167 -11.337   2.845  0.00  0.00    +0.145 HD
ATOM     24  H   UNL     1      -4.476 -10.289   2.951  0.00  0.00    +0.145 HD
ENDBRANCH   8  22
BRANCH   9  25
ATOM     25  C   UNL     1      -4.675  -8.007   2.592  0.00  0.00    +0.102 C 
ATOM     26  N   UNL     1      -5.781  -7.881   2.819  0.00  0.00    -0.191 NA
ENDBRANCH   9  25
BRANCH   1  27
ATOM     27  C   UNL     1       0.077  -4.981   1.735  0.00  0.00    +0.132 C 
BRANCH  27  28
ATOM     28  S   UNL     1       0.062  -4.533  -0.023  0.00  0.00    -0.119 S 
BRANCH  28  33
ATOM     29  C   UNL     1      -0.018   1.503   0.010  0.00  0.00    +0.044 C 
ATOM     30  C   UNL     1       0.002  -0.004   0.002  0.00  0.00    -0.050 A 
ATOM     31  C   UNL     1       0.006  -0.687  -1.200  0.00  0.00    +0.004 A 
ATOM     32  C   UNL     1       0.024  -2.068  -1.212  0.00  0.00    +0.015 A 
ATOM     33  C   UNL     1       0.039  -2.771  -0.013  0.00  0.00    +0.008 A 
ATOM     34  C   UNL     1       0.036  -2.081   1.193  0.00  0.00    +0.015 A 
ATOM     35  C   UNL     1       0.023  -0.700   1.197  0.00  0.00    +0.004 A 
ENDBRANCH  28  33
ENDBRANCH  27  28
ENDBRANCH   1  27
TORSDOF 5
