REMARK  Name = ZINC39722517
REMARK  9 active torsions:
REMARK  status: ('A' for Active; 'I' for Inactive)
REMARK    1  A    between atoms: C_1  and  C_2
REMARK    2  A    between atoms: C_2  and  C_3
REMARK    3  A    between atoms: C_3  and  N_4
REMARK    4  A    between atoms: C_5  and  C_28
REMARK    5  A    between atoms: C_9  and  S_11
REMARK    6  A    between atoms: S_11  and  C_12
REMARK    7  A    between atoms: C_12  and  C_13
REMARK    8  A    between atoms: C_21  and  C_25
REMARK    9  A    between atoms: C_32  and  C_34
REMARK                            x       y       z     vdW  Elec       q    Type
REMARK                         _______ _______ _______ _____ _____    ______ ____
ROOT
ATOM      1  N   UNL     1       0.860  -1.971  -1.354  0.00  0.00    +0.410 N 
ATOM      2  C   UNL     1       1.631  -2.537  -2.485  0.00  0.00    +0.049 C 
ATOM      3  N   UNL     1       0.952  -3.826  -2.781  0.00  0.00    -0.267 NA
ATOM      4  N   UNL     1      -0.470  -3.506  -2.577  0.00  0.00    -0.262 NA
ATOM      5  C   UNL     1      -0.480  -2.591  -1.413  0.00  0.00    +0.077 C 
ATOM      6  H   UNL     1       1.124  -4.115  -3.733  0.00  0.00    +0.139 HD
ATOM      7  H   UNL     1      -1.004  -4.340  -2.386  0.00  0.00    +0.140 HD
ATOM      8  H   UNL     1       1.309  -2.199  -0.479  0.00  0.00    -0.075 HD
ENDROOT
BRANCH   2   9
ATOM      9  C   UNL     1       3.064  -2.775  -2.081  0.00  0.00    -0.046 A 
ATOM     10  C   UNL     1       3.653  -1.972  -1.122  0.00  0.00    +0.003 A 
ATOM     11  C   UNL     1       4.967  -2.189  -0.751  0.00  0.00    +0.001 A 
ATOM     12  C   UNL     1       5.691  -3.210  -1.339  0.00  0.00    +0.003 A 
ATOM     13  C   UNL     1       5.101  -4.013  -2.297  0.00  0.00    -0.050 A 
ATOM     14  C   UNL     1       3.786  -3.798  -2.665  0.00  0.00    +0.006 A 
ATOM     15  C   UNL     1       5.891  -5.125  -2.938  0.00  0.00    +0.044 C 
ENDBRANCH   2   9
BRANCH   1  16
ATOM     16  C   UNL     1       0.749  -0.514  -1.499  0.00  0.00    -0.073 C 
BRANCH  16  18
ATOM     17  C   UNL     1      -0.079   1.580  -0.415  0.00  0.00    +0.002 C 
ATOM     18  C   UNL     1       0.176   0.085  -0.213  0.00  0.00    -0.022 C 
ENDBRANCH  16  18
ENDBRANCH   1  16
BRANCH   5  19
ATOM     19  S   UNL     1      -1.747  -1.312  -1.638  0.00  0.00    -0.152 S 
BRANCH  19  20
ATOM     20  C   UNL     1      -3.303  -2.166  -1.264  0.00  0.00    +0.143 C 
BRANCH  20  21
ATOM     21  C   UNL     1      -4.439  -1.177  -1.300  0.00  0.00    +0.120 A 
ATOM     22  N   UNL     1      -5.694  -1.627  -1.038  0.00  0.00    -0.310 N 
ATOM     23  H   UNL     1      -5.835  -2.565  -0.835  0.00  0.00    +0.170 HD
ATOM     24  C   UNL     1      -6.749  -0.779  -1.057  0.00  0.00    +0.259 A 
ATOM     25  O   UNL     1      -7.878  -1.169  -0.824  0.00  0.00    -0.267 OA
ATOM     26  C   UNL     1      -6.477   0.634  -1.370  0.00  0.00    +0.065 A 
ATOM     27  C   UNL     1      -7.494   1.585  -1.414  0.00  0.00    +0.016 A 
ATOM     28  C   UNL     1      -7.198   2.886  -1.708  0.00  0.00    +0.016 A 
ATOM     29  C   UNL     1      -5.877   3.274  -1.967  0.00  0.00    +0.065 A 
ATOM     30  C   UNL     1      -4.847   2.341  -1.929  0.00  0.00    +0.043 A 
ATOM     31  C   UNL     1      -5.140   1.009  -1.628  0.00  0.00    +0.079 A 
ATOM     32  N   UNL     1      -4.169   0.063  -1.574  0.00  0.00    -0.233 NA
BRANCH  29  33
ATOM     33  C   UNL     1      -5.576   4.686  -2.283  0.00  0.00    +0.387 C 
ATOM     34  O   UNL     1      -6.478   5.511  -2.318  0.00  0.00    -0.241 OA
ATOM     35  O   UNL     1      -4.425   5.030  -2.510  0.00  0.00    -0.241 OA
ENDBRANCH  29  33
ENDBRANCH  20  21
ENDBRANCH  19  20
ENDBRANCH   5  19
TORSDOF 7
