REMARK  Name = ZINC03278702
REMARK  8 active torsions:
REMARK  status: ('A' for Active; 'I' for Inactive)
REMARK    1  A    between atoms: C_1  and  C_2
REMARK    2  A    between atoms: C_2  and  O_3
REMARK    3  A    between atoms: O_3  and  C_4
REMARK    4  A    between atoms: C_4  and  C_6
REMARK    5  A    between atoms: C_9  and  N_12
REMARK    6  A    between atoms: C_22  and  N_23
REMARK    7  A    between atoms: N_23  and  N_24
REMARK    8  A    between atoms: C_25  and  C_27
REMARK                            x       y       z     vdW  Elec       q    Type
REMARK                         _______ _______ _______ _____ _____    ______ ____
ROOT
ATOM      1  N   UNL     1      -6.686  -4.058  -0.049  0.00  0.00    -0.202 N 
ATOM      2  C   UNL     1      -7.734  -3.235   0.118  0.00  0.00    +0.258 C 
ATOM      3  O   UNL     1      -7.547  -2.036   0.191  0.00  0.00    -0.269 OA
ATOM      4  C   UNL     1      -9.102  -3.760   0.215  0.00  0.00    +0.046 A 
ATOM      5  C   UNL     1     -10.196  -2.911   0.388  0.00  0.00    +0.014 A 
ATOM      6  C   UNL     1     -11.464  -3.442   0.474  0.00  0.00    +0.001 A 
ATOM      7  C   UNL     1     -11.666  -4.812   0.390  0.00  0.00    +0.001 A 
ATOM      8  C   UNL     1     -10.599  -5.669   0.219  0.00  0.00    +0.009 A 
ATOM      9  C   UNL     1      -9.311  -5.152   0.130  0.00  0.00    +0.000 A 
ATOM     10  C   UNL     1      -8.133  -6.025  -0.054  0.00  0.00    +0.060 C 
ATOM     11  C   UNL     1      -8.271  -7.393  -0.145  0.00  0.00    +0.101 C 
ATOM     12  C   UNL     1      -6.813  -5.392  -0.143  0.00  0.00    +0.259 C 
ATOM     13  O   UNL     1      -5.823  -6.082  -0.300  0.00  0.00    -0.269 OA
ENDROOT
BRANCH   1  17
ATOM     14  C   UNL     1      -2.871  -2.397  -0.303  0.00  0.00    +0.059 A 
ATOM     15  C   UNL     1      -3.371  -3.170  -1.356  0.00  0.00    +0.017 A 
ATOM     16  C   UNL     1      -4.631  -3.717  -1.268  0.00  0.00    +0.025 A 
ATOM     17  C   UNL     1      -5.407  -3.502  -0.134  0.00  0.00    +0.045 A 
ATOM     18  C   UNL     1      -4.913  -2.734   0.915  0.00  0.00    +0.025 A 
ATOM     19  C   UNL     1      -3.652  -2.189   0.837  0.00  0.00    +0.017 A 
BRANCH  14  20
ATOM     20  C   UNL     1      -1.522  -1.809  -0.394  0.00  0.00    +0.339 C 
ATOM     21  O   UNL     1      -1.087  -1.143   0.524  0.00  0.00    -0.245 OA
BRANCH  20  22
ATOM     22  O   UNL     1      -0.771  -2.012  -1.494  0.00  0.00    -0.461 OA
BRANCH  22  24
ATOM     23  C   UNL     1       1.224  -1.750  -2.833  0.00  0.00    +0.048 C 
ATOM     24  C   UNL     1       0.526  -1.412  -1.514  0.00  0.00    +0.229 C 
ENDBRANCH  22  24
ENDBRANCH  20  22
ENDBRANCH  14  20
ENDBRANCH   1  17
BRANCH  11  25
ATOM     25  N   UNL     1      -7.170  -8.188  -0.149  0.00  0.00    -0.271 N 
ATOM     26  H   UNL     1      -6.292  -7.801  -0.008  0.00  0.00    +0.169 HD
BRANCH  25  27
ATOM     27  N   UNL     1      -7.303  -9.567  -0.355  0.00  0.00    -0.234 N 
ATOM     28  C   UNL     1      -6.210 -10.356  -0.359  0.00  0.00    +0.273 C 
ATOM     29  O   UNL     1      -5.112  -9.872  -0.183  0.00  0.00    -0.270 OA
ATOM     30  H   UNL     1      -8.181  -9.954  -0.496  0.00  0.00    +0.173 HD
BRANCH  28  31
ATOM     31  C   UNL     1      -6.352 -11.840  -0.581  0.00  0.00    +0.297 C 
ATOM     32  C   UNL     1      -6.866 -12.103  -2.003  0.00  0.00    +0.283 C 
ATOM     33  O   UNL     1      -6.976 -13.519  -2.185  0.00  0.00    -0.484 OA
ATOM     34  C   UNL     1      -5.920 -14.273  -1.771  0.00  0.00    +0.162 A 
ATOM     35  C   UNL     1      -5.792 -15.575  -2.231  0.00  0.00    +0.049 A 
ATOM     36  C   UNL     1      -4.728 -16.354  -1.817  0.00  0.00    +0.004 A 
ATOM     37  C   UNL     1      -3.788 -15.837  -0.944  0.00  0.00    +0.004 A 
ATOM     38  C   UNL     1      -3.910 -14.540  -0.483  0.00  0.00    +0.049 A 
ATOM     39  C   UNL     1      -4.975 -13.752  -0.896  0.00  0.00    +0.163 A 
ATOM     40  O   UNL     1      -5.076 -12.474  -0.439  0.00  0.00    -0.472 OA
ENDBRANCH  28  31
ENDBRANCH  25  27
ENDBRANCH  11  25
TORSDOF 7
