REMARK  Name = ZINC33587258
REMARK  10 active torsions:
REMARK  status: ('A' for Active; 'I' for Inactive)
REMARK    1  A    between atoms: C_1  and  C_2
REMARK    2  A    between atoms: C_2  and  O_3
REMARK    3  A    between atoms: O_3  and  C_4
REMARK    4  A    between atoms: C_4  and  C_6
REMARK    5  A    between atoms: C_7  and  C_35
REMARK    6  A    between atoms: C_11  and  C_20
REMARK    7  A    between atoms: C_12  and  O_19
REMARK    8  A    between atoms: C_20  and  C_22
REMARK    9  A    between atoms: C_20  and  N_28
REMARK   10  A    between atoms: C_31  and  C_34
REMARK                            x       y       z     vdW  Elec       q    Type
REMARK                         _______ _______ _______ _____ _____    ______ ____
ROOT
ATOM      1  C   UNL     1      -1.214  -3.233  -1.765  0.00  0.00    +0.108 A 
ATOM      2  C   UNL     1      -1.840  -3.754  -2.857  0.00  0.00    +0.117 A 
ATOM      3  O   UNL     1      -0.945  -3.967  -3.828  0.00  0.00    -0.459 OA
ATOM      4  C   UNL     1       0.295  -3.607  -3.439  0.00  0.00    +0.144 A 
ATOM      5  C   UNL     1       0.212  -3.127  -2.134  0.00  0.00    +0.040 A 
ATOM      6  C   UNL     1       1.355  -2.675  -1.458  0.00  0.00    -0.003 A 
ATOM      7  C   UNL     1       2.573  -2.690  -2.067  0.00  0.00    +0.127 A 
ATOM      8  C   UNL     1       2.697  -3.174  -3.389  0.00  0.00    +0.027 A 
ATOM      9  C   UNL     1       1.551  -3.633  -4.081  0.00  0.00    +0.029 A 
ATOM     10  C   UNL     1       1.684  -4.108  -5.396  0.00  0.00    +0.012 A 
ATOM     11  C   UNL     1       2.911  -4.121  -5.988  0.00  0.00    +0.001 A 
ATOM     12  C   UNL     1       4.038  -3.669  -5.307  0.00  0.00    +0.001 A 
ATOM     13  C   UNL     1       3.945  -3.202  -4.031  0.00  0.00    +0.012 A 
ATOM     14  C   UNL     1      -3.315  -4.046  -2.957  0.00  0.00    +0.087 C 
ENDROOT
BRANCH   1  15
ATOM     15  C   UNL     1      -1.830  -2.855  -0.485  0.00  0.00    +0.343 C 
ATOM     16  O   UNL     1      -2.253  -1.727  -0.324  0.00  0.00    -0.245 OA
BRANCH  15  17
ATOM     17  O   UNL     1      -1.927  -3.759   0.510  0.00  0.00    -0.461 OA
BRANCH  17  19
ATOM     18  C   UNL     1      -2.568  -4.471   2.749  0.00  0.00    +0.048 C 
ATOM     19  C   UNL     1      -2.547  -3.316   1.745  0.00  0.00    +0.229 C 
ENDBRANCH  17  19
ENDBRANCH  15  17
ENDBRANCH   1  15
BRANCH   7  20
ATOM     20  O   UNL     1       3.670  -2.244  -1.401  0.00  0.00    -0.506 OA
ATOM     21  H   UNL     1       4.654  -2.256  -1.892  0.00  0.00    +0.292 HD
ENDBRANCH   7  20
BRANCH   6  22
ATOM     22  C   UNL     1       1.233  -2.163  -0.046  0.00  0.00    -0.002 C 
BRANCH  22  23
ATOM     23  N   UNL     1       2.287  -2.760   0.785  0.00  0.00    +0.387 N 
ATOM     24  C   UNL     1       2.260  -2.208   2.145  0.00  0.00    -0.077 C 
ATOM     25  C   UNL     1       3.456  -2.743   2.937  0.00  0.00    -0.015 C 
ATOM     26  C   UNL     1       3.388  -4.271   2.985  0.00  0.00    -0.018 C 
ATOM     27  C   UNL     1       3.368  -4.819   1.555  0.00  0.00    -0.015 C 
ATOM     28  C   UNL     1       2.175  -4.224   0.803  0.00  0.00    -0.077 C 
ATOM     29  C   UNL     1       4.613  -4.815   3.723  0.00  0.00    +0.007 C 
ATOM     30  H   UNL     1       3.258  -2.504   0.338  0.00  0.00    -0.080 HD
ENDBRANCH  22  23
BRANCH  22  31
ATOM     31  C   UNL     1       1.381  -0.663  -0.042  0.00  0.00    -0.057 A 
ATOM     32  C   UNL     1       0.258   0.142  -0.087  0.00  0.00    +0.002 A 
ATOM     33  C   UNL     1       0.393   1.518  -0.084  0.00  0.00    +0.000 A 
ATOM     34  C   UNL     1       1.651   2.089  -0.034  0.00  0.00    +0.000 A 
ATOM     35  C   UNL     1       2.774   1.284   0.011  0.00  0.00    +0.000 A 
ATOM     36  C   UNL     1       2.639  -0.092   0.007  0.00  0.00    +0.002 A 
ENDBRANCH  22  31
ENDBRANCH   6  22
TORSDOF 7
