REMARK  Name = ZINC14456564
REMARK  6 active torsions:
REMARK  status: ('A' for Active; 'I' for Inactive)
REMARK    1  A    between atoms: C_1  and  C_2
REMARK    2  A    between atoms: C_5  and  C_7
REMARK    3  A    between atoms: C_18  and  S_23
REMARK    4  A    between atoms: S_23  and  N_26
REMARK    5  A    between atoms: N_26  and  C_27
REMARK    6  A    between atoms: C_27  and  C_28
REMARK                            x       y       z     vdW  Elec       q    Type
REMARK                         _______ _______ _______ _____ _____    ______ ____
ROOT
ATOM      1  C   UNL     1      -1.316   3.512   0.021  0.00  0.00    +0.111 C 
ATOM      2  C   UNL     1      -0.117   4.013  -0.763  0.00  0.00    +0.029 C 
ATOM      3  C   UNL     1       0.172   5.521  -0.752  0.00  0.00    +0.033 C 
ATOM      4  C   UNL     1       1.690   5.545  -0.938  0.00  0.00    -0.030 C 
ATOM      5  C   UNL     1       2.210   4.413  -0.512  0.00  0.00    -0.023 C 
ATOM      6  C   UNL     1       1.132   3.561   0.052  0.00  0.00    +0.049 C 
ATOM      7  C   UNL     1       1.196   2.084   0.002  0.00  0.00    -0.018 A 
ATOM      8  C   UNL     1       2.389   1.396  -0.034  0.00  0.00    +0.034 A 
ATOM      9  C   UNL     1       2.396   0.013  -0.048  0.00  0.00    +0.106 A 
ATOM     10  C   UNL     1       1.202  -0.684  -0.027  0.00  0.00    +0.030 A 
ATOM     11  C   UNL     1       0.002  -0.004   0.002  0.00  0.00    +0.025 A 
ATOM     12  C   UNL     1      -0.017   1.385   0.010  0.00  0.00    +0.031 A 
ATOM     13  N   UNL     1      -1.247   2.054   0.004  0.00  0.00    -0.336 N 
ATOM     14  H   UNL     1      -2.068   1.539  -0.019  0.00  0.00    +0.147 HD
ENDROOT
BRANCH   1  19
ATOM     15  C   UNL     1      -5.977   4.542  -3.030  0.00  0.00    +0.051 C 
ATOM     16  C   UNL     1      -4.812   4.476  -2.076  0.00  0.00    -0.013 A 
ATOM     17  C   UNL     1      -4.528   5.277  -1.019  0.00  0.00    +0.011 A 
ATOM     18  C   UNL     1      -3.393   5.022  -0.272  0.00  0.00    +0.013 A 
ATOM     19  C   UNL     1      -2.594   3.986  -0.623  0.00  0.00    +0.010 A 
ATOM     20  S   UNL     1      -3.450   3.323  -2.043  0.00  0.00    -0.097 S 
ENDBRANCH   1  19
BRANCH   9  21
ATOM     21  S   UNL     1       3.926  -0.859  -0.094  0.00  0.00    +0.059 S 
ATOM     22  O   UNL     1       4.909   0.015   0.442  0.00  0.00    -0.153 OA
ATOM     23  O   UNL     1       3.675  -2.148   0.449  0.00  0.00    -0.153 OA
BRANCH  21  24
ATOM     24  N   UNL     1       4.313  -1.085  -1.689  0.00  0.00    -0.186 NA
ATOM     25  H   UNL     1       4.346  -1.982  -2.057  0.00  0.00    +0.148 HD
BRANCH  24  26
ATOM     26  C   UNL     1       4.605   0.069  -2.542  0.00  0.00    +0.141 C 
BRANCH  26  27
ATOM     27  C   UNL     1       5.274  -0.399  -3.809  0.00  0.00    -0.032 A 
ATOM     28  C   UNL     1       6.652  -0.493  -3.869  0.00  0.00    +0.005 A 
ATOM     29  C   UNL     1       7.264  -0.927  -5.030  0.00  0.00    +0.000 A 
ATOM     30  C   UNL     1       6.500  -1.257  -6.133  0.00  0.00    +0.000 A 
ATOM     31  C   UNL     1       5.122  -1.158  -6.074  0.00  0.00    +0.000 A 
ATOM     32  C   UNL     1       4.509  -0.729  -4.912  0.00  0.00    +0.005 A 
ENDBRANCH  26  27
ENDBRANCH  24  26
ENDBRANCH  21  24
ENDBRANCH   9  21
TORSDOF 5
