REMARK  Name = ZINC39677769
REMARK  6 active torsions:
REMARK  status: ('A' for Active; 'I' for Inactive)
REMARK    1  A    between atoms: C_1  and  C_2
REMARK    2  A    between atoms: C_6  and  C_15
REMARK    3  A    between atoms: N_17  and  C_18
REMARK    4  A    between atoms: C_18  and  C_19
REMARK    5  A    between atoms: N_22  and  C_26
REMARK    6  A    between atoms: C_26  and  C_27
REMARK                            x       y       z     vdW  Elec       q    Type
REMARK                         _______ _______ _______ _____ _____    ______ ____
ROOT
ATOM      1  C   UNL     1       2.320  -0.421  -3.392  0.00  0.00    +0.218 C 
ATOM      2  O   UNL     1       3.239  -0.984  -2.835  0.00  0.00    -0.275 OA
ATOM      3  N   UNL     1       2.537   0.734  -4.051  0.00  0.00    -0.313 N 
ATOM      4  H   UNL     1       1.802   1.184  -4.496  0.00  0.00    +0.149 HD
ENDROOT
BRANCH   1  10
ATOM      5  C   UNL     1       2.229  -3.761  -0.296  0.00  0.00    +0.109 C 
ATOM      6  C   UNL     1       1.716  -4.126  -1.666  0.00  0.00    +0.212 C 
ATOM      7  O   UNL     1       1.901  -5.240  -2.106  0.00  0.00    -0.276 OA
ATOM      8  N   UNL     1       1.050  -3.213  -2.401  0.00  0.00    -0.300 N 
ATOM      9  C   UNL     1       0.734  -1.811  -2.039  0.00  0.00    +0.121 C 
ATOM     10  C   UNL     1       0.936  -1.015  -3.348  0.00  0.00    +0.100 C 
ATOM     11  C   UNL     1       0.759  -2.052  -4.469  0.00  0.00    -0.004 C 
ATOM     12  C   UNL     1       0.475  -3.382  -3.757  0.00  0.00    +0.115 C 
ATOM     13  C   UNL     1      -0.416  -1.669  -5.363  0.00  0.00    -0.010 C 
ATOM     14  C   UNL     1      -0.535  -2.683  -6.504  0.00  0.00    -0.082 C 
ATOM     15  N   UNL     1       0.711  -2.699  -7.280  0.00  0.00    +0.379 N 
ATOM     16  C   UNL     1       1.820  -3.158  -6.436  0.00  0.00    -0.082 C 
ATOM     17  C   UNL     1       2.039  -2.164  -5.292  0.00  0.00    -0.010 C 
ATOM     18  H   UNL     1       0.608  -3.322  -8.066  0.00  0.00    -0.086 HD
ATOM     19  H   UNL     1       0.908  -1.768  -7.616  0.00  0.00    -0.086 HD
ENDBRANCH   1  10
BRANCH   3  20
ATOM     20  C   UNL     1       3.883   1.311  -4.094  0.00  0.00    +0.137 C 
BRANCH  20  21
ATOM     21  C   UNL     1       3.854   2.612  -4.899  0.00  0.00    +0.149 C 
ATOM     22  C   UNL     1       5.279   3.152  -5.049  0.00  0.00    +0.118 C 
ATOM     23  N   UNL     1       5.238   4.441  -5.755  0.00  0.00    -0.293 NA
ATOM     24  C   UNL     1       4.407   5.409  -5.025  0.00  0.00    +0.113 C 
ATOM     25  C   UNL     1       2.990   4.846  -4.875  0.00  0.00    +0.175 C 
ATOM     26  O   UNL     1       3.053   3.579  -4.215  0.00  0.00    -0.372 OA
BRANCH  23  27
ATOM     27  C   UNL     1       6.592   4.967  -5.970  0.00  0.00    +0.119 C 
BRANCH  27  28
ATOM     28  C   UNL     1       6.530   6.150  -6.902  0.00  0.00    -0.033 A 
ATOM     29  C   UNL     1       6.630   5.960  -8.267  0.00  0.00    +0.005 A 
ATOM     30  C   UNL     1       6.573   7.046  -9.122  0.00  0.00    +0.000 A 
ATOM     31  C   UNL     1       6.414   8.320  -8.611  0.00  0.00    +0.000 A 
ATOM     32  C   UNL     1       6.312   8.509  -7.245  0.00  0.00    +0.000 A 
ATOM     33  C   UNL     1       6.366   7.424  -6.391  0.00  0.00    +0.005 A 
ENDBRANCH  27  28
ENDBRANCH  23  27
ENDBRANCH  20  21
ENDBRANCH   3  20
TORSDOF 5
