REMARK  Name = ZINC13475468
REMARK  7 active torsions:
REMARK  status: ('A' for Active; 'I' for Inactive)
REMARK    1  A    between atoms: C_5  and  C_7
REMARK    2  A    between atoms: C_7  and  C_8
REMARK    3  A    between atoms: C_8  and  C_9
REMARK    4  A    between atoms: C_9  and  C_10
REMARK    5  A    between atoms: C_11  and  C_17
REMARK    6  A    between atoms: C_15  and  N_16
REMARK    7  A    between atoms: C_18  and  C_19
REMARK                            x       y       z     vdW  Elec       q    Type
REMARK                         _______ _______ _______ _____ _____    ______ ____
ROOT
ATOM      1  C   UNL     1       2.332   1.337  -0.013  0.00  0.00    +0.026 A 
ATOM      2  C   UNL     1       2.308  -0.060  -0.021  0.00  0.00    +0.122 A 
ATOM      3  N   UNL     1       1.127  -0.686  -0.013  0.00  0.00    -0.227 NA
ATOM      4  C   UNL     1       0.002  -0.004   0.002  0.00  0.00    +0.224 A 
ATOM      5  N   UNL     1      -0.016   1.314   0.009  0.00  0.00    -0.221 NA
ATOM      6  C   UNL     1       1.116   2.015   0.002  0.00  0.00    +0.124 A 
ENDROOT
BRANCH   6   7
ATOM      7  N   UNL     1       1.084   3.401   0.009  0.00  0.00    -0.343 N 
ATOM      8  H   UNL     1       0.118   3.929   0.021  0.00  0.00    +0.144 HD
ATOM      9  H   UNL     1       2.023   3.973   0.003  0.00  0.00    +0.144 HD
ENDBRANCH   6   7
BRANCH   2  10
ATOM     10  C   UNL     1       3.529  -0.808  -0.037  0.00  0.00    -0.041 C 
ATOM     11  C   UNL     1       4.530  -1.422  -0.051  0.00  0.00    -0.058 C 
BRANCH  11  12
ATOM     12  C   UNL     1       5.751  -2.170  -0.068  0.00  0.00    +0.044 A 
ATOM     13  C   UNL     1       6.990  -1.511  -0.076  0.00  0.00    +0.022 A 
ATOM     14  C   UNL     1       8.132  -2.267  -0.091  0.00  0.00    +0.045 A 
ATOM     15  C   UNL     1       8.031  -3.657  -0.098  0.00  0.00    +0.121 A 
ATOM     16  N   UNL     1       6.849  -4.255  -0.090  0.00  0.00    -0.239 NA
ATOM     17  C   UNL     1       5.726  -3.567  -0.070  0.00  0.00    +0.129 A 
ATOM     18  N   UNL     1       9.187  -4.426  -0.114  0.00  0.00    -0.311 N 
ATOM     19  C   UNL     1      10.035  -4.078  -1.264  0.00  0.00    +0.134 C 
ATOM     20  C   UNL     1      11.322  -4.905  -1.210  0.00  0.00    +0.178 C 
ATOM     21  O   UNL     1      10.989  -6.296  -1.184  0.00  0.00    -0.377 OA
ATOM     22  C   UNL     1      10.164  -6.669  -0.077  0.00  0.00    +0.178 C 
ATOM     23  C   UNL     1       8.865  -5.860  -0.119  0.00  0.00    +0.134 C 
ENDBRANCH  11  12
ENDBRANCH   2  10
BRANCH   1  24
ATOM     24  C   UNL     1       3.637   2.090  -0.022  0.00  0.00    +0.042 C 
BRANCH  24  25
ATOM     25  C   UNL     1       4.065   2.353  -1.467  0.00  0.00    +0.009 C 
BRANCH  25  26
ATOM     26  C   UNL     1       5.390   3.117  -1.476  0.00  0.00    +0.037 C 
BRANCH  26  31
ATOM     27  C   UNL     1       7.072   2.748  -4.836  0.00  0.00    +0.000 A 
ATOM     28  C   UNL     1       6.584   3.851  -5.512  0.00  0.00    +0.001 A 
ATOM     29  C   UNL     1       5.710   4.717  -4.883  0.00  0.00    +0.020 A 
ATOM     30  C   UNL     1       5.323   4.479  -3.576  0.00  0.00    +0.044 A 
ATOM     31  C   UNL     1       5.811   3.376  -2.900  0.00  0.00    -0.029 A 
ATOM     32  C   UNL     1       6.690   2.513  -3.529  0.00  0.00    +0.005 A 
ATOM     33 CL   UNL     1       4.225   5.567  -2.784  0.00  0.00    -0.083 Cl
ENDBRANCH  26  31
ENDBRANCH  25  26
ENDBRANCH  24  25
ENDBRANCH   1  24
TORSDOF 7
