REMARK  Name = ZINC37063815
REMARK  5 active torsions:
REMARK  status: ('A' for Active; 'I' for Inactive)
REMARK    1  A    between atoms: C_1  and  C_2
REMARK    2  A    between atoms: C_4  and  N_9
REMARK    3  A    between atoms: N_9  and  S_10
REMARK    4  A    between atoms: S_10  and  C_13
REMARK    5  A    between atoms: C_18  and  N_19
REMARK                            x       y       z     vdW  Elec       q    Type
REMARK                         _______ _______ _______ _____ _____    ______ ____
ROOT
ATOM      1  S   UNL     1       1.154  -3.982  -2.698  0.00  0.00    +0.074 S 
ATOM      2  O   UNL     1       1.093  -4.474  -4.030  0.00  0.00    -0.150 OA
ATOM      3  O   UNL     1       2.332  -3.402  -2.154  0.00  0.00    -0.150 OA
ENDROOT
BRANCH   1   4
ATOM      4  C   UNL     1       0.720  -5.325  -1.644  0.00  0.00    +0.129 A 
ATOM      5  C   UNL     1       1.521  -5.643  -0.564  0.00  0.00    +0.032 A 
ATOM      6  C   UNL     1       1.181  -6.696   0.264  0.00  0.00    +0.017 A 
ATOM      7  C   UNL     1       0.038  -7.436   0.015  0.00  0.00    +0.020 A 
ATOM      8  C   UNL     1      -0.767  -7.122  -1.063  0.00  0.00    +0.040 A 
ATOM      9  C   UNL     1      -0.431  -6.061  -1.894  0.00  0.00    +0.053 A 
ATOM     10 BR   UNL     1      -0.422  -8.876   1.151  0.00  0.00    -0.050 Br
BRANCH   9  11
ATOM     11  N   UNL     1      -1.246  -5.738  -2.981  0.00  0.00    -0.356 N 
ATOM     12  H   UNL     1      -1.053  -4.951  -3.515  0.00  0.00    +0.142 HD
ATOM     13  H   UNL     1      -2.005  -6.300  -3.202  0.00  0.00    +0.142 HD
ENDBRANCH   9  11
ENDBRANCH   1   4
BRANCH   1  14
ATOM     14  N   UNL     1      -0.041  -2.844  -2.559  0.00  0.00    -0.216 N 
ATOM     15  H   UNL     1      -0.618  -2.652  -3.315  0.00  0.00    +0.174 HD
BRANCH  14  19
ATOM     16  C   UNL     1      -0.737   1.389  -0.160  0.00  0.00    +0.045 C 
ATOM     17  C   UNL     1      -0.558  -0.107  -0.161  0.00  0.00    -0.035 A 
ATOM     18  C   UNL     1      -0.383  -0.781  -1.354  0.00  0.00    +0.029 A 
ATOM     19  C   UNL     1      -0.217  -2.160  -1.354  0.00  0.00    +0.048 A 
ATOM     20  C   UNL     1      -0.229  -2.858  -0.153  0.00  0.00    +0.025 A 
ATOM     21  C   UNL     1      -0.404  -2.179   1.037  0.00  0.00    +0.017 A 
ATOM     22  C   UNL     1      -0.563  -0.804   1.034  0.00  0.00    +0.021 A 
ATOM     23 BR   UNL     1      -0.795   0.122   2.666  0.00  0.00    -0.050 Br
ENDBRANCH  14  19
ENDBRANCH   1  14
TORSDOF 4
