REMARK  Name = ZINC63537914
REMARK  5 active torsions:
REMARK  status: ('A' for Active; 'I' for Inactive)
REMARK    1  A    between atoms: C_6  and  C_7
REMARK    2  A    between atoms: C_10  and  C_35
REMARK    3  A    between atoms: C_17  and  C_20
REMARK    4  A    between atoms: N_22  and  C_23
REMARK    5  A    between atoms: C_23  and  C_24
REMARK                            x       y       z     vdW  Elec       q    Type
REMARK                         _______ _______ _______ _____ _____    ______ ____
ROOT
ATOM      1  C   UNL     1      -1.309  -0.850  -0.075  0.00  0.00    +0.087 C 
ATOM      2  C   UNL     1      -1.580  -1.258   1.373  0.00  0.00    +0.052 C 
ATOM      3  C   UNL     1      -2.806  -2.182   1.453  0.00  0.00    +0.180 C 
ATOM      4  N   UNL     1      -2.567  -3.302   0.552  0.00  0.00    -0.213 NA
ATOM      5  C   UNL     1      -2.477  -2.789  -0.843  0.00  0.00    +0.142 C 
ATOM      6  N   UNL     1      -1.230  -2.037  -0.949  0.00  0.00    -0.293 NA
ATOM      7  C   UNL     1      -2.513  -4.077  -1.674  0.00  0.00    +0.065 C 
ATOM      8  C   UNL     1      -3.293  -5.070  -0.775  0.00  0.00    +0.158 C 
ATOM      9  N   UNL     1      -3.599  -4.322   0.477  0.00  0.00    -0.240 NA
ATOM     10  H   UNL     1      -1.049  -1.770  -1.905  0.00  0.00    +0.124 HD
ATOM     11  H   UNL     1      -3.563  -4.932   1.280  0.00  0.00    +0.142 HD
ENDROOT
BRANCH   1  17
ATOM     12  C   UNL     1      -0.006   1.284  -0.186  0.00  0.00    +0.006 A 
ATOM     13  C   UNL     1       1.190   1.975  -0.247  0.00  0.00    +0.020 A 
ATOM     14  C   UNL     1       2.388   1.283  -0.264  0.00  0.00    +0.041 A 
ATOM     15  C   UNL     1       2.388  -0.100  -0.220  0.00  0.00    +0.020 A 
ATOM     16  C   UNL     1       1.192  -0.789  -0.159  0.00  0.00    +0.006 A 
ATOM     17  C   UNL     1      -0.005  -0.098  -0.142  0.00  0.00    -0.030 A 
ATOM     18 CL   UNL     1       3.890   2.150  -0.341  0.00  0.00    -0.084 Cl
ENDBRANCH   1  17
BRANCH   8  19
ATOM     19  C   UNL     1      -4.570  -5.495  -1.455  0.00  0.00    +0.232 C 
ATOM     20  O   UNL     1      -5.623  -4.980  -1.143  0.00  0.00    -0.274 OA
ATOM     21  N   UNL     1      -4.541  -6.447  -2.408  0.00  0.00    -0.312 N 
ATOM     22  H   UNL     1      -3.699  -6.859  -2.657  0.00  0.00    +0.149 HD
BRANCH  21  23
ATOM     23  C   UNL     1      -5.782  -6.860  -3.068  0.00  0.00    +0.133 C 
BRANCH  23  24
ATOM     24  C   UNL     1      -5.473  -7.946  -4.101  0.00  0.00    +0.120 C 
ATOM     25  C   UNL     1      -6.758  -8.512  -4.662  0.00  0.00    +0.009 C 
ATOM     26  C   UNL     1      -6.756  -9.828  -4.349  0.00  0.00    -0.003 A 
ATOM     27  C   UNL     1      -7.710 -10.913  -4.608  0.00  0.00    +0.029 A 
ATOM     28  C   UNL     1      -7.425 -12.158  -4.159  0.00  0.00    +0.042 A 
ATOM     29  C   UNL     1      -6.245 -12.435  -3.454  0.00  0.00    +0.022 A 
ATOM     30  C   UNL     1      -5.321 -11.491  -3.178  0.00  0.00    +0.027 A 
ATOM     31  C   UNL     1      -5.517 -10.148  -3.603  0.00  0.00    +0.043 A 
ATOM     32  N   UNL     1      -4.781  -9.070  -3.461  0.00  0.00    -0.376 N 
ATOM     33 CL   UNL     1      -8.551 -13.444  -4.462  0.00  0.00    -0.084 Cl
ATOM     34  H   UNL     1      -3.924  -9.024  -3.009  0.00  0.00    +0.160 HD
ENDBRANCH  23  24
ENDBRANCH  21  23
ENDBRANCH   8  19
BRANCH   3  35
ATOM     35  C   UNL     1      -4.060  -1.421   1.018  0.00  0.00    +0.406 C 
ATOM     36  F   UNL     1      -3.838  -0.829  -0.230  0.00  0.00    -0.169 F 
ATOM     37  F   UNL     1      -5.137  -2.310   0.928  0.00  0.00    -0.169 F 
ATOM     38  F   UNL     1      -4.353  -0.428   1.960  0.00  0.00    -0.169 F 
ENDBRANCH   3  35
TORSDOF 5
