REMARK  Name = ZINC28535727
REMARK  5 active torsions:
REMARK  status: ('A' for Active; 'I' for Inactive)
REMARK    1  A    between atoms: C_4  and  C_7
REMARK    2  A    between atoms: C_7  and  S_8
REMARK    3  A    between atoms: S_8  and  C_9
REMARK    4  A    between atoms: N_15  and  N_16
REMARK    5  A    between atoms: N_17  and  C_18
REMARK                            x       y       z     vdW  Elec       q    Type
REMARK                         _______ _______ _______ _____ _____    ______ ____
ROOT
ATOM      1  C   UNL     1      -1.847  -0.324  -0.911  0.00  0.00    +0.210 A 
ATOM      2  N   UNL     1      -2.670   0.676  -0.664  0.00  0.00    -0.121 NA
ATOM      3  N   UNL     1      -3.905   0.488  -0.366  0.00  0.00    -0.126 NA
ATOM      4  C   UNL     1      -4.414  -0.723  -0.280  0.00  0.00    +0.212 A 
ATOM      5  C   UNL     1      -3.579  -1.845  -0.528  0.00  0.00    +0.312 A 
ATOM      6  O   UNL     1      -4.017  -2.981  -0.458  0.00  0.00    -0.262 OA
ATOM      7  N   UNL     1      -2.284  -1.616  -0.846  0.00  0.00    -0.205 N 
ATOM      8  N   UNL     1      -5.757  -0.902   0.053  0.00  0.00    -0.292 N 
ATOM      9  H   UNL     1      -6.152  -1.915   0.220  0.00  0.00    +0.154 HD
ENDROOT
BRANCH   8  10
ATOM     10  C   UNL     1      -6.602   0.205   0.172  0.00  0.00    +0.051 A 
ATOM     11  C   UNL     1      -6.252   1.414  -0.417  0.00  0.00    +0.026 A 
ATOM     12  C   UNL     1      -7.088   2.506  -0.297  0.00  0.00    +0.022 A 
ATOM     13  C   UNL     1      -8.274   2.399   0.408  0.00  0.00    +0.042 A 
ATOM     14  C   UNL     1      -8.626   1.196   0.996  0.00  0.00    +0.041 A 
ATOM     15  C   UNL     1      -7.796   0.098   0.876  0.00  0.00    +0.063 A 
ATOM     16 CL   UNL     1      -8.241  -1.412   1.607  0.00  0.00    -0.082 Cl
ATOM     17 CL   UNL     1      -9.322   3.775   0.556  0.00  0.00    -0.083 Cl
ENDBRANCH   8  10
BRANCH   7  18
ATOM     18  N   UNL     1      -1.432  -2.654  -1.096  0.00  0.00    -0.293 N 
ATOM     19  H   UNL     1      -1.797  -3.690  -1.040  0.00  0.00    +0.163 HD
ATOM     20  H   UNL     1      -0.382  -2.454  -1.353  0.00  0.00    +0.163 HD
ENDBRANCH   7  18
BRANCH   1  21
ATOM     21  S   UNL     1      -0.167   0.010  -1.323  0.00  0.00    -0.080 S 
BRANCH  21  22
ATOM     22  C   UNL     1      -0.180   1.819  -1.257  0.00  0.00    +0.112 C 
BRANCH  22  26
ATOM     23  C   UNL     1       3.715   3.307  -2.185  0.00  0.00    +0.000 A 
ATOM     24  C   UNL     1       2.793   3.106  -3.195  0.00  0.00    +0.000 A 
ATOM     25  C   UNL     1       1.533   2.624  -2.895  0.00  0.00    +0.004 A 
ATOM     26  C   UNL     1       1.194   2.343  -1.584  0.00  0.00    -0.037 A 
ATOM     27  C   UNL     1       2.114   2.549  -0.573  0.00  0.00    +0.004 A 
ATOM     28  C   UNL     1       3.377   3.026  -0.874  0.00  0.00    +0.000 A 
ENDBRANCH  22  26
ENDBRANCH  21  22
ENDBRANCH   1  21
TORSDOF 5
