REMARK  Name = ZINC13641982
REMARK  15 active torsions:
REMARK  status: ('A' for Active; 'I' for Inactive)
REMARK    1  A    between atoms: C_1  and  C_2
REMARK    2  A    between atoms: C_2  and  N_72
REMARK    3  A    between atoms: C_3  and  C_4
REMARK    4  A    between atoms: C_3  and  N_72
REMARK    5  A    between atoms: C_5  and  C_6
REMARK    6  A    between atoms: C_5  and  N_72
REMARK    7  A    between atoms: C_6  and  N_7
REMARK    8  A    between atoms: C_8  and  C_10
REMARK    9  A    between atoms: C_23  and  C_26
REMARK   10  A    between atoms: C_28  and  O_36
REMARK   11  A    between atoms: C_29  and  O_34
REMARK   12  A    between atoms: C_30  and  O_32
REMARK   13  A    between atoms: O_32  and  C_33
REMARK   14  A    between atoms: O_34  and  C_35
REMARK   15  A    between atoms: O_36  and  C_37
REMARK                            x       y       z     vdW  Elec       q    Type
REMARK                         _______ _______ _______ _____ _____    ______ ____
ROOT
ATOM      1  C   UNL     1      -0.242   1.816   1.771  0.00  0.00    +0.037 A 
ATOM      2  C   UNL     1      -0.154   0.426   1.889  0.00  0.00    +0.015 A 
ATOM      3  C   UNL     1       1.043  -0.149   2.247  0.00  0.00    +0.024 A 
ATOM      4  C   UNL     1       2.159   0.647   2.490  0.00  0.00    +0.031 A 
ATOM      5  C   UNL     1       2.082   2.030   2.377  0.00  0.00    -0.019 A 
ATOM      6  C   UNL     1       0.878   2.610   2.016  0.00  0.00    +0.019 A 
ATOM      7  C   UNL     1       3.257   2.921   2.632  0.00  0.00    +0.049 C 
ATOM      8  C   UNL     1       3.837   3.451   1.343  0.00  0.00    -0.023 C 
ATOM      9  C   UNL     1       5.142   3.532   1.432  0.00  0.00    -0.030 C 
ATOM     10  C   UNL     1       5.611   3.070   2.798  0.00  0.00    +0.033 C 
ATOM     11  C   UNL     1       4.433   2.185   3.302  0.00  0.00    +0.029 C 
ATOM     12  C   UNL     1       4.605   0.799   2.674  0.00  0.00    +0.105 C 
ATOM     13  N   UNL     1       3.362   0.041   2.847  0.00  0.00    -0.336 N 
ATOM     14  H   UNL     1       3.376  -0.862   3.203  0.00  0.00    +0.147 HD
ENDROOT
BRANCH  12  15
ATOM     15  C   UNL     1       4.906   0.945   1.204  0.00  0.00    -0.020 A 
ATOM     16  C   UNL     1       3.878   1.179   0.310  0.00  0.00    +0.055 A 
ATOM     17  C   UNL     1       4.152   1.319  -1.042  0.00  0.00    +0.165 A 
ATOM     18  C   UNL     1       5.460   1.214  -1.499  0.00  0.00    +0.204 A 
ATOM     19  C   UNL     1       6.490   0.973  -0.598  0.00  0.00    +0.165 A 
ATOM     20  C   UNL     1       6.209   0.839   0.754  0.00  0.00    +0.055 A 
BRANCH  19  21
ATOM     21  O   UNL     1       7.772   0.869  -1.040  0.00  0.00    -0.491 OA
ATOM     22  C   UNL     1       8.779   0.620  -0.057  0.00  0.00    +0.277 C 
ENDBRANCH  19  21
BRANCH  18  23
ATOM     23  O   UNL     1       5.732   1.347  -2.826  0.00  0.00    -0.488 OA
ATOM     24  C   UNL     1       5.706   0.156  -3.616  0.00  0.00    +0.277 C 
ENDBRANCH  18  23
BRANCH  17  25
ATOM     25  O   UNL     1       3.141   1.554  -1.921  0.00  0.00    -0.491 OA
ATOM     26  C   UNL     1       1.821   1.651  -1.380  0.00  0.00    +0.277 C 
ENDBRANCH  17  25
ENDBRANCH  12  15
BRANCH   1  28
ATOM     27  N   UNL     1      -2.601   1.677   1.139  0.00  0.00    -0.313 N 
ATOM     28  C   UNL     1      -1.519   2.444   1.381  0.00  0.00    +0.244 C 
ATOM     29  O   UNL     1      -1.596   3.653   1.279  0.00  0.00    -0.270 OA
ATOM     30  H   UNL     1      -2.539   0.712   1.220  0.00  0.00    +0.149 HD
BRANCH  27  31
ATOM     31  C   UNL     1      -3.869   2.300   0.752  0.00  0.00    +0.086 C 
BRANCH  31  32
ATOM     32  C   UNL     1      -4.926   1.215   0.537  0.00  0.00    -0.060 C 
BRANCH  32  33
ATOM     33  N   UNL     1      -6.204   1.860   0.169  0.00  0.00    +0.380 N 
ATOM     34  H   UNL     1      -6.421   2.587   0.860  0.00  0.00    -0.082 HD
BRANCH  33  36
ATOM     35  C   UNL     1      -5.737   1.434  -2.222  0.00  0.00    -0.017 C 
ATOM     36  C   UNL     1      -6.087   2.485  -1.166  0.00  0.00    -0.082 C 
ENDBRANCH  33  36
BRANCH  33  37
ATOM     37  C   UNL     1      -7.292   0.860   0.165  0.00  0.00    -0.082 C 
ATOM     38  C   UNL     1      -8.634   1.594   0.146  0.00  0.00    -0.017 C 
ENDBRANCH  33  37
ENDBRANCH  32  33
ENDBRANCH  31  32
ENDBRANCH  27  31
ENDBRANCH   1  28
TORSDOF 10
