REMARK  Name = ZINC64024376
REMARK  5 active torsions:
REMARK  status: ('A' for Active; 'I' for Inactive)
REMARK    1  A    between atoms: C_1  and  C_2
REMARK    2  A    between atoms: C_2  and  O_3
REMARK    3  A    between atoms: O_3  and  C_4
REMARK    4  A    between atoms: C_7  and  C_10
REMARK    5  A    between atoms: C_25  and  C_27
REMARK                            x       y       z     vdW  Elec       q    Type
REMARK                         _______ _______ _______ _____ _____    ______ ____
ROOT
ATOM      1  C   UNL     1       1.109  -6.040  -1.847  0.00  0.00    +0.133 C 
ATOM      2  C   UNL     1      -0.025  -6.545  -2.745  0.00  0.00    +0.131 C 
ATOM      3  C   UNL     1       0.275  -6.040  -4.151  0.00  0.00    -0.035 C 
ATOM      4  C   UNL     1      -0.791  -5.351  -4.538  0.00  0.00    -0.001 A 
ATOM      5  C   UNL     1      -1.120  -4.688  -5.811  0.00  0.00    +0.010 A 
ATOM      6  C   UNL     1      -2.319  -4.050  -5.862  0.00  0.00    +0.001 A 
ATOM      7  C   UNL     1      -3.213  -4.006  -4.788  0.00  0.00    +0.002 A 
ATOM      8  C   UNL     1      -2.995  -4.591  -3.583  0.00  0.00    +0.026 A 
ATOM      9  C   UNL     1      -1.769  -5.297  -3.409  0.00  0.00    +0.043 A 
ATOM     10  N   UNL     1      -1.317  -5.970  -2.366  0.00  0.00    -0.375 N 
ATOM     11  C   UNL     1       1.602  -6.276  -4.830  0.00  0.00    +0.052 C 
ATOM     12  C   UNL     1       2.693  -5.832  -3.838  0.00  0.00    +0.113 C 
ATOM     13  N   UNL     1       2.385  -6.363  -2.505  0.00  0.00    -0.289 N 
ATOM     14  C   UNL     1       3.277  -7.154  -1.878  0.00  0.00    +0.256 C 
ATOM     15  O   UNL     1       3.027  -7.596  -0.776  0.00  0.00    -0.272 OA
ATOM     16  H   UNL     1      -1.750  -6.068  -1.503  0.00  0.00    +0.160 HD
ENDROOT
BRANCH  14  17
ATOM     17  C   UNL     1       4.586  -7.490  -2.545  0.00  0.00    +0.263 C 
ATOM     18  N   UNL     1       4.397  -8.545  -3.558  0.00  0.00    -0.238 N 
ATOM     19  N   UNL     1       5.206  -9.617  -3.161  0.00  0.00    -0.174 NA
ATOM     20  C   UNL     1       5.831  -9.365  -2.070  0.00  0.00    +0.117 C 
ATOM     21  N   UNL     1       5.514  -8.093  -1.585  0.00  0.00    -0.290 N 
ATOM     22  C   UNL     1       6.016  -7.519  -0.336  0.00  0.00    +0.108 C 
ATOM     23  C   UNL     1       7.267  -8.296   0.091  0.00  0.00    +0.019 C 
ATOM     24  C   UNL     1       6.955  -9.796   0.090  0.00  0.00    +0.009 C 
ATOM     25  C   UNL     1       6.806 -10.287  -1.363  0.00  0.00    +0.073 C 
ATOM     26  H   UNL     1       3.826  -8.504  -4.342  0.00  0.00    +0.171 HD
ENDBRANCH  14  17
BRANCH   1  30
ATOM     27  C   UNL     1       0.777  -1.810  -1.336  0.00  0.00    +0.121 A 
ATOM     28  C   UNL     1       0.700  -2.651  -0.236  0.00  0.00    +0.046 A 
ATOM     29  C   UNL     1       0.808  -4.018  -0.403  0.00  0.00    +0.009 A 
ATOM     30  C   UNL     1       0.992  -4.548  -1.667  0.00  0.00    -0.025 A 
ATOM     31  C   UNL     1       1.069  -3.712  -2.766  0.00  0.00    +0.009 A 
ATOM     32  C   UNL     1       0.956  -2.345  -2.604  0.00  0.00    +0.046 A 
BRANCH  27  33
ATOM     33  O   UNL     1       0.671  -0.465  -1.174  0.00  0.00    -0.492 OA
BRANCH  33  35
ATOM     34  C   UNL     1       0.391   1.542   0.143  0.00  0.00    +0.048 C 
ATOM     35  C   UNL     1       0.488   0.015   0.160  0.00  0.00    +0.225 C 
ENDBRANCH  33  35
ENDBRANCH  27  33
ENDBRANCH   1  30
TORSDOF 4
