REMARK  Name = ZINC63506915
REMARK  11 active torsions:
REMARK  status: ('A' for Active; 'I' for Inactive)
REMARK    1  A    between atoms: C_1  and  C_2
REMARK    2  A    between atoms: C_4  and  C_16
REMARK    3  A    between atoms: C_9  and  C_12
REMARK    4  A    between atoms: C_16  and  C_17
REMARK    5  A    between atoms: C_17  and  N_18
REMARK    6  A    between atoms: C_19  and  C_21
REMARK    7  A    between atoms: C_21  and  C_22
REMARK    8  A    between atoms: C_22  and  C_23
REMARK    9  A    between atoms: C_23  and  C_24
REMARK   10  A    between atoms: C_24  and  C_25
REMARK   11  A    between atoms: C_25  and  N_26
REMARK                            x       y       z     vdW  Elec       q    Type
REMARK                         _______ _______ _______ _____ _____    ______ ____
ROOT
ATOM      1  N   UNL     1      -4.819  -0.827  -1.544  0.00  0.00    -0.315 N 
ATOM      2  C   UNL     1      -6.036  -1.380  -1.371  0.00  0.00    +0.213 C 
ATOM      3  O   UNL     1      -6.258  -2.062  -0.393  0.00  0.00    -0.276 OA
ATOM      4  H   UNL     1      -4.641  -0.281  -2.327  0.00  0.00    +0.149 HD
ENDROOT
BRANCH   1   5
ATOM      5  C   UNL     1      -3.765  -1.049  -0.551  0.00  0.00    +0.108 C 
BRANCH   5   6
ATOM      6  C   UNL     1      -2.494  -0.316  -0.984  0.00  0.00    +0.052 C 
BRANCH   6   9
ATOM      7  C   UNL     1      -0.019   1.526   0.010  0.00  0.00    +0.035 C 
ATOM      8  C   UNL     1       0.002  -0.004   0.002  0.00  0.00    +0.103 C 
ATOM      9  C   UNL     1      -1.410  -0.545   0.038  0.00  0.00    -0.037 C 
ATOM     10  C   UNL     1      -1.503  -1.275   1.173  0.00  0.00    -0.000 A 
ATOM     11  C   UNL     1      -2.599  -2.045   1.772  0.00  0.00    +0.010 A 
ATOM     12  C   UNL     1      -2.386  -2.686   2.944  0.00  0.00    +0.001 A 
ATOM     13  C   UNL     1      -1.148  -2.632   3.599  0.00  0.00    +0.014 A 
ATOM     14  C   UNL     1      -0.094  -1.946   3.110  0.00  0.00    +0.078 A 
ATOM     15  C   UNL     1      -0.205  -1.235   1.884  0.00  0.00    +0.055 A 
ATOM     16  N   UNL     1       0.658  -0.508   1.214  0.00  0.00    -0.377 N 
ATOM     17  H   UNL     1       1.576  -0.332   1.476  0.00  0.00    +0.160 HD
BRANCH  14  18
ATOM     18  C   UNL     1       1.208  -1.932   3.869  0.00  0.00    +0.419 C 
ATOM     19  F   UNL     1       1.077  -2.695   5.034  0.00  0.00    -0.166 F 
ATOM     20  F   UNL     1       2.220  -2.474   3.068  0.00  0.00    -0.166 F 
ATOM     21  F   UNL     1       1.537  -0.616   4.208  0.00  0.00    -0.166 F 
ENDBRANCH  14  18
ENDBRANCH   6   9
ENDBRANCH   5   6
ENDBRANCH   1   5
BRANCH   2  22
ATOM     22  C   UNL     1      -7.120  -1.151  -2.393  0.00  0.00    +0.096 C 
BRANCH  22  23
ATOM     23  C   UNL     1      -8.391  -1.884  -1.960  0.00  0.00    +0.009 C 
BRANCH  23  24
ATOM     24  C   UNL     1      -9.492  -1.652  -2.998  0.00  0.00    +0.002 C 
BRANCH  24  25
ATOM     25  C   UNL     1     -10.763  -2.384  -2.565  0.00  0.00    +0.019 C 
BRANCH  25  26
ATOM     26  C   UNL     1     -11.864  -2.152  -3.602  0.00  0.00    +0.117 C 
BRANCH  26  27
ATOM     27  N   UNL     1     -13.081  -2.854  -3.188  0.00  0.00    -0.234 N 
ATOM     28  C   UNL     1     -13.380  -4.122  -3.521  0.00  0.00    +0.254 C 
ATOM     29  O   UNL     1     -12.693  -4.856  -4.204  0.00  0.00    -0.270 OA
ATOM     30  C   UNL     1     -14.683  -4.474  -2.918  0.00  0.00    +0.049 A 
ATOM     31  C   UNL     1     -15.474  -5.611  -2.919  0.00  0.00    +0.014 A 
ATOM     32  C   UNL     1     -16.678  -5.611  -2.232  0.00  0.00    +0.001 A 
ATOM     33  C   UNL     1     -17.095  -4.484  -1.548  0.00  0.00    +0.001 A 
ATOM     34  C   UNL     1     -16.313  -3.339  -1.539  0.00  0.00    +0.014 A 
ATOM     35  C   UNL     1     -15.107  -3.325  -2.220  0.00  0.00    +0.049 A 
ATOM     36  C   UNL     1     -14.045  -2.316  -2.419  0.00  0.00    +0.254 C 
ATOM     37  O   UNL     1     -14.044  -1.189  -1.965  0.00  0.00    -0.270 OA
ENDBRANCH  26  27
ENDBRANCH  25  26
ENDBRANCH  24  25
ENDBRANCH  23  24
ENDBRANCH  22  23
ENDBRANCH   2  22
TORSDOF 10
