REMARK  Name = ZINC15956250
REMARK  7 active torsions:
REMARK  status: ('A' for Active; 'I' for Inactive)
REMARK    1  A    between atoms: C_1  and  O_2
REMARK    2  A    between atoms: O_2  and  C_3
REMARK    3  A    between atoms: C_7  and  C_9
REMARK    4  A    between atoms: N_27  and  C_30
REMARK    5  A    between atoms: C_35  and  C_36
REMARK    6  A    between atoms: C_36  and  O_38
REMARK    7  A    between atoms: O_38  and  C_39
REMARK                            x       y       z     vdW  Elec       q    Type
REMARK                         _______ _______ _______ _____ _____    ______ ____
ROOT
ATOM      1  C   UNL     1      -0.076   5.351   0.029  0.00  0.00    +0.156 C 
ATOM      2  C   UNL     1      -0.356   5.860   1.430  0.00  0.00    +0.046 A 
ATOM      3  C   UNL     1      -1.345   6.734   1.721  0.00  0.00    -0.015 A 
ATOM      4  C   UNL     1      -1.281   6.972   3.152  0.00  0.00    +0.003 A 
ATOM      5  C   UNL     1      -2.038   7.777   4.010  0.00  0.00    +0.010 A 
ATOM      6  C   UNL     1      -1.695   7.758   5.339  0.00  0.00    +0.001 A 
ATOM      7  C   UNL     1      -0.651   6.984   5.819  0.00  0.00    +0.002 A 
ATOM      8  C   UNL     1       0.114   6.180   4.992  0.00  0.00    +0.026 A 
ATOM      9  C   UNL     1      -0.211   6.179   3.637  0.00  0.00    +0.047 A 
ATOM     10  N   UNL     1       0.323   5.520   2.567  0.00  0.00    -0.356 N 
ATOM     11  H   UNL     1       1.071   4.904   2.607  0.00  0.00    +0.166 HD
ATOM     12  C   UNL     1      -2.317   7.332   0.735  0.00  0.00    +0.069 C 
ATOM     13  C   UNL     1      -1.752   7.196  -0.684  0.00  0.00    +0.170 C 
ATOM     14  N   UNL     1      -1.172   5.841  -0.815  0.00  0.00    -0.260 N 
ATOM     15  C   UNL     1      -1.833   5.220  -1.793  0.00  0.00    +0.317 C 
ATOM     16  O   UNL     1      -1.561   4.105  -2.194  0.00  0.00    -0.252 OA
ATOM     17  N   UNL     1      -2.832   5.968  -2.283  0.00  0.00    -0.192 N 
ATOM     18  C   UNL     1      -2.890   7.175  -1.684  0.00  0.00    +0.248 C 
ATOM     19  O   UNL     1      -3.689   8.060  -1.901  0.00  0.00    -0.273 OA
ENDROOT
BRANCH   1  24
ATOM     20  C   UNL     1       1.179   1.786   0.000  0.00  0.00    +0.120 A 
ATOM     21  C   UNL     1      -0.013   1.076   0.008  0.00  0.00    +0.045 A 
ATOM     22  C   UNL     1      -1.218   1.751   0.017  0.00  0.00    +0.004 A 
ATOM     23  C   UNL     1      -1.237   3.133   0.030  0.00  0.00    +0.006 A 
ATOM     24  C   UNL     1      -0.051   3.844   0.022  0.00  0.00    -0.018 A 
ATOM     25  C   UNL     1       1.157   3.173   0.008  0.00  0.00    +0.051 A 
BRANCH  20  27
ATOM     26  C   UNL     1       2.313  -0.303  -0.022  0.00  0.00    +0.277 C 
ATOM     27  O   UNL     1       2.366   1.125  -0.015  0.00  0.00    -0.495 OA
ENDBRANCH  20  27
ENDBRANCH   1  24
BRANCH  17  28
ATOM     28  C   UNL     1      -3.704   5.549  -3.290  0.00  0.00    +0.059 A 
ATOM     29  C   UNL     1      -3.397   5.788  -4.622  0.00  0.00    +0.025 A 
ATOM     30  C   UNL     1      -4.261   5.374  -5.616  0.00  0.00    +0.002 A 
ATOM     31  C   UNL     1      -5.438   4.718  -5.294  0.00  0.00    +0.001 A 
ATOM     32  C   UNL     1      -5.759   4.471  -3.977  0.00  0.00    +0.017 A 
ATOM     33  C   UNL     1      -4.892   4.880  -2.960  0.00  0.00    +0.081 A 
BRANCH  33  34
ATOM     34  C   UNL     1      -5.227   4.615  -1.549  0.00  0.00    +0.341 C 
ATOM     35  O   UNL     1      -4.472   4.977  -0.667  0.00  0.00    -0.245 OA
BRANCH  34  36
ATOM     36  O   UNL     1      -6.369   3.973  -1.236  0.00  0.00    -0.464 OA
ATOM     37  C   UNL     1      -6.634   3.746   0.173  0.00  0.00    +0.280 C 
ENDBRANCH  34  36
ENDBRANCH  33  34
ENDBRANCH  17  28
TORSDOF 5
