REMARK  Name = ZINC12412761
REMARK  6 active torsions:
REMARK  status: ('A' for Active; 'I' for Inactive)
REMARK    1  A    between atoms: C_1  and  C_2
REMARK    2  A    between atoms: C_2  and  O_3
REMARK    3  A    between atoms: O_3  and  C_4
REMARK    4  A    between atoms: C_4  and  C_6
REMARK    5  A    between atoms: C_7  and  N_34
REMARK    6  A    between atoms: C_24  and  C_27
REMARK                            x       y       z     vdW  Elec       q    Type
REMARK                         _______ _______ _______ _____ _____    ______ ____
ROOT
ATOM      1  C   UNL     1       1.998  -2.805  -1.538  0.00  0.00    +0.117 C 
ATOM      2  C   UNL     1       2.973  -2.022  -2.072  0.00  0.00    +0.195 C 
ATOM      3  O   UNL     1       3.117  -0.741  -1.702  0.00  0.00    -0.446 OA
ATOM      4  C   UNL     1       2.086  -0.079  -1.145  0.00  0.00    +0.116 C 
ATOM      5  C   UNL     1       1.071  -0.735  -0.551  0.00  0.00    +0.057 C 
ATOM      6  C   UNL     1       1.054  -2.241  -0.517  0.00  0.00    +0.141 C 
ATOM      7  C   UNL     1       1.382  -2.744   0.854  0.00  0.00    -0.002 A 
ATOM      8  C   UNL     1       2.511  -2.604   1.632  0.00  0.00    +0.007 A 
ATOM      9  C   UNL     1       2.494  -3.209   2.884  0.00  0.00    +0.000 A 
ATOM     10  C   UNL     1       1.394  -3.916   3.325  0.00  0.00    +0.002 A 
ATOM     11  C   UNL     1       0.254  -4.060   2.549  0.00  0.00    +0.023 A 
ATOM     12  C   UNL     1       0.259  -3.457   1.290  0.00  0.00    +0.038 A 
ATOM     13  N   UNL     1      -0.729  -3.439   0.321  0.00  0.00    -0.284 N 
ATOM     14  C   UNL     1      -0.351  -2.745  -0.773  0.00  0.00    +0.237 C 
ATOM     15  O   UNL     1      -1.011  -2.561  -1.774  0.00  0.00    -0.274 OA
ATOM     16  C   UNL     1       0.002  -0.040   0.047  0.00  0.00    +0.165 C 
ATOM     17  O   UNL     1      -0.903  -0.667   0.560  0.00  0.00    -0.292 OA
ATOM     18  C   UNL     1      -0.041   1.464   0.062  0.00  0.00    +0.088 C 
ATOM     19  C   UNL     1       1.394   2.001   0.027  0.00  0.00    +0.034 C 
ATOM     20  C   UNL     1       2.095   1.431  -1.208  0.00  0.00    +0.083 C 
ATOM     21  H   UNL     1      -1.591  -3.873   0.417  0.00  0.00    +0.155 HD
ENDROOT
BRANCH  19  22
ATOM     22  C   UNL     1       1.370   3.505  -0.054  0.00  0.00    -0.042 A 
ATOM     23  C   UNL     1       1.962   4.261   0.941  0.00  0.00    +0.004 A 
ATOM     24  C   UNL     1       1.940   5.641   0.867  0.00  0.00    +0.002 A 
ATOM     25  C   UNL     1       1.327   6.267  -0.202  0.00  0.00    +0.020 A 
ATOM     26  C   UNL     1       0.735   5.511  -1.198  0.00  0.00    +0.041 A 
ATOM     27  C   UNL     1       0.761   4.130  -1.126  0.00  0.00    +0.024 A 
ATOM     28 CL   UNL     1      -0.035   6.296  -2.542  0.00  0.00    -0.084 Cl
ENDBRANCH  19  22
BRANCH   2  29
ATOM     29  N   UNL     1       3.823  -2.551  -3.006  0.00  0.00    -0.329 N 
ATOM     30  H   UNL     1       3.681  -3.452  -3.336  0.00  0.00    +0.145 HD
ATOM     31  H   UNL     1       4.567  -2.025  -3.337  0.00  0.00    +0.145 HD
ENDBRANCH   2  29
BRANCH   1  32
ATOM     32  C   UNL     1       1.875  -4.144  -1.942  0.00  0.00    +0.342 C 
ATOM     33  O   UNL     1       2.309  -5.036  -1.235  0.00  0.00    -0.245 OA
BRANCH  32  34
ATOM     34  O   UNL     1       1.275  -4.443  -3.115  0.00  0.00    -0.462 OA
BRANCH  34  36
ATOM     35  C   UNL     1       0.480  -5.966  -4.814  0.00  0.00    +0.048 C 
ATOM     36  C   UNL     1       1.185  -5.826  -3.463  0.00  0.00    +0.229 C 
ENDBRANCH  34  36
ENDBRANCH  32  34
ENDBRANCH   1  32
TORSDOF 5
