REMARK  Name = ZINC67541322
REMARK  4 active torsions:
REMARK  status: ('A' for Active; 'I' for Inactive)
REMARK    1  A    between atoms: C_1  and  C_2
REMARK    2  A    between atoms: C_7  and  C_13
REMARK    3  A    between atoms: C_13  and  N_14
REMARK    4  A    between atoms: C_23  and  C_25
REMARK                            x       y       z     vdW  Elec       q    Type
REMARK                         _______ _______ _______ _____ _____    ______ ____
ROOT
ATOM      1  N   UNL     1       1.482  -6.851   1.326  0.00  0.00    -0.283 NA
ATOM      2  C   UNL     1       2.058  -6.445   2.616  0.00  0.00    +0.092 C 
ATOM      3  C   UNL     1       3.586  -6.594   2.566  0.00  0.00    +0.070 C 
ATOM      4  C   UNL     1       3.898  -7.964   2.021  0.00  0.00    +0.040 A 
ATOM      5  C   UNL     1       2.992  -8.736   1.378  0.00  0.00    +0.061 A 
ATOM      6  N   UNL     1       3.594  -9.875   1.034  0.00  0.00    -0.348 N 
ATOM      7  C   UNL     1       4.839  -9.841   1.435  0.00  0.00    +0.171 A 
ATOM      8  N   UNL     1       5.065  -8.659   2.056  0.00  0.00    -0.349 N 
ATOM      9  H   UNL     1       5.900  -8.365   2.451  0.00  0.00    +0.166 HD
ATOM     10  C   UNL     1       1.567  -8.308   1.131  0.00  0.00    +0.172 C 
ATOM     11  H   UNL     1       3.176 -10.612   0.561  0.00  0.00    +0.166 HD
ENDROOT
BRANCH  10  12
ATOM     12  C   UNL     1       1.170  -8.656  -0.281  0.00  0.00    +0.128 A 
ATOM     13  C   UNL     1       0.421  -9.710  -0.650  0.00  0.00    +0.046 A 
ATOM     14  C   UNL     1       0.297  -9.651  -2.057  0.00  0.00    +0.041 A 
ATOM     15  C   UNL     1       0.977  -8.564  -2.463  0.00  0.00    +0.195 A 
ATOM     16  O   UNL     1       1.499  -7.962  -1.382  0.00  0.00    -0.466 OA
ENDBRANCH  10  12
BRANCH   1  17
ATOM     17  C   UNL     1       0.095  -6.383   1.200  0.00  0.00    +0.126 C 
BRANCH  17  24
ATOM     18  C   UNL     1      -0.018   1.503   0.010  0.00  0.00    +0.044 C 
ATOM     19  C   UNL     1       0.002  -0.004   0.002  0.00  0.00    -0.048 A 
ATOM     20  C   UNL     1       0.006  -0.684  -1.208  0.00  0.00    +0.004 A 
ATOM     21  C   UNL     1       0.024  -2.050  -1.238  0.00  0.00    +0.010 A 
ATOM     22  C   UNL     1       0.039  -2.769  -0.039  0.00  0.00    -0.001 A 
ATOM     23  C   UNL     1       0.059  -4.234  -0.034  0.00  0.00    +0.020 A 
ATOM     24  C   UNL     1       0.074  -4.877   1.159  0.00  0.00    +0.031 A 
ATOM     25  C   UNL     1       0.070  -4.142   2.364  0.00  0.00    +0.254 A 
ATOM     26  N   UNL     1       0.051  -2.797   2.370  0.00  0.00    -0.322 N 
ATOM     27  C   UNL     1       0.036  -2.083   1.190  0.00  0.00    +0.049 A 
ATOM     28  C   UNL     1       0.023  -0.692   1.196  0.00  0.00    +0.029 A 
ATOM     29  O   UNL     1       0.083  -4.740   3.426  0.00  0.00    -0.268 OA
ATOM     30  H   UNL     1       0.048  -2.323   3.216  0.00  0.00    +0.169 HD
ENDBRANCH  17  24
ENDBRANCH   1  17
TORSDOF 3
