REMARK  Name = ZINC20082755
REMARK  13 active torsions:
REMARK  status: ('A' for Active; 'I' for Inactive)
REMARK    1  A    between atoms: C_1  and  C_2
REMARK    2  A    between atoms: C_2  and  C_3
REMARK    3  A    between atoms: C_3  and  C_4
REMARK    4  A    between atoms: C_3  and  C_5
REMARK    5  A    between atoms: C_3  and  N_6
REMARK    6  A    between atoms: C_7  and  C_11
REMARK    7  A    between atoms: C_11  and  C_13
REMARK    8  A    between atoms: C_11  and  N_26
REMARK    9  A    between atoms: C_18  and  C_25
REMARK   10  A    between atoms: N_26  and  C_27
REMARK   11  A    between atoms: N_26  and  C_34
REMARK   12  A    between atoms: C_27  and  C_28
REMARK   13  A    between atoms: C_34  and  C_35
REMARK                            x       y       z     vdW  Elec       q    Type
REMARK                         _______ _______ _______ _____ _____    ______ ____
ROOT
ATOM      1  C   UNL     1      -2.592   1.819  -0.329  0.00  0.00    +0.163 C 
ENDROOT
BRANCH   1   2
ATOM      2  C   UNL     1      -3.230   1.950  -1.688  0.00  0.00    +0.042 A 
ATOM      3  C   UNL     1      -3.623   0.839  -2.359  0.00  0.00    +0.021 A 
ATOM      4  C   UNL     1      -4.244   1.001  -3.675  0.00  0.00    -0.001 A 
ATOM      5  C   UNL     1      -4.676  -0.107  -4.413  0.00  0.00    +0.010 A 
ATOM      6  C   UNL     1      -5.247   0.077  -5.640  0.00  0.00    +0.004 A 
ATOM      7  C   UNL     1      -5.405   1.354  -6.161  0.00  0.00    -0.048 A 
ATOM      8  C   UNL     1      -4.987   2.460  -5.452  0.00  0.00    +0.029 A 
ATOM      9  C   UNL     1      -4.402   2.297  -4.201  0.00  0.00    +0.049 A 
ATOM     10  N   UNL     1      -3.976   3.385  -3.470  0.00  0.00    -0.322 N 
ATOM     11  H   UNL     1      -4.096   4.401  -3.875  0.00  0.00    +0.169 HD
ATOM     12  C   UNL     1      -3.411   3.227  -2.260  0.00  0.00    +0.254 A 
ATOM     13  O   UNL     1      -3.047   4.212  -1.641  0.00  0.00    -0.268 OA
ATOM     14  C   UNL     1      -6.039   1.533  -7.516  0.00  0.00    +0.044 C 
ENDBRANCH   1   2
BRANCH   1  16
ATOM     15  N   UNL     1      -0.051   1.620  -0.427  0.00  0.00    -0.222 N 
ATOM     16  C   UNL     1      -1.182   2.349  -0.384  0.00  0.00    +0.174 A 
ATOM     17  N   UNL     1      -0.819   3.608  -0.394  0.00  0.00    -0.111 NA
ATOM     18  N   UNL     1       0.468   3.651  -0.450  0.00  0.00    -0.023 NA
ATOM     19  N   UNL     1       0.935   2.451  -0.470  0.00  0.00    -0.043 NA
BRANCH  15  20
ATOM     20  C   UNL     1       0.043   0.158  -0.431  0.00  0.00    +0.062 C 
ATOM     21  C   UNL     1      -0.516  -0.393   0.882  0.00  0.00    +0.036 C 
ATOM     22  C   UNL     1      -0.765  -0.402  -1.604  0.00  0.00    +0.036 C 
BRANCH  20  24
ATOM     23  C   UNL     1       1.605  -1.786  -0.581  0.00  0.00    +0.006 C 
ATOM     24  C   UNL     1       1.508  -0.259  -0.576  0.00  0.00    +0.026 C 
ENDBRANCH  20  24
ENDBRANCH  15  20
ENDBRANCH   1  16
BRANCH   1  25
ATOM     25  N   UNL     1      -3.367   2.590   0.652  0.00  0.00    -0.280 NA
BRANCH  25  26
ATOM     26  C   UNL     1      -4.806   2.340   0.500  0.00  0.00    +0.121 C 
BRANCH  26  27
ATOM     27  C   UNL     1      -5.579   3.320   1.345  0.00  0.00    -0.033 A 
ATOM     28  C   UNL     1      -5.902   3.002   2.650  0.00  0.00    +0.005 A 
ATOM     29  C   UNL     1      -6.606   3.903   3.427  0.00  0.00    +0.000 A 
ATOM     30  C   UNL     1      -6.996   5.117   2.895  0.00  0.00    +0.000 A 
ATOM     31  C   UNL     1      -6.677   5.433   1.588  0.00  0.00    +0.000 A 
ATOM     32  C   UNL     1      -5.968   4.535   0.812  0.00  0.00    +0.005 A 
ENDBRANCH  26  27
ENDBRANCH  25  26
BRANCH  25  33
ATOM     33  C   UNL     1      -2.924   2.296   2.021  0.00  0.00    +0.128 C 
BRANCH  33  34
ATOM     34  C   UNL     1      -1.674   3.082   2.325  0.00  0.00    +0.004 A 
ATOM     35  C   UNL     1      -1.553   4.371   2.728  0.00  0.00    +0.012 A 
ATOM     36  C   UNL     1      -0.291   4.888   2.950  0.00  0.00    +0.008 A 
ATOM     37  C   UNL     1       0.789   4.091   2.757  0.00  0.00    +0.045 A 
ATOM     38  S   UNL     1       0.030   2.556   2.254  0.00  0.00    -0.100 S 
ENDBRANCH  33  34
ENDBRANCH  25  33
ENDBRANCH   1  25
TORSDOF 9
