REMARK  Name = ZINC28068806
REMARK  3 active torsions:
REMARK  status: ('A' for Active; 'I' for Inactive)
REMARK    1  A    between atoms: C_1  and  C_2
REMARK    2  A    between atoms: N_13  and  C_16
REMARK    3  A    between atoms: C_21  and  O_22
REMARK                            x       y       z     vdW  Elec       q    Type
REMARK                         _______ _______ _______ _____ _____    ______ ____
ROOT
ATOM      1  C   UNL     1      -6.285  -3.774  -0.312  0.00  0.00    +0.067 C 
ATOM      2  C   UNL     1      -5.089  -2.859  -0.251  0.00  0.00    +0.059 A 
ATOM      3  C   UNL     1      -3.802  -3.248  -0.194  0.00  0.00    +0.138 A 
ATOM      4  N   UNL     1      -3.016  -2.103  -0.150  0.00  0.00    -0.212 N 
ATOM      5  C   UNL     1      -3.906  -1.065  -0.185  0.00  0.00    +0.197 A 
ATOM      6  N   UNL     1      -5.125  -1.519  -0.244  0.00  0.00    -0.225 NA
ATOM      7  S   UNL     1      -2.840   0.356  -0.119  0.00  0.00    -0.013 S 
ATOM      8  C   UNL     1      -1.283  -0.518  -0.060  0.00  0.00    +0.184 A 
ATOM      9  N   UNL     1      -1.669  -1.765  -0.086  0.00  0.00    -0.142 NA
ATOM     10  N   UNL     1       0.002  -0.004   0.002  0.00  0.00    -0.305 N 
ATOM     11  C   UNL     1      -0.018   1.465   0.010  0.00  0.00    +0.126 C 
ATOM     12  C   UNL     1       1.419   1.992  -0.001  0.00  0.00    +0.124 C 
ATOM     13  N   UNL     1       2.138   1.472   1.171  0.00  0.00    -0.324 N 
ATOM     14  C   UNL     1       2.158   0.003   1.162  0.00  0.00    +0.124 C 
ATOM     15  C   UNL     1       0.721  -0.525   1.173  0.00  0.00    +0.126 C 
ENDROOT
BRANCH  13  16
ATOM     16  C   UNL     1       3.436   1.991   1.234  0.00  0.00    +0.072 A 
ATOM     17  C   UNL     1       4.353   1.693   0.236  0.00  0.00    +0.027 A 
ATOM     18  C   UNL     1       5.634   2.211   0.298  0.00  0.00    +0.002 A 
ATOM     19  C   UNL     1       6.006   3.017   1.358  0.00  0.00    +0.004 A 
ATOM     20  C   UNL     1       5.099   3.314   2.358  0.00  0.00    +0.047 A 
ATOM     21  C   UNL     1       3.813   2.803   2.301  0.00  0.00    +0.138 A 
BRANCH  21  22
ATOM     22  O   UNL     1       2.920   3.094   3.285  0.00  0.00    -0.505 OA
ATOM     23  H   UNL     1       3.218   3.735   4.127  0.00  0.00    +0.292 HD
ENDBRANCH  21  22
ENDBRANCH  13  16
TORSDOF 2
