REMARK  Name = ZINC00885720
REMARK  7 active torsions:
REMARK  status: ('A' for Active; 'I' for Inactive)
REMARK    1  A    between atoms: C_1  and  O_2
REMARK    2  A    between atoms: O_2  and  C_3
REMARK    3  A    between atoms: C_6  and  C_9
REMARK    4  A    between atoms: C_12  and  C_20
REMARK    5  A    between atoms: C_12  and  O_29
REMARK    6  A    between atoms: C_14  and  C_16
REMARK    7  A    between atoms: C_23  and  N_26
REMARK                            x       y       z     vdW  Elec       q    Type
REMARK                         _______ _______ _______ _____ _____    ______ ____
ROOT
ATOM      1  C   UNL     1      -2.421   1.251   4.267  0.00  0.00    +0.269 C 
ATOM      2  O   UNL     1      -2.816   1.946   5.183  0.00  0.00    -0.268 OA
ATOM      3  N   UNL     1      -1.845   1.820   3.189  0.00  0.00    -0.153 N 
ATOM      4  C   UNL     1      -1.727   3.267   2.943  0.00  0.00    +0.187 C 
ATOM      5  C   UNL     1      -0.997   3.336   1.587  0.00  0.00    +0.123 C 
ATOM      6  C   UNL     1      -0.783   1.886   1.217  0.00  0.00    +0.144 C 
ATOM      7  N   UNL     1      -1.268   1.137   2.121  0.00  0.00    -0.174 NA
ENDROOT
BRANCH   1  11
ATOM      8  C   UNL     1      -2.856  -2.969   4.461  0.00  0.00    +0.120 A 
ATOM      9  C   UNL     1      -3.420  -2.168   5.447  0.00  0.00    +0.046 A 
ATOM     10  C   UNL     1      -3.281  -0.799   5.387  0.00  0.00    +0.016 A 
ATOM     11  C   UNL     1      -2.571  -0.216   4.335  0.00  0.00    +0.039 A 
ATOM     12  C   UNL     1      -2.009  -1.024   3.343  0.00  0.00    +0.016 A 
ATOM     13  C   UNL     1      -2.148  -2.392   3.412  0.00  0.00    +0.046 A 
BRANCH   8  15
ATOM     14  C   UNL     1      -2.390  -5.081   3.477  0.00  0.00    +0.277 C 
ATOM     15  O   UNL     1      -2.995  -4.317   4.522  0.00  0.00    -0.495 OA
ENDBRANCH   8  15
ENDBRANCH   1  11
BRANCH   4  16
ATOM     16  C   UNL     1      -0.908   3.925   4.023  0.00  0.00    +0.004 A 
ATOM     17  C   UNL     1      -0.003   3.180   4.755  0.00  0.00    +0.010 A 
ATOM     18  C   UNL     1       0.752   3.784   5.743  0.00  0.00    +0.033 A 
ATOM     19  C   UNL     1       0.596   5.133   6.004  0.00  0.00    +0.126 A 
ATOM     20  C   UNL     1      -0.313   5.877   5.275  0.00  0.00    +0.033 A 
ATOM     21  C   UNL     1      -1.065   5.273   4.285  0.00  0.00    +0.010 A 
BRANCH  19  22
ATOM     22  N   UNL     1       1.401   5.780   7.064  0.00  0.00    +0.056 N 
ATOM     23  O   UNL     1       1.264   6.968   7.294  0.00  0.00    -0.126 OA
ATOM     24  O   UNL     1       2.202   5.124   7.706  0.00  0.00    -0.126 OA
ENDBRANCH  19  22
ENDBRANCH   4  16
BRANCH   6  25
ATOM     25  C   UNL     1      -0.101   1.402  -0.037  0.00  0.00    +0.432 C 
ATOM     26  F   UNL     1      -0.082   0.003  -0.046  0.00  0.00    -0.165 F 
ATOM     27  F   UNL     1       1.210   1.887  -0.072  0.00  0.00    -0.165 F 
ATOM     28  F   UNL     1      -0.801   1.866  -1.156  0.00  0.00    -0.165 F 
ENDBRANCH   6  25
BRANCH   4  29
ATOM     29  O   UNL     1      -3.018   3.873   2.852  0.00  0.00    -0.366 OA
ATOM     30  H   UNL     1      -3.520   3.856   3.679  0.00  0.00    +0.212 HD
ENDBRANCH   4  29
TORSDOF 6
