REMARK  Name = ZINC39774128
REMARK  6 active torsions:
REMARK  status: ('A' for Active; 'I' for Inactive)
REMARK    1  A    between atoms: C_1  and  C_2
REMARK    2  A    between atoms: C_2  and  C_4
REMARK    3  A    between atoms: C_2  and  S_16
REMARK    4  A    between atoms: N_6  and  C_7
REMARK    5  A    between atoms: S_16  and  C_17
REMARK    6  A    between atoms: C_21  and  C_23
REMARK                            x       y       z     vdW  Elec       q    Type
REMARK                         _______ _______ _______ _____ _____    ______ ____
ROOT
ATOM      1  S   UNL     1      -1.700  -0.636   0.018  0.00  0.00    -0.084 S 
ENDROOT
BRANCH   1   2
ATOM      2  C   UNL     1      -2.385  -0.092  -1.572  0.00  0.00    +0.340 C 
ATOM      3  N   UNL     1      -2.307   1.374  -1.690  0.00  0.00    -0.219 N 
ATOM      4  N   UNL     1      -1.490   1.619  -2.804  0.00  0.00    -0.145 NA
ATOM      5  C   UNL     1      -1.096   0.489  -3.329  0.00  0.00    +0.238 C 
ATOM      6  O   UNL     1      -1.586  -0.585  -2.656  0.00  0.00    -0.443 OA
ATOM      7  H   UNL     1      -2.733   2.033  -1.119  0.00  0.00    +0.173 HD
BRANCH   5   8
ATOM      8  C   UNL     1      -0.267   0.395  -4.455  0.00  0.00    +0.043 C 
ATOM      9  C   UNL     1       0.277   1.448  -5.193  0.00  0.00    +0.008 A 
ATOM     10  C   UNL     1       0.182   2.850  -5.065  0.00  0.00    +0.010 A 
ATOM     11  C   UNL     1       0.832   3.652  -5.947  0.00  0.00    +0.001 A 
ATOM     12  C   UNL     1       1.599   3.125  -6.987  0.00  0.00    +0.002 A 
ATOM     13  C   UNL     1       1.734   1.788  -7.170  0.00  0.00    +0.026 A 
ATOM     14  C   UNL     1       1.084   0.886  -6.288  0.00  0.00    +0.043 A 
ATOM     15  N   UNL     1       1.058  -0.432  -6.251  0.00  0.00    -0.380 N 
ATOM     16  C   UNL     1       0.232  -0.868  -5.121  0.00  0.00    +0.154 C 
ATOM     17  H   UNL     1       1.515  -1.020  -6.872  0.00  0.00    +0.160 HD
ENDBRANCH   5   8
ENDBRANCH   1   2
BRANCH   1  19
ATOM     18  C   UNL     1      -0.016   1.520  -0.004  0.00  0.00    +0.029 C 
ATOM     19  C   UNL     1       0.002  -0.010  -0.001  0.00  0.00    +0.134 C 
BRANCH  19  20
ATOM     20  C   UNL     1       0.731  -0.501   1.224  0.00  0.00    +0.230 C 
ATOM     21  O   UNL     1       0.105  -0.881   2.190  0.00  0.00    -0.274 OA
ATOM     22  N   UNL     1       2.079  -0.519   1.244  0.00  0.00    -0.284 N 
ATOM     23  H   UNL     1       2.579  -0.279   0.448  0.00  0.00    +0.155 HD
BRANCH  22  24
ATOM     24  C   UNL     1       2.757  -0.883   2.414  0.00  0.00    +0.037 A 
ATOM     25  C   UNL     1       3.956  -0.265   2.743  0.00  0.00    +0.027 A 
ATOM     26  C   UNL     1       4.626  -0.623   3.897  0.00  0.00    +0.051 A 
ATOM     27  C   UNL     1       4.103  -1.600   4.730  0.00  0.00    +0.166 A 
ATOM     28  C   UNL     1       2.900  -2.221   4.403  0.00  0.00    +0.168 A 
ATOM     29  C   UNL     1       2.227  -1.857   3.249  0.00  0.00    +0.072 A 
ATOM     30  O   UNL     1       2.604  -3.136   5.372  0.00  0.00    -0.453 OA
ATOM     31  C   UNL     1       3.837  -3.358   6.081  0.00  0.00    +0.466 C 
ATOM     32  O   UNL     1       4.561  -2.126   5.905  0.00  0.00    -0.453 OA
ENDBRANCH  22  24
ENDBRANCH  19  20
ENDBRANCH   1  19
TORSDOF 5
