REMARK  Name = ZINC14456955
REMARK  9 active torsions:
REMARK  status: ('A' for Active; 'I' for Inactive)
REMARK    1  A    between atoms: C_1  and  O_2
REMARK    2  A    between atoms: O_2  and  C_3
REMARK    3  A    between atoms: C_6  and  C_10
REMARK    4  A    between atoms: C_8  and  O_9
REMARK    5  A    between atoms: C_21  and  S_26
REMARK    6  A    between atoms: S_26  and  N_29
REMARK    7  A    between atoms: N_29  and  C_30
REMARK    8  A    between atoms: C_30  and  C_31
REMARK    9  A    between atoms: C_31  and  C_32
REMARK                            x       y       z     vdW  Elec       q    Type
REMARK                         _______ _______ _______ _____ _____    ______ ____
ROOT
ATOM      1  C   UNL     1       5.048   4.080   7.671  0.00  0.00    +0.105 C 
ATOM      2  C   UNL     1       4.427   2.840   7.052  0.00  0.00    +0.029 C 
ATOM      3  C   UNL     1       4.278   1.607   7.953  0.00  0.00    +0.033 C 
ATOM      4  C   UNL     1       3.050   0.928   7.344  0.00  0.00    -0.030 C 
ATOM      5  C   UNL     1       2.290   1.828   6.731  0.00  0.00    -0.023 C 
ATOM      6  C   UNL     1       2.916   3.178   6.873  0.00  0.00    +0.049 C 
ATOM      7  C   UNL     1       2.806   4.230   5.839  0.00  0.00    -0.018 A 
ATOM      8  C   UNL     1       1.747   4.295   4.960  0.00  0.00    +0.034 A 
ATOM      9  C   UNL     1       1.681   5.308   4.021  0.00  0.00    +0.106 A 
ATOM     10  C   UNL     1       2.678   6.266   3.967  0.00  0.00    +0.030 A 
ATOM     11  C   UNL     1       3.744   6.207   4.840  0.00  0.00    +0.025 A 
ATOM     12  C   UNL     1       3.823   5.190   5.784  0.00  0.00    +0.031 A 
ATOM     13  N   UNL     1       4.923   5.141   6.648  0.00  0.00    -0.336 N 
ATOM     14  H   UNL     1       5.617   5.814   6.574  0.00  0.00    +0.147 HD
ENDROOT
BRANCH   1  18
ATOM     15  C   UNL     1       2.916   5.189  11.209  0.00  0.00    +0.161 A 
ATOM     16  C   UNL     1       2.541   5.707   9.979  0.00  0.00    +0.050 A 
ATOM     17  C   UNL     1       3.236   5.351   8.838  0.00  0.00    +0.009 A 
ATOM     18  C   UNL     1       4.298   4.470   8.919  0.00  0.00    -0.023 A 
ATOM     19  C   UNL     1       4.677   3.949  10.142  0.00  0.00    +0.054 A 
ATOM     20  C   UNL     1       3.988   4.307  11.290  0.00  0.00    +0.159 A 
BRANCH  15  22
ATOM     21  C   UNL     1       1.147   6.454  12.173  0.00  0.00    +0.277 C 
ATOM     22  O   UNL     1       2.237   5.544  12.333  0.00  0.00    -0.491 OA
ENDBRANCH  15  22
BRANCH  20  23
ATOM     23  O   UNL     1       4.360   3.795  12.495  0.00  0.00    -0.503 OA
ATOM     24  H   UNL     1       5.018   4.328  12.962  0.00  0.00    +0.292 HD
ENDBRANCH  20  23
ENDBRANCH   1  18
BRANCH   9  25
ATOM     25  S   UNL     1       0.325   5.383   2.899  0.00  0.00    +0.058 S 
ATOM     26  O   UNL     1       0.215   6.738   2.484  0.00  0.00    -0.153 OA
ATOM     27  O   UNL     1      -0.750   4.685   3.514  0.00  0.00    -0.153 OA
BRANCH  25  28
ATOM     28  N   UNL     1       0.750   4.510   1.558  0.00  0.00    -0.190 NA
ATOM     29  H   UNL     1       0.855   4.956   0.703  0.00  0.00    +0.148 HD
BRANCH  28  30
ATOM     30  C   UNL     1       0.968   3.065   1.663  0.00  0.00    +0.110 C 
BRANCH  30  31
ATOM     31  C   UNL     1       0.977   2.448   0.263  0.00  0.00    +0.052 C 
BRANCH  31  32
ATOM     32  C   UNL     1       1.200   0.961   0.371  0.00  0.00    -0.046 A 
ATOM     33  C   UNL     1       0.120   0.107   0.489  0.00  0.00    +0.003 A 
ATOM     34  C   UNL     1       0.326  -1.257   0.588  0.00  0.00    +0.000 A 
ATOM     35  C   UNL     1       1.611  -1.766   0.568  0.00  0.00    +0.000 A 
ATOM     36  C   UNL     1       2.691  -0.911   0.449  0.00  0.00    +0.000 A 
ATOM     37  C   UNL     1       2.486   0.453   0.351  0.00  0.00    +0.003 A 
ENDBRANCH  31  32
ENDBRANCH  30  31
ENDBRANCH  28  30
ENDBRANCH  25  28
ENDBRANCH   9  25
TORSDOF 8
