REMARK  Name = ZINC03295254
REMARK  10 active torsions:
REMARK  status: ('A' for Active; 'I' for Inactive)
REMARK    1  A    between atoms: C_1  and  C_2
REMARK    2  A    between atoms: C_2  and  O_3
REMARK    3  A    between atoms: O_3  and  C_4
REMARK    4  A    between atoms: C_4  and  C_6
REMARK    5  A    between atoms: C_10  and  N_11
REMARK    6  A    between atoms: C_12  and  C_14
REMARK    7  A    between atoms: C_15  and  N_28
REMARK    8  A    between atoms: N_16  and  C_20
REMARK    9  A    between atoms: C_23  and  O_26
REMARK   10  A    between atoms: O_26  and  C_27
REMARK                            x       y       z     vdW  Elec       q    Type
REMARK                         _______ _______ _______ _____ _____    ______ ____
ROOT
ATOM      1  N   UNL     1      -1.289   1.181   4.957  0.00  0.00    -0.275 N 
ATOM      2  C   UNL     1      -2.065   1.843   5.837  0.00  0.00    +0.259 C 
ATOM      3  O   UNL     1      -2.762   2.769   5.459  0.00  0.00    -0.269 OA
ATOM      4  H   UNL     1      -0.734   0.444   5.258  0.00  0.00    +0.156 HD
ENDROOT
BRANCH   1   9
ATOM      5  C   UNL     1      -0.558   0.998   2.576  0.00  0.00    +0.091 A 
ATOM      6  C   UNL     1      -0.732   1.580   1.257  0.00  0.00    -0.021 A 
ATOM      7  C   UNL     1      -1.601   2.614   1.194  0.00  0.00    -0.004 A 
ATOM      8  S   UNL     1      -2.178   2.821   2.855  0.00  0.00    -0.077 S 
ATOM      9  C   UNL     1      -1.283   1.552   3.623  0.00  0.00    +0.087 A 
ATOM     10  C   UNL     1      -1.979   3.404  -0.021  0.00  0.00    +0.043 C 
ATOM     11  C   UNL     1      -0.956   3.111  -1.127  0.00  0.00    +0.005 C 
ATOM     12  C   UNL     1      -0.758   1.595  -1.227  0.00  0.00    +0.005 C 
ATOM     13  C   UNL     1      -0.013   1.086   0.008  0.00  0.00    +0.037 C 
BRANCH   5  14
ATOM     14  C   UNL     1       0.350  -0.130   2.793  0.00  0.00    +0.342 C 
ATOM     15  O   UNL     1      -0.062  -1.270   2.693  0.00  0.00    -0.245 OA
BRANCH  14  16
ATOM     16  O   UNL     1       1.643   0.096   3.105  0.00  0.00    -0.461 OA
BRANCH  16  18
ATOM     17  C   UNL     1       3.906  -0.619   3.649  0.00  0.00    +0.048 C 
ATOM     18  C   UNL     1       2.485  -1.070   3.307  0.00  0.00    +0.229 C 
ENDBRANCH  16  18
ENDBRANCH  14  16
ENDBRANCH   5  14
ENDBRANCH   1   9
BRANCH   2  19
ATOM     19  C   UNL     1      -2.071   1.465   7.196  0.00  0.00    +0.115 A 
ATOM     20  C   UNL     1      -2.780   2.000   8.245  0.00  0.00    +0.121 A 
ATOM     21  N   UNL     1      -2.607   1.451   9.465  0.00  0.00    -0.285 N 
ATOM     22  C   UNL     1      -1.759   0.411   9.620  0.00  0.00    +0.132 A 
ATOM     23  S   UNL     1      -1.372  -0.449  11.048  0.00  0.00    -0.024 S 
ATOM     24  S   UNL     1      -1.166   0.159   8.009  0.00  0.00    -0.055 S 
BRANCH  21  25
ATOM     25  C   UNL     1      -3.306   1.959  10.571  0.00  0.00    +0.050 A 
ATOM     26  C   UNL     1      -3.053   3.248  11.019  0.00  0.00    +0.030 A 
ATOM     27  C   UNL     1      -3.745   3.750  12.104  0.00  0.00    +0.047 A 
ATOM     28  C   UNL     1      -4.685   2.962  12.752  0.00  0.00    +0.120 A 
ATOM     29  C   UNL     1      -4.933   1.671  12.308  0.00  0.00    +0.047 A 
ATOM     30  C   UNL     1      -4.246   1.170  11.220  0.00  0.00    +0.030 A 
BRANCH  28  31
ATOM     31  O   UNL     1      -5.362   3.454  13.823  0.00  0.00    -0.495 OA
ATOM     32  C   UNL     1      -5.056   4.790  14.226  0.00  0.00    +0.277 C 
ENDBRANCH  28  31
ENDBRANCH  21  25
BRANCH  20  33
ATOM     33  N   UNL     1      -3.638   3.061   8.056  0.00  0.00    -0.343 N 
ATOM     34  H   UNL     1      -3.750   3.443   7.171  0.00  0.00    +0.144 HD
ATOM     35  H   UNL     1      -4.131   3.426   8.808  0.00  0.00    +0.144 HD
ENDBRANCH  20  33
ENDBRANCH   2  19
TORSDOF 8
