REMARK  Name = ZINC37146037
REMARK  7 active torsions:
REMARK  status: ('A' for Active; 'I' for Inactive)
REMARK    1  A    between atoms: C_1  and  C_2
REMARK    2  A    between atoms: C_2  and  C_3
REMARK    3  A    between atoms: C_3  and  C_4
REMARK    4  A    between atoms: C_4  and  N_5
REMARK    5  A    between atoms: N_5  and  C_6
REMARK    6  A    between atoms: N_5  and  C_7
REMARK    7  A    between atoms: C_13  and  C_15
REMARK                            x       y       z     vdW  Elec       q    Type
REMARK                         _______ _______ _______ _____ _____    ______ ____
ROOT
ATOM      1  C   UNL     1       1.342  -3.966  -2.543  0.00  0.00    -0.052 C 
ATOM      2  C   UNL     1       2.058  -4.459  -3.802  0.00  0.00    -0.014 C 
ATOM      3  C   UNL     1       1.970  -5.985  -3.873  0.00  0.00    -0.001 C 
ATOM      4  C   UNL     1       0.501  -6.410  -3.923  0.00  0.00    +0.001 C 
ATOM      5  C   UNL     1      -0.215  -5.916  -2.664  0.00  0.00    +0.017 C 
ATOM      6  C   UNL     1      -0.127  -4.391  -2.592  0.00  0.00    +0.078 C 
ENDROOT
BRANCH   1   7
ATOM      7  N   UNL     1       1.427  -2.501  -2.474  0.00  0.00    +0.381 N 
ATOM      8  C   UNL     1       2.837  -2.094  -2.426  0.00  0.00    -0.096 C 
ATOM      9  H   UNL     1       0.988  -2.100  -3.289  0.00  0.00    -0.082 HD
BRANCH   7  10
ATOM     10  C   UNL     1       0.739  -2.027  -1.265  0.00  0.00    -0.079 C 
BRANCH  10  11
ATOM     11  C   UNL     1       0.718  -0.497  -1.257  0.00  0.00    -0.019 C 
BRANCH  11  13
ATOM     12  C   UNL     1      -0.019   1.526   0.010  0.00  0.00    +0.004 C 
ATOM     13  C   UNL     1       0.002  -0.004   0.002  0.00  0.00    -0.005 C 
ENDBRANCH  11  13
ENDBRANCH  10  11
ENDBRANCH   7  10
ENDBRANCH   1   7
BRANCH   6  14
ATOM     14  C   UNL     1      -0.767  -3.806  -3.782  0.00  0.00    +0.064 C 
ATOM     15  N   UNL     1      -1.261  -3.354  -4.700  0.00  0.00    -0.196 NA
ENDBRANCH   6  14
TORSDOF 5
