REMARK  Name = ZINC06443942
REMARK  7 active torsions:
REMARK  status: ('A' for Active; 'I' for Inactive)
REMARK    1  A    between atoms: C_1  and  C_2
REMARK    2  A    between atoms: C_12  and  C_14
REMARK    3  A    between atoms: C_14  and  C_16
REMARK    4  A    between atoms: C_14  and  N_70
REMARK    5  A    between atoms: N_20  and  C_21
REMARK    6  A    between atoms: C_28  and  C_31
REMARK    7  A    between atoms: C_31  and  C_32
REMARK                            x       y       z     vdW  Elec       q    Type
REMARK                         _______ _______ _______ _____ _____    ______ ____
ROOT
ATOM      1  C   UNL     1       0.086  -2.865   4.922  0.00  0.00    +0.039 C 
ENDROOT
BRANCH   1  13
ATOM      2  C   UNL     1       0.017   1.643   0.138  0.00  0.00    +0.046 C 
ATOM      3  C   UNL     1      -0.084   0.140   0.091  0.00  0.00    -0.026 A 
ATOM      4  C   UNL     1      -0.223  -0.507  -1.119  0.00  0.00    +0.005 A 
ATOM      5  C   UNL     1      -0.311  -1.891  -1.176  0.00  0.00    +0.001 A 
ATOM      6  C   UNL     1      -0.273  -2.638  -0.033  0.00  0.00    +0.010 A 
ATOM      7  C   UNL     1      -0.139  -2.003   1.206  0.00  0.00    -0.001 A 
ATOM      8  C   UNL     1      -0.043  -0.600   1.268  0.00  0.00    +0.052 A 
ATOM      9  N   UNL     1       0.091   0.021   2.492  0.00  0.00    -0.322 N 
ATOM     10  H   UNL     1       0.157   0.988   2.532  0.00  0.00    +0.169 HD
ATOM     11  C   UNL     1       0.130  -0.694   3.629  0.00  0.00    +0.251 A 
ATOM     12  O   UNL     1       0.248  -0.112   4.694  0.00  0.00    -0.268 OA
ATOM     13  C   UNL     1       0.038  -2.103   3.622  0.00  0.00    +0.011 A 
ATOM     14  C   UNL     1      -0.094  -2.773   2.451  0.00  0.00    +0.017 A 
ENDBRANCH   1  13
BRANCH   1  20
ATOM     15  C   UNL     1       1.293  -3.085   7.009  0.00  0.00    -0.077 C 
ATOM     16  C   UNL     1       2.478  -2.545   7.812  0.00  0.00    -0.015 C 
ATOM     17  C   UNL     1       3.780  -2.874   7.076  0.00  0.00    -0.010 C 
ATOM     18  C   UNL     1       3.728  -2.269   5.670  0.00  0.00    -0.015 C 
ATOM     19  C   UNL     1       2.507  -2.817   4.929  0.00  0.00    -0.077 C 
ATOM     20  N   UNL     1       1.286  -2.446   5.676  0.00  0.00    +0.389 N 
ATOM     21  H   UNL     1       1.266  -1.426   5.795  0.00  0.00    -0.080 HD
BRANCH  17  22
ATOM     22  C   UNL     1       4.965  -2.284   7.843  0.00  0.00    +0.038 C 
BRANCH  22  23
ATOM     23  C   UNL     1       5.088  -2.968   9.181  0.00  0.00    -0.047 A 
ATOM     24  C   UNL     1       4.425  -2.458  10.281  0.00  0.00    +0.003 A 
ATOM     25  C   UNL     1       4.535  -3.087  11.507  0.00  0.00    +0.000 A 
ATOM     26  C   UNL     1       5.314  -4.222  11.634  0.00  0.00    +0.000 A 
ATOM     27  C   UNL     1       5.981  -4.729  10.534  0.00  0.00    +0.000 A 
ATOM     28  C   UNL     1       5.868  -4.102   9.308  0.00  0.00    +0.003 A 
ENDBRANCH  22  23
ENDBRANCH  17  22
ENDBRANCH   1  20
BRANCH   1  29
ATOM     29  C   UNL     1      -1.141  -2.546   5.737  0.00  0.00    +0.143 A 
ATOM     30  N   UNL     1      -1.372  -1.442   6.404  0.00  0.00    -0.115 NA
ATOM     31  N   UNL     1      -2.526  -1.552   6.967  0.00  0.00    -0.023 NA
ATOM     32  N   UNL     1      -3.033  -2.701   6.682  0.00  0.00    -0.044 NA
ATOM     33  N   UNL     1      -2.209  -3.343   5.926  0.00  0.00    -0.227 N 
BRANCH  33  34
ATOM     34  C   UNL     1      -2.399  -4.688   5.376  0.00  0.00    +0.111 C 
ATOM     35  C   UNL     1      -3.689  -4.736   4.531  0.00  0.00    +0.027 C 
ATOM     36  C   UNL     1      -4.281  -6.138   4.822  0.00  0.00    +0.002 C 
ATOM     37  C   UNL     1      -3.978  -6.332   6.328  0.00  0.00    +0.002 C 
ATOM     38  C   UNL     1      -2.583  -5.703   6.518  0.00  0.00    +0.027 C 
ENDBRANCH  33  34
ENDBRANCH   1  29
TORSDOF 6
