REMARK  Name = ZINC39609516
REMARK  9 active torsions:
REMARK  status: ('A' for Active; 'I' for Inactive)
REMARK    1  A    between atoms: C_1  and  C_2
REMARK    2  A    between atoms: C_2  and  O_3
REMARK    3  A    between atoms: O_3  and  C_4
REMARK    4  A    between atoms: C_8  and  C_10
REMARK    5  A    between atoms: C_10  and  C_11
REMARK    6  A    between atoms: C_11  and  N_12
REMARK    7  A    between atoms: C_13  and  C_15
REMARK    8  A    between atoms: C_26  and  C_28
REMARK    9  A    between atoms: C_34  and  C_36
REMARK                            x       y       z     vdW  Elec       q    Type
REMARK                         _______ _______ _______ _____ _____    ______ ____
ROOT
ATOM      1  C   UNL     1       1.817  -5.780  -8.548  0.00  0.00    +0.100 C 
ATOM      2  C   UNL     1       2.792  -4.739  -9.142  0.00  0.00    +0.121 C 
ATOM      3  N   UNL     1       2.708  -4.941 -10.608  0.00  0.00    -0.300 N 
ATOM      4  C   UNL     1       1.270  -5.198 -10.862  0.00  0.00    +0.115 C 
ATOM      5  C   UNL     1       0.819  -6.078  -9.679  0.00  0.00    -0.004 C 
ATOM      6  C   UNL     1      -0.595  -5.699  -9.249  0.00  0.00    -0.010 C 
ATOM      7  C   UNL     1      -1.577  -6.059 -10.368  0.00  0.00    -0.082 C 
ATOM      8  N   UNL     1      -1.498  -7.497 -10.648  0.00  0.00    +0.379 N 
ATOM      9  C   UNL     1      -0.161  -7.837 -11.150  0.00  0.00    -0.082 C 
ATOM     10  C   UNL     1       0.881  -7.553 -10.064  0.00  0.00    -0.010 C 
ATOM     11  C   UNL     1       3.711  -4.901 -11.507  0.00  0.00    +0.219 C 
ATOM     12  O   UNL     1       3.479  -5.088 -12.682  0.00  0.00    -0.275 OA
ATOM     13  H   UNL     1      -1.678  -8.014  -9.800  0.00  0.00    -0.086 HD
ATOM     14  H   UNL     1      -2.188  -7.742 -11.342  0.00  0.00    -0.086 HD
ENDROOT
BRANCH  11  15
ATOM     15  C   UNL     1       5.120  -4.624 -11.051  0.00  0.00    +0.078 C 
ATOM     16  C   UNL     1       5.176  -3.254 -10.371  0.00  0.00    +0.032 C 
ATOM     17  C   UNL     1       6.603  -2.991  -9.878  0.00  0.00    +0.108 C 
ATOM     18  N   UNL     1       7.529  -3.142 -11.009  0.00  0.00    -0.302 N 
ATOM     19  C   UNL     1       7.495  -4.387 -11.789  0.00  0.00    +0.108 C 
ATOM     20  C   UNL     1       6.059  -4.634 -12.260  0.00  0.00    +0.032 C 
ATOM     21  C   UNL     1       8.393  -2.157 -11.325  0.00  0.00    +0.212 C 
ATOM     22  O   UNL     1       9.080  -2.249 -12.320  0.00  0.00    -0.276 OA
ATOM     23  C   UNL     1       8.506  -0.941 -10.441  0.00  0.00    +0.109 C 
ENDBRANCH  11  15
BRANCH   1  25
ATOM     24  N   UNL     1       0.538  -6.027  -6.445  0.00  0.00    -0.315 N 
ATOM     25  C   UNL     1       1.101  -5.206  -7.353  0.00  0.00    +0.218 C 
ATOM     26  O   UNL     1       1.030  -4.003  -7.209  0.00  0.00    -0.275 OA
ATOM     27  H   UNL     1       0.595  -6.989  -6.560  0.00  0.00    +0.149 HD
BRANCH  24  28
ATOM     28  C   UNL     1      -0.159  -5.469  -5.284  0.00  0.00    +0.109 C 
BRANCH  28  29
ATOM     29  C   UNL     1      -0.700  -6.608  -4.417  0.00  0.00    +0.054 C 
BRANCH  29  34
ATOM     30  C   UNL     1      -1.382  -5.255  -0.956  0.00  0.00    +0.121 A 
ATOM     31  C   UNL     1      -2.740  -4.978  -1.032  0.00  0.00    +0.045 A 
ATOM     32  C   UNL     1      -3.430  -5.228  -2.202  0.00  0.00    +0.004 A 
ATOM     33  C   UNL     1      -2.769  -5.755  -3.296  0.00  0.00    +0.004 A 
ATOM     34  C   UNL     1      -1.417  -6.033  -3.223  0.00  0.00    -0.042 A 
ATOM     35  C   UNL     1      -0.721  -5.779  -2.057  0.00  0.00    +0.049 A 
BRANCH  30  36
ATOM     36  O   UNL     1      -0.701  -5.009   0.194  0.00  0.00    -0.492 OA
BRANCH  36  38
ATOM     37  C   UNL     1      -0.517  -4.261   2.485  0.00  0.00    +0.048 C 
ATOM     38  C   UNL     1      -1.447  -4.469   1.287  0.00  0.00    +0.225 C 
ENDBRANCH  36  38
ENDBRANCH  30  36
ENDBRANCH  29  34
ENDBRANCH  28  29
ENDBRANCH  24  28
ENDBRANCH   1  25
TORSDOF 7
