REMARK  Name = ZINC13165916
REMARK  4 active torsions:
REMARK  status: ('A' for Active; 'I' for Inactive)
REMARK    1  A    between atoms: C_4  and  C_7
REMARK    2  A    between atoms: C_7  and  N_8
REMARK    3  A    between atoms: N_25  and  O_27
REMARK    4  A    between atoms: C_29  and  N_30
REMARK                            x       y       z     vdW  Elec       q    Type
REMARK                         _______ _______ _______ _____ _____    ______ ____
ROOT
ATOM      1  N   UNL     1       4.145  -0.952   1.343  0.00  0.00    -0.341 N 
ATOM      2  C   UNL     1       4.115  -2.175   1.841  0.00  0.00    +0.053 C 
ATOM      3  C   UNL     1       3.705  -3.252   1.008  0.00  0.00    +0.026 C 
ATOM      4  C   UNL     1       3.617  -4.534   1.326  0.00  0.00    +0.002 C 
ATOM      5  C   UNL     1       3.870  -5.206   2.484  0.00  0.00    +0.000 C 
ATOM      6  C   UNL     1       4.298  -4.741   3.674  0.00  0.00    +0.001 C 
ATOM      7  C   UNL     1       4.590  -3.452   4.025  0.00  0.00    +0.017 C 
ATOM      8  C   UNL     1       4.517  -2.343   3.247  0.00  0.00    +0.034 C 
ATOM      9  S   UNL     1       4.922  -0.685   3.775  0.00  0.00    -0.082 S 
ATOM     10  C   UNL     1       4.573   0.165   2.185  0.00  0.00    +0.183 C 
ATOM     11  C   UNL     1       3.452   1.140   2.385  0.00  0.00    +0.093 A 
ATOM     12  C   UNL     1       3.698   2.511   2.446  0.00  0.00    +0.030 A 
ATOM     13  C   UNL     1       2.644   3.399   2.649  0.00  0.00    +0.013 A 
ATOM     14  C   UNL     1       1.366   2.877   2.776  0.00  0.00    +0.020 A 
ATOM     15  C   UNL     1       1.193   1.507   2.697  0.00  0.00    +0.111 A 
ATOM     16  N   UNL     1       2.213   0.695   2.509  0.00  0.00    -0.256 NA
ATOM     17  C   UNL     1       5.086   3.008   2.278  0.00  0.00    +0.132 C 
ATOM     18  N   UNL     1       5.416   4.221   2.627  0.00  0.00    +0.007 N 
ATOM     19  O   UNL     1       4.486   5.038   3.314  0.00  0.00    -0.130 OA
ATOM     20  C   UNL     1       6.082   2.079   1.702  0.00  0.00    +0.065 C 
ATOM     21  C   UNL     1       5.825   0.783   1.663  0.00  0.00    +0.148 C 
ENDROOT
BRANCH  21  22
ATOM     22  N   UNL     1       6.844  -0.109   1.065  0.00  0.00    +0.056 N 
ATOM     23  O   UNL     1       7.873   0.353   0.630  0.00  0.00    -0.126 OA
ATOM     24  O   UNL     1       6.647  -1.301   1.010  0.00  0.00    -0.126 OA
ENDBRANCH  21  22
BRANCH  18  25
ATOM     25  O   UNL     1       6.704   4.721   2.318  0.00  0.00    -0.396 OA
ATOM     26  H   UNL     1       6.856   5.629   2.616  0.00  0.00    +0.329 HD
ENDBRANCH  18  25
BRANCH   1  27
ATOM     27  C   UNL     1       3.755  -0.716  -0.050  0.00  0.00    +0.153 C 
BRANCH  27  31
ATOM     28  C   UNL     1       0.174   1.611  -0.153  0.00  0.00    +0.000 A 
ATOM     29  C   UNL     1       1.406   2.238  -0.148  0.00  0.00    +0.000 A 
ATOM     30  C   UNL     1       2.565   1.485  -0.114  0.00  0.00    +0.005 A 
ATOM     31  C   UNL     1       2.492   0.105  -0.085  0.00  0.00    -0.028 A 
ATOM     32  C   UNL     1       1.260  -0.522  -0.090  0.00  0.00    +0.005 A 
ATOM     33  C   UNL     1       0.101   0.231  -0.125  0.00  0.00    +0.000 A 
ENDBRANCH  27  31
ENDBRANCH   1  27
TORSDOF 4
