REMARK  Name = ZINC02094444
REMARK  8 active torsions:
REMARK  status: ('A' for Active; 'I' for Inactive)
REMARK    1  A    between atoms: C_1  and  C_2
REMARK    2  A    between atoms: C_6  and  N_9
REMARK    3  A    between atoms: C_7  and  C_8
REMARK    4  A    between atoms: C_10  and  C_12
REMARK    5  A    between atoms: C_12  and  C_14
REMARK    6  A    between atoms: C_12  and  N_18
REMARK    7  A    between atoms: C_14  and  C_16
REMARK    8  A    between atoms: C_14  and  C_17
REMARK                            x       y       z     vdW  Elec       q    Type
REMARK                         _______ _______ _______ _____ _____    ______ ____
ROOT
ATOM      1  N   UNL     1      -3.432  -2.496  -0.305  0.00  0.00    -0.288 N 
ATOM      2  C   UNL     1      -4.319  -3.315  -0.904  0.00  0.00    +0.303 C 
ATOM      3  O   UNL     1      -5.309  -2.853  -1.436  0.00  0.00    -0.253 OA
ATOM      4  N   UNL     1      -4.108  -4.646  -0.913  0.00  0.00    -0.285 N 
ATOM      5  C   UNL     1      -2.865  -5.213  -0.375  0.00  0.00    +0.114 C 
ATOM      6  C   UNL     1      -2.247  -6.174  -1.381  0.00  0.00    +0.027 C 
ATOM      7  C   UNL     1      -3.280  -7.185  -1.881  0.00  0.00    +0.018 C 
ATOM      8  C   UNL     1      -4.429  -6.417  -2.539  0.00  0.00    +0.054 C 
ATOM      9  C   UNL     1      -5.122  -5.564  -1.456  0.00  0.00    +0.119 C 
ATOM     10  C   UNL     1      -3.880  -5.477  -3.586  0.00  0.00    +0.027 A 
ATOM     11  C   UNL     1      -4.714  -5.112  -4.596  0.00  0.00    +0.022 A 
ATOM     12  C   UNL     1      -4.322  -4.143  -5.526  0.00  0.00    +0.007 A 
ATOM     13  C   UNL     1      -3.094  -3.562  -5.395  0.00  0.00    +0.070 A 
ATOM     14  C   UNL     1      -2.254  -3.972  -4.351  0.00  0.00    +0.251 A 
ATOM     15  O   UNL     1      -1.172  -3.427  -4.197  0.00  0.00    -0.268 OA
ATOM     16  N   UNL     1      -2.629  -4.966  -3.509  0.00  0.00    -0.312 N 
ATOM     17  C   UNL     1      -1.626  -5.446  -2.558  0.00  0.00    +0.130 C 
ATOM     18  H   UNL     1      -2.605  -2.856   0.054  0.00  0.00    +0.151 HD
ENDROOT
BRANCH   1  19
ATOM     19  C   UNL     1      -3.715  -1.063  -0.195  0.00  0.00    +0.163 C 
BRANCH  19  21
ATOM     20  N   UNL     1      -2.435   1.041   0.033  0.00  0.00    -0.284 N 
ATOM     21  C   UNL     1      -2.420  -0.302  -0.080  0.00  0.00    +0.238 C 
ATOM     22  O   UNL     1      -1.363  -0.898  -0.089  0.00  0.00    -0.273 OA
ATOM     23  H   UNL     1      -3.279   1.511   0.121  0.00  0.00    +0.155 HD
BRANCH  20  29
ATOM     24  C   UNL     1       0.105   5.063   1.275  0.00  0.00    +0.044 C 
ATOM     25  C   UNL     1       0.026   3.709   0.617  0.00  0.00    -0.046 A 
ATOM     26  C   UNL     1       1.142   3.177  -0.003  0.00  0.00    +0.004 A 
ATOM     27  C   UNL     1       1.074   1.935  -0.608  0.00  0.00    +0.002 A 
ATOM     28  C   UNL     1      -0.109   1.223  -0.594  0.00  0.00    +0.023 A 
ATOM     29  C   UNL     1      -1.233   1.757   0.022  0.00  0.00    +0.037 A 
ATOM     30  C   UNL     1      -1.159   3.002   0.634  0.00  0.00    -0.026 A 
ATOM     31  C   UNL     1      -2.374   3.583   1.310  0.00  0.00    +0.046 C 
ENDBRANCH  20  29
ENDBRANCH  19  21
BRANCH  19  32
ATOM     32  C   UNL     1      -4.569  -0.806   1.048  0.00  0.00    +0.012 C 
ATOM     33  C   UNL     1      -5.885  -1.579   0.932  0.00  0.00    +0.009 C 
ATOM     34  C   UNL     1      -3.812  -1.273   2.293  0.00  0.00    +0.009 C 
ENDBRANCH  19  32
ENDBRANCH   1  19
TORSDOF 4
