REMARK  Name = ZINC13149605
REMARK  10 active torsions:
REMARK  status: ('A' for Active; 'I' for Inactive)
REMARK    1  A    between atoms: C_1  and  C_2
REMARK    2  A    between atoms: C_5  and  C_35
REMARK    3  A    between atoms: N_8  and  S_10
REMARK    4  A    between atoms: S_10  and  C_13
REMARK    5  A    between atoms: C_16  and  C_19
REMARK    6  A    between atoms: C_19  and  O_21
REMARK    7  A    between atoms: O_21  and  C_22
REMARK    8  A    between atoms: C_22  and  C_23
REMARK    9  A    between atoms: N_25  and  C_26
REMARK   10  A    between atoms: C_29  and  C_33
REMARK                            x       y       z     vdW  Elec       q    Type
REMARK                         _______ _______ _______ _____ _____    ______ ____
ROOT
ATOM      1  C   UNL     1       7.705   4.867  -0.945  0.00  0.00    +0.106 A 
ATOM      2  C   UNL     1       8.074   3.562  -0.672  0.00  0.00    +0.029 A 
ATOM      3  C   UNL     1       7.108   2.602  -0.451  0.00  0.00    +0.017 A 
ATOM      4  C   UNL     1       5.757   2.949  -0.505  0.00  0.00    +0.059 A 
ATOM      5  C   UNL     1       5.392   4.267  -0.787  0.00  0.00    +0.017 A 
ATOM      6  C   UNL     1       6.368   5.219  -1.000  0.00  0.00    +0.029 A 
ENDROOT
BRANCH   1   7
ATOM      7  S   UNL     1       8.945   6.088  -1.225  0.00  0.00    +0.061 S 
ATOM      8  O   UNL     1       8.354   7.344  -0.921  0.00  0.00    -0.153 OA
ATOM      9  O   UNL     1      10.124   5.625  -0.581  0.00  0.00    -0.153 OA
BRANCH   7  15
ATOM     10  C   UNL     1       8.647   3.448  -3.977  0.00  0.00    +0.009 C 
ATOM     11  C   UNL     1       9.702   4.398  -4.547  0.00  0.00    +0.002 C 
ATOM     12  C   UNL     1       9.049   5.335  -5.565  0.00  0.00    +0.009 C 
ATOM     13  C   UNL     1       7.925   6.124  -4.889  0.00  0.00    +0.002 C 
ATOM     14  C   UNL     1       8.512   6.973  -3.757  0.00  0.00    +0.112 C 
ATOM     15  N   UNL     1       9.265   6.097  -2.850  0.00  0.00    -0.176 NA
ATOM     16  C   UNL     1      10.313   5.232  -3.410  0.00  0.00    +0.112 C 
ATOM     17  C   UNL     1       7.251   7.036  -5.915  0.00  0.00    +0.009 C 
ENDBRANCH   7  15
ENDBRANCH   1   7
BRANCH   4  18
ATOM     18  C   UNL     1       4.718   1.926  -0.270  0.00  0.00    +0.340 C 
ATOM     19  O   UNL     1       5.038   0.779  -0.030  0.00  0.00    -0.245 OA
BRANCH  18  20
ATOM     20  O   UNL     1       3.415   2.264  -0.323  0.00  0.00    -0.452 OA
BRANCH  20  21
ATOM     21  C   UNL     1       2.449   1.207  -0.082  0.00  0.00    +0.328 C 
BRANCH  21  22
ATOM     22  C   UNL     1       1.054   1.770  -0.181  0.00  0.00    +0.255 C 
ATOM     23  O   UNL     1       0.891   2.945  -0.430  0.00  0.00    -0.272 OA
ATOM     24  N   UNL     1      -0.011   0.966   0.007  0.00  0.00    -0.283 N 
ATOM     25  H   UNL     1       0.116   0.012   0.129  0.00  0.00    +0.155 HD
BRANCH  24  26
ATOM     26  C   UNL     1      -1.298   1.505   0.021  0.00  0.00    +0.035 A 
ATOM     27  C   UNL     1      -2.365   0.767  -0.481  0.00  0.00    +0.024 A 
ATOM     28  C   UNL     1      -3.637   1.293  -0.464  0.00  0.00    +0.022 A 
ATOM     29  C   UNL     1      -3.855   2.575   0.048  0.00  0.00    +0.070 A 
ATOM     30  C   UNL     1      -2.780   3.317   0.547  0.00  0.00    +0.060 A 
ATOM     31  C   UNL     1      -1.510   2.781   0.532  0.00  0.00    +0.044 A 
ATOM     32 CL   UNL     1      -3.043   4.911   1.183  0.00  0.00    -0.082 Cl
BRANCH  29  33
ATOM     33  C   UNL     1      -5.176   3.128   0.061  0.00  0.00    +0.101 C 
ATOM     34  N   UNL     1      -6.224   3.566   0.072  0.00  0.00    -0.191 NA
ENDBRANCH  29  33
ENDBRANCH  24  26
ENDBRANCH  21  22
ENDBRANCH  20  21
ENDBRANCH  18  20
ENDBRANCH   4  18
TORSDOF 8
