REMARK  Name = ZINC09581587
REMARK  10 active torsions:
REMARK  status: ('A' for Active; 'I' for Inactive)
REMARK    1  A    between atoms: C_1  and  C_2
REMARK    2  A    between atoms: C_7  and  C_8
REMARK    3  A    between atoms: C_8  and  N_10
REMARK    4  A    between atoms: N_12  and  C_24
REMARK    5  A    between atoms: C_16  and  S_20
REMARK    6  A    between atoms: S_20  and  N_23
REMARK    7  A    between atoms: C_24  and  C_25
REMARK    8  A    between atoms: C_25  and  C_26
REMARK    9  A    between atoms: C_26  and  O_28
REMARK   10  A    between atoms: O_28  and  C_29
REMARK                            x       y       z     vdW  Elec       q    Type
REMARK                         _______ _______ _______ _____ _____    ______ ____
ROOT
ATOM      1  N   UNL     1      -1.051   2.268  -0.685  0.00  0.00    -0.152 NA
ATOM      2  C   UNL     1       0.005   1.498  -0.924  0.00  0.00    +0.167 A 
ATOM      3  N   UNL     1       0.036   0.159  -1.163  0.00  0.00    -0.321 N 
ATOM      4  C   UNL     1       1.242  -0.475  -1.398  0.00  0.00    +0.058 A 
ATOM      5  C   UNL     1       1.475  -1.835  -1.661  0.00  0.00    +0.029 A 
ATOM      6  C   UNL     1       2.750  -2.301  -1.874  0.00  0.00    +0.030 A 
ATOM      7  C   UNL     1       3.842  -1.450  -1.836  0.00  0.00    +0.106 A 
ATOM      8  C   UNL     1       3.642  -0.105  -1.579  0.00  0.00    +0.045 A 
ATOM      9  C   UNL     1       2.366   0.362  -1.365  0.00  0.00    +0.041 A 
ATOM     10  S   UNL     1       1.675   1.959  -1.014  0.00  0.00    -0.052 S 
ENDROOT
BRANCH   7  11
ATOM     11  S   UNL     1       5.467  -2.072  -2.113  0.00  0.00    +0.056 S 
ATOM     12  O   UNL     1       5.321  -3.265  -2.871  0.00  0.00    -0.153 OA
ATOM     13  O   UNL     1       6.250  -0.975  -2.563  0.00  0.00    -0.153 OA
BRANCH  11  14
ATOM     14  N   UNL     1       6.078  -2.518  -0.640  0.00  0.00    -0.204 NA
ATOM     15  H   UNL     1       5.542  -2.408   0.161  0.00  0.00    +0.144 HD
ATOM     16  H   UNL     1       6.972  -2.889  -0.578  0.00  0.00    +0.144 HD
ENDBRANCH  11  14
ENDBRANCH   7  11
BRANCH   1  17
ATOM     17  C   UNL     1      -0.888   3.577  -0.470  0.00  0.00    +0.270 C 
ATOM     18  O   UNL     1       0.228   4.064  -0.494  0.00  0.00    -0.268 OA
BRANCH  17  25
ATOM     19  C   UNL     1      -0.503   6.347   0.270  0.00  0.00    +0.044 C 
ATOM     20  C   UNL     1      -1.891   5.772   0.154  0.00  0.00    -0.038 A 
ATOM     21  C   UNL     1      -2.992   6.568   0.396  0.00  0.00    +0.004 A 
ATOM     22  C   UNL     1      -4.266   6.040   0.296  0.00  0.00    +0.000 A 
ATOM     23  C   UNL     1      -4.446   4.713  -0.054  0.00  0.00    +0.001 A 
ATOM     24  C   UNL     1      -3.354   3.909  -0.304  0.00  0.00    +0.013 A 
ATOM     25  C   UNL     1      -2.066   4.435  -0.204  0.00  0.00    +0.042 A 
ENDBRANCH  17  25
ENDBRANCH   1  17
BRANCH   3  26
ATOM     26  C   UNL     1      -1.209  -0.612  -1.171  0.00  0.00    +0.135 C 
BRANCH  26  27
ATOM     27  C   UNL     1      -1.788  -0.632  -2.587  0.00  0.00    +0.142 C 
BRANCH  27  28
ATOM     28  C   UNL     1      -3.069  -1.425  -2.595  0.00  0.00    +0.309 C 
ATOM     29  O   UNL     1      -3.478  -1.923  -1.573  0.00  0.00    -0.251 OA
BRANCH  28  30
ATOM     30  O   UNL     1      -3.756  -1.578  -3.738  0.00  0.00    -0.468 OA
ATOM     31  C   UNL     1      -4.982  -2.354  -3.671  0.00  0.00    +0.280 C 
ENDBRANCH  28  30
ENDBRANCH  27  28
ENDBRANCH  26  27
ENDBRANCH   3  26
TORSDOF 8
