REMARK  Name = ZINC39711563
REMARK  14 active torsions:
REMARK  status: ('A' for Active; 'I' for Inactive)
REMARK    1  A    between atoms: C_1  and  C_2
REMARK    2  A    between atoms: C_2  and  C_3
REMARK    3  A    between atoms: C_3  and  C_4
REMARK    4  A    between atoms: C_3  and  C_5
REMARK    5  A    between atoms: C_3  and  N_6
REMARK    6  A    between atoms: C_7  and  C_12
REMARK    7  A    between atoms: C_12  and  C_14
REMARK    8  A    between atoms: C_12  and  N_30
REMARK    9  A    between atoms: C_19  and  O_28
REMARK   10  A    between atoms: C_20  and  O_26
REMARK   11  A    between atoms: O_26  and  C_27
REMARK   12  A    between atoms: O_28  and  C_29
REMARK   13  A    between atoms: N_33  and  C_36
REMARK   14  A    between atoms: C_36  and  C_37
REMARK                            x       y       z     vdW  Elec       q    Type
REMARK                         _______ _______ _______ _____ _____    ______ ____
ROOT
ATOM      1  C   UNL     1       2.581   0.124  -3.916  0.00  0.00    +0.115 C 
ENDROOT
BRANCH   1   2
ATOM      2  C   UNL     1       3.277   1.307  -3.240  0.00  0.00    +0.119 C 
ATOM      3  C   UNL     1       3.825   2.208  -4.329  0.00  0.00    -0.003 C 
ATOM      4  C   UNL     1       5.163   2.453  -4.322  0.00  0.00    -0.003 A 
ATOM      5  C   UNL     1       5.770   3.312  -5.342  0.00  0.00    +0.059 A 
ATOM      6  C   UNL     1       7.109   3.534  -5.304  0.00  0.00    +0.162 A 
ATOM      7  C   UNL     1       7.917   2.955  -4.307  0.00  0.00    +0.163 A 
ATOM      8  C   UNL     1       7.400   2.140  -3.326  0.00  0.00    +0.073 A 
ATOM      9  C   UNL     1       6.028   1.856  -3.288  0.00  0.00    +0.044 A 
ATOM     10  N   UNL     1       5.540   1.064  -2.330  0.00  0.00    -0.284 N 
ATOM     11  C   UNL     1       4.260   0.754  -2.234  0.00  0.00    +0.226 C 
ATOM     12  O   UNL     1       3.874   0.026  -1.339  0.00  0.00    -0.275 OA
ATOM     13  H   UNL     1       6.155   0.698  -1.675  0.00  0.00    +0.155 HD
BRANCH   7  14
ATOM     14  O   UNL     1       9.248   3.208  -4.314  0.00  0.00    -0.491 OA
ATOM     15  C   UNL     1      10.029   2.599  -3.284  0.00  0.00    +0.277 C 
ENDBRANCH   7  14
BRANCH   6  16
ATOM     16  O   UNL     1       7.681   4.331  -6.247  0.00  0.00    -0.491 OA
ATOM     17  C   UNL     1       6.813   4.891  -7.235  0.00  0.00    +0.277 C 
ENDBRANCH   6  16
ENDBRANCH   1   2
BRANCH   1  19
ATOM     18  N   UNL     1       1.175  -1.869  -3.452  0.00  0.00    -0.198 NA
ATOM     19  C   UNL     1       2.063  -0.841  -2.847  0.00  0.00    +0.234 C 
ATOM     20  N   UNL     1       1.169  -0.149  -1.904  0.00  0.00    -0.150 NA
ATOM     21  N   UNL     1      -0.007  -0.426  -2.160  0.00  0.00    -0.090 NA
ATOM     22  N   UNL     1      -0.146  -1.270  -3.224  0.00  0.00    -0.269 NA
ATOM     23  H   UNL     1      -0.438  -0.753  -4.040  0.00  0.00    +0.163 HD
ATOM     24  H   UNL     1      -0.820  -1.989  -3.009  0.00  0.00    +0.163 HD
BRANCH  18  25
ATOM     25  C   UNL     1       1.444  -2.018  -4.889  0.00  0.00    +0.035 C 
ATOM     26  C   UNL     1       2.846  -2.597  -5.087  0.00  0.00    +0.029 C 
ATOM     27  C   UNL     1       1.357  -0.650  -5.568  0.00  0.00    +0.029 C 
BRANCH  25  29
ATOM     28  C   UNL     1       0.691  -3.116  -7.003  0.00  0.00    +0.006 C 
ATOM     29  C   UNL     1       0.410  -2.961  -5.506  0.00  0.00    +0.020 C 
ENDBRANCH  25  29
ENDBRANCH  18  25
ENDBRANCH   1  19
BRANCH   1  30
ATOM     30  N   UNL     1       3.537  -0.575  -4.785  0.00  0.00    -0.299 NA
ATOM     31  C   UNL     1       4.737  -0.971  -4.036  0.00  0.00    +0.066 C 
ATOM     32  C   UNL     1       5.679  -1.746  -4.960  0.00  0.00    -0.063 C 
ATOM     33  N   UNL     1       6.050  -0.900  -6.103  0.00  0.00    +0.384 N 
ATOM     34  C   UNL     1       4.843  -0.533  -6.855  0.00  0.00    -0.063 C 
ATOM     35  C   UNL     1       3.894   0.252  -5.946  0.00  0.00    +0.066 C 
ATOM     36  H   UNL     1       6.505  -0.064  -5.768  0.00  0.00    -0.081 HD
BRANCH  33  37
ATOM     37  C   UNL     1       6.968  -1.639  -6.980  0.00  0.00    -0.043 C 
BRANCH  37  38
ATOM     38  C   UNL     1       7.445  -0.731  -8.085  0.00  0.00    -0.061 A 
ATOM     39  C   UNL     1       6.747  -0.639  -9.279  0.00  0.00    +0.021 A 
ATOM     40  C   UNL     1       7.215   0.203 -10.270  0.00  0.00    +0.111 A 
ATOM     41  N   UNL     1       8.311   0.914 -10.089  0.00  0.00    -0.263 NA
ATOM     42  C   UNL     1       9.000   0.852  -8.966  0.00  0.00    +0.111 A 
ATOM     43  C   UNL     1       8.589   0.036  -7.929  0.00  0.00    +0.021 A 
ENDBRANCH  37  38
ENDBRANCH  33  37
ENDBRANCH   1  30
TORSDOF 9
