REMARK  Name = ZINC02112888
REMARK  7 active torsions:
REMARK  status: ('A' for Active; 'I' for Inactive)
REMARK    1  A    between atoms: C_1  and  C_2
REMARK    2  A    between atoms: C_2  and  O_3
REMARK    3  A    between atoms: O_3  and  C_4
REMARK    4  A    between atoms: C_7  and  C_12
REMARK    5  A    between atoms: C_9  and  O_10
REMARK    6  A    between atoms: O_10  and  C_11
REMARK    7  A    between atoms: N_31  and  C_34
REMARK                            x       y       z     vdW  Elec       q    Type
REMARK                         _______ _______ _______ _____ _____    ______ ____
ROOT
ATOM      1  C   UNL     1       0.002  -0.004   0.002  0.00  0.00    +0.154 C 
ATOM      2  C   UNL     1       1.023  -0.434  -1.027  0.00  0.00    +0.046 A 
ATOM      3  C   UNL     1       1.901   0.414  -1.606  0.00  0.00    -0.015 A 
ATOM      4  C   UNL     1       2.704  -0.369  -2.523  0.00  0.00    +0.003 A 
ATOM      5  C   UNL     1       3.754  -0.037  -3.385  0.00  0.00    +0.010 A 
ATOM      6  C   UNL     1       4.295  -1.058  -4.125  0.00  0.00    +0.001 A 
ATOM      7  C   UNL     1       3.832  -2.361  -4.032  0.00  0.00    +0.002 A 
ATOM      8  C   UNL     1       2.795  -2.717  -3.189  0.00  0.00    +0.026 A 
ATOM      9  C   UNL     1       2.225  -1.701  -2.425  0.00  0.00    +0.047 A 
ATOM     10  N   UNL     1       1.209  -1.701  -1.512  0.00  0.00    -0.356 N 
ATOM     11  H   UNL     1       0.697  -2.481  -1.248  0.00  0.00    +0.166 HD
ATOM     12  C   UNL     1       1.985   1.891  -1.317  0.00  0.00    +0.069 C 
ATOM     13  C   UNL     1       1.259   2.178   0.005  0.00  0.00    +0.167 C 
ATOM     14  N   UNL     1      -0.022   1.474   0.011  0.00  0.00    -0.276 N 
ATOM     15  C   UNL     1      -1.200   2.102   0.020  0.00  0.00    +0.234 C 
ATOM     16  O   UNL     1      -2.203   1.425  -0.050  0.00  0.00    -0.274 OA
ATOM     17  C   UNL     1      -1.365   3.585   0.113  0.00  0.00    +0.204 C 
ATOM     18  N   UNL     1      -0.089   4.271   0.218  0.00  0.00    -0.288 N 
ATOM     19  C   UNL     1       1.090   3.654   0.174  0.00  0.00    +0.237 C 
ATOM     20  O   UNL     1       2.091   4.332   0.279  0.00  0.00    -0.274 OA
ENDROOT
BRANCH  18  21
ATOM     21  C   UNL     1      -0.100   5.727   0.384  0.00  0.00    +0.077 C 
ATOM     22  C   UNL     1      -0.852   6.089   1.666  0.00  0.00    +0.022 C 
ATOM     23  C   UNL     1      -0.533   7.534   2.053  0.00  0.00    +0.002 C 
ATOM     24  C   UNL     1       0.968   7.786   1.899  0.00  0.00    +0.000 C 
ATOM     25  C   UNL     1       1.204   8.780   0.760  0.00  0.00    +0.000 C 
ATOM     26  C   UNL     1       1.022   8.068  -0.582  0.00  0.00    +0.000 C 
ATOM     27  C   UNL     1      -0.469   7.865  -0.854  0.00  0.00    +0.002 C 
ATOM     28  C   UNL     1      -0.797   6.371  -0.816  0.00  0.00    +0.022 C 
ENDBRANCH  18  21
BRANCH   1  32
ATOM     29  C   UNL     1       1.127  -1.460   3.862  0.00  0.00    +0.162 A 
ATOM     30  C   UNL     1       2.029  -0.731   3.104  0.00  0.00    +0.050 A 
ATOM     31  C   UNL     1       1.663  -0.262   1.856  0.00  0.00    +0.009 A 
ATOM     32  C   UNL     1       0.397  -0.518   1.362  0.00  0.00    -0.018 A 
ATOM     33  C   UNL     1      -0.509  -1.240   2.116  0.00  0.00    +0.055 A 
ATOM     34  C   UNL     1      -0.146  -1.718   3.365  0.00  0.00    +0.162 A 
BRANCH  34  35
ATOM     35  O   UNL     1      -1.035  -2.433   4.106  0.00  0.00    -0.491 OA
ATOM     36  C   UNL     1      -2.324  -2.660   3.533  0.00  0.00    +0.277 C 
ENDBRANCH  34  35
BRANCH  29  37
ATOM     37  O   UNL     1       1.487  -1.922   5.090  0.00  0.00    -0.489 OA
BRANCH  37  39
ATOM     38  C   UNL     1       3.030  -2.217   6.927  0.00  0.00    +0.048 C 
ATOM     39  C   UNL     1       2.810  -1.619   5.535  0.00  0.00    +0.226 C 
ENDBRANCH  37  39
ENDBRANCH  29  37
ENDBRANCH   1  32
TORSDOF 5
