REMARK  Name = ZINC02679561
REMARK  5 active torsions:
REMARK  status: ('A' for Active; 'I' for Inactive)
REMARK    1  A    between atoms: C_6  and  S_11
REMARK    2  A    between atoms: S_11  and  N_14
REMARK    3  A    between atoms: N_14  and  C_15
REMARK    4  A    between atoms: C_18  and  S_21
REMARK    5  A    between atoms: S_21  and  N_24
REMARK                            x       y       z     vdW  Elec       q    Type
REMARK                         _______ _______ _______ _____ _____    ______ ____
ROOT
ATOM      1  C   UNL     1      -1.041   3.334   2.357  0.00  0.00    +0.048 A 
ATOM      2  C   UNL     1       0.331   3.354   2.142  0.00  0.00    +0.026 A 
ATOM      3  C   UNL     1       1.129   4.226   2.857  0.00  0.00    +0.030 A 
ATOM      4  C   UNL     1       0.564   5.071   3.795  0.00  0.00    +0.109 A 
ATOM      5  C   UNL     1      -0.801   5.049   4.016  0.00  0.00    +0.030 A 
ATOM      6  C   UNL     1      -1.605   4.184   3.300  0.00  0.00    +0.026 A 
ENDROOT
BRANCH   4   7
ATOM      7  S   UNL     1       1.585   6.176   4.711  0.00  0.00    +0.074 S 
ATOM      8  O   UNL     1       2.754   6.388   3.932  0.00  0.00    -0.150 OA
ATOM      9  O   UNL     1       0.749   7.244   5.136  0.00  0.00    -0.150 OA
BRANCH   7  10
ATOM     10  N   UNL     1       2.067   5.378   6.079  0.00  0.00    -0.194 N 
ATOM     11  C   UNL     1       2.882   4.261   5.980  0.00  0.00    +0.177 A 
ATOM     12  N   UNL     1       3.369   3.684   4.898  0.00  0.00    -0.232 NA
ATOM     13  C   UNL     1       4.141   2.617   4.982  0.00  0.00    +0.120 A 
ATOM     14  C   UNL     1       4.418   2.115   6.209  0.00  0.00    +0.068 A 
ATOM     15  S   UNL     1       3.518   3.259   7.247  0.00  0.00    -0.059 S 
ATOM     16  H   UNL     1       1.778   5.692   6.951  0.00  0.00    +0.176 HD
ENDBRANCH   7  10
ENDBRANCH   4   7
BRANCH   1  17
ATOM     17  N   UNL     1      -1.850   2.457   1.632  0.00  0.00    -0.216 N 
ATOM     18  H   UNL     1      -2.202   1.658   2.056  0.00  0.00    +0.174 HD
BRANCH  17  19
ATOM     19  S   UNL     1      -2.211   2.780   0.049  0.00  0.00    +0.072 S 
ATOM     20  O   UNL     1      -3.102   1.761  -0.382  0.00  0.00    -0.150 OA
ATOM     21  O   UNL     1      -0.975   3.038  -0.605  0.00  0.00    -0.150 OA
BRANCH  19  27
ATOM     22  C   UNL     1      -4.660   9.018  -0.288  0.00  0.00    +0.001 A 
ATOM     23  C   UNL     1      -3.282   9.043  -0.491  0.00  0.00    +0.001 A 
ATOM     24  C   UNL     1      -2.549   7.896  -0.469  0.00  0.00    +0.008 A 
ATOM     25  C   UNL     1      -3.189   6.666  -0.237  0.00  0.00    -0.016 A 
ATOM     26  C   UNL     1      -2.466   5.462  -0.207  0.00  0.00    +0.037 A 
ATOM     27  C   UNL     1      -3.120   4.290   0.019  0.00  0.00    +0.109 A 
ATOM     28  C   UNL     1      -4.499   4.264   0.223  0.00  0.00    +0.029 A 
ATOM     29  C   UNL     1      -5.231   5.411   0.201  0.00  0.00    +0.010 A 
ATOM     30  C   UNL     1      -4.591   6.641  -0.030  0.00  0.00    -0.018 A 
ATOM     31  C   UNL     1      -5.314   7.846  -0.061  0.00  0.00    +0.008 A 
ENDBRANCH  19  27
ENDBRANCH  17  19
ENDBRANCH   1  17
TORSDOF 5
