REMARK  Name = ZINC22992866
REMARK  4 active torsions:
REMARK  status: ('A' for Active; 'I' for Inactive)
REMARK    1  A    between atoms: C_8  and  C_19
REMARK    2  A    between atoms: C_12  and  C_14
REMARK    3  A    between atoms: N_21  and  N_22
REMARK    4  A    between atoms: C_23  and  C_25
REMARK                            x       y       z     vdW  Elec       q    Type
REMARK                         _______ _______ _______ _____ _____    ______ ____
ROOT
ATOM      1  C   UNL     1       2.585  -2.909   1.354  0.00  0.00    +0.000 A 
ATOM      2  C   UNL     1       3.406  -2.092   2.109  0.00  0.00    +0.000 A 
ATOM      3  C   UNL     1       3.255  -0.723   2.044  0.00  0.00    +0.005 A 
ATOM      4  C   UNL     1       2.284  -0.158   1.228  0.00  0.00    -0.027 A 
ATOM      5  C   UNL     1       1.471  -0.969   0.469  0.00  0.00    -0.040 A 
ATOM      6  C   UNL     1       1.623  -2.349   0.539  0.00  0.00    +0.004 A 
ATOM      7  C   UNL     1       0.408  -0.429  -0.451  0.00  0.00    +0.067 C 
ATOM      8  C   UNL     1       0.029   0.999  -0.065  0.00  0.00    +0.168 C 
ATOM      9  N   UNL     1       1.274   1.762   0.129  0.00  0.00    -0.279 N 
ATOM     10  C   UNL     1       2.156   1.344   1.224  0.00  0.00    +0.144 C 
ATOM     11  C   UNL     1       1.590   2.801  -0.668  0.00  0.00    +0.283 C 
ATOM     12  O   UNL     1       0.836   3.133  -1.564  0.00  0.00    -0.267 OA
ENDROOT
BRANCH  11  13
ATOM     13  C   UNL     1       2.844   3.533  -0.457  0.00  0.00    +0.189 A 
ATOM     14  C   UNL     1       3.312   4.560  -1.224  0.00  0.00    +0.054 A 
ATOM     15  C   UNL     1       4.535   4.958  -0.662  0.00  0.00    +0.042 A 
ATOM     16  C   UNL     1       4.757   4.166   0.410  0.00  0.00    +0.196 A 
ATOM     17  O   UNL     1       3.733   3.312   0.533  0.00  0.00    -0.458 OA
ENDBRANCH  11  13
BRANCH   8  18
ATOM     18  C   UNL     1      -0.788   1.625  -1.166  0.00  0.00    +0.250 C 
ATOM     19  O   UNL     1      -1.801   2.235  -0.897  0.00  0.00    -0.272 OA
ATOM     20  N   UNL     1      -0.392   1.508  -2.449  0.00  0.00    -0.233 N 
ATOM     21  H   UNL     1       0.528   0.955  -2.692  0.00  0.00    +0.173 HD
BRANCH  20  22
ATOM     22  N   UNL     1      -1.151   2.090  -3.472  0.00  0.00    -0.230 N 
ATOM     23  C   UNL     1      -0.755   1.973  -4.755  0.00  0.00    +0.260 C 
ATOM     24  O   UNL     1       0.261   1.362  -5.024  0.00  0.00    -0.269 OA
ATOM     25  H   UNL     1      -2.070   2.643  -3.229  0.00  0.00    +0.173 HD
BRANCH  23  26
ATOM     26  C   UNL     1      -1.556   2.587  -5.835  0.00  0.00    +0.040 A 
ATOM     27  C   UNL     1      -2.726   3.284  -5.530  0.00  0.00    +0.013 A 
ATOM     28  C   UNL     1      -3.467   3.860  -6.541  0.00  0.00    +0.002 A 
ATOM     29  C   UNL     1      -3.059   3.738  -7.858  0.00  0.00    +0.020 A 
ATOM     30  C   UNL     1      -1.902   3.043  -8.168  0.00  0.00    +0.042 A 
ATOM     31  C   UNL     1      -1.149   2.467  -7.164  0.00  0.00    +0.033 A 
ATOM     32 CL   UNL     1      -1.398   2.896  -9.823  0.00  0.00    -0.084 Cl
ENDBRANCH  23  26
ENDBRANCH  20  22
ENDBRANCH   8  18
TORSDOF 4
