REMARK  Name = ZINC00910516
REMARK  10 active torsions:
REMARK  status: ('A' for Active; 'I' for Inactive)
REMARK    1  A    between atoms: C_1  and  C_2
REMARK    2  A    between atoms: C_2  and  C_3
REMARK    3  A    between atoms: C_3  and  C_4
REMARK    4  A    between atoms: C_3  and  C_5
REMARK    5  A    between atoms: C_3  and  N_6
REMARK    6  A    between atoms: C_7  and  C_11
REMARK    7  A    between atoms: C_11  and  C_13
REMARK    8  A    between atoms: C_11  and  N_62
REMARK    9  A    between atoms: C_17  and  C_26
REMARK   10  A    between atoms: C_18  and  C_25
REMARK                            x       y       z     vdW  Elec       q    Type
REMARK                         _______ _______ _______ _____ _____    ______ ____
ROOT
ATOM      1  C   UNL     1       1.237   3.283  -0.151  0.00  0.00    +0.039 C 
ENDROOT
BRANCH   1   2
ATOM      2  C   UNL     1       1.304   1.792  -0.358  0.00  0.00    +0.011 A 
ATOM      3  C   UNL     1       2.507   1.185  -0.514  0.00  0.00    +0.017 A 
ATOM      4  C   UNL     1       2.538  -0.265  -0.714  0.00  0.00    -0.001 A 
ATOM      5  C   UNL     1       3.748  -0.946  -0.881  0.00  0.00    +0.013 A 
ATOM      6  C   UNL     1       3.743  -2.300  -1.065  0.00  0.00    -0.047 A 
ATOM      7  C   UNL     1       2.548  -3.006  -1.087  0.00  0.00    -0.046 A 
ATOM      8  C   UNL     1       1.344  -2.355  -0.924  0.00  0.00    +0.030 A 
ATOM      9  C   UNL     1       1.324  -0.977  -0.736  0.00  0.00    +0.049 A 
ATOM     10  N   UNL     1       0.134  -0.300  -0.571  0.00  0.00    -0.322 N 
ATOM     11  H   UNL     1      -0.727  -0.808  -0.587  0.00  0.00    +0.169 HD
ATOM     12  C   UNL     1       0.115   1.032  -0.388  0.00  0.00    +0.251 A 
ATOM     13  O   UNL     1      -0.955   1.597  -0.250  0.00  0.00    -0.268 OA
ATOM     14  C   UNL     1       2.567  -4.498  -1.292  0.00  0.00    +0.044 C 
ATOM     15  C   UNL     1       5.047  -3.034  -1.245  0.00  0.00    +0.044 C 
ENDBRANCH   1   2
BRANCH   1  21
ATOM     16  C   UNL     1       0.319   5.020   1.264  0.00  0.00    -0.077 C 
ATOM     17  C   UNL     1      -0.581   5.279   2.474  0.00  0.00    -0.019 C 
ATOM     18  C   UNL     1       0.057   4.660   3.721  0.00  0.00    -0.004 C 
ATOM     19  C   UNL     1       0.270   3.163   3.486  0.00  0.00    -0.019 C 
ATOM     20  C   UNL     1       1.146   2.965   2.247  0.00  0.00    -0.077 C 
ATOM     21  N   UNL     1       0.465   3.560   1.078  0.00  0.00    +0.389 N 
ATOM     22  H   UNL     1      -0.468   3.141   0.987  0.00  0.00    -0.080 HD
ENDBRANCH   1  21
BRANCH   1  24
ATOM     23  N   UNL     1       1.094   4.714  -2.258  0.00  0.00    -0.225 N 
ATOM     24  C   UNL     1       0.537   3.922  -1.323  0.00  0.00    +0.143 A 
ATOM     25  N   UNL     1      -0.734   3.818  -1.627  0.00  0.00    -0.115 NA
ATOM     26  N   UNL     1      -0.945   4.507  -2.695  0.00  0.00    -0.023 NA
ATOM     27  N   UNL     1       0.158   5.046  -3.081  0.00  0.00    -0.043 NA
BRANCH  23  28
ATOM     28  C   UNL     1       2.500   5.119  -2.329  0.00  0.00    +0.061 C 
ATOM     29  C   UNL     1       2.858   5.940  -1.089  0.00  0.00    +0.036 C 
ATOM     30  C   UNL     1       3.387   3.874  -2.389  0.00  0.00    +0.036 C 
BRANCH  28  32
ATOM     31  C   UNL     1       4.192   6.388  -3.658  0.00  0.00    +0.006 C 
ATOM     32  C   UNL     1       2.724   5.965  -3.583  0.00  0.00    +0.026 C 
ENDBRANCH  28  32
ENDBRANCH  23  28
ENDBRANCH   1  24
TORSDOF 5
