REMARK  Name = ZINC14528684
REMARK  8 active torsions:
REMARK  status: ('A' for Active; 'I' for Inactive)
REMARK    1  A    between atoms: C_1  and  C_2
REMARK    2  A    between atoms: C_5  and  C_30
REMARK    3  A    between atoms: N_8  and  C_10
REMARK    4  A    between atoms: C_10  and  C_11
REMARK    5  A    between atoms: C_17  and  C_19
REMARK    6  A    between atoms: C_22  and  S_28
REMARK    7  A    between atoms: C_23  and  N_25
REMARK    8  A    between atoms: S_28  and  C_29
REMARK                            x       y       z     vdW  Elec       q    Type
REMARK                         _______ _______ _______ _____ _____    ______ ____
ROOT
ATOM      1  C   UNL     1       2.971  -2.034   2.241  0.00  0.00    +0.034 A 
ATOM      2  C   UNL     1       3.439  -0.905   2.828  0.00  0.00    +0.070 A 
ATOM      3  S   UNL     1       5.145  -0.940   2.304  0.00  0.00    -0.060 S 
ATOM      4  C   UNL     1       5.085  -2.365   1.410  0.00  0.00    +0.165 A 
ATOM      5  N   UNL     1       3.833  -2.747   1.539  0.00  0.00    -0.231 NA
ATOM      6  N   UNL     1       6.110  -2.988   0.710  0.00  0.00    -0.261 N 
ATOM      7  C   UNL     1       7.344  -2.446   0.696  0.00  0.00    +0.250 C 
ATOM      8  O   UNL     1       7.560  -1.411   1.296  0.00  0.00    -0.270 OA
ATOM      9  H   UNL     1       5.938  -3.814   0.231  0.00  0.00    +0.157 HD
ENDROOT
BRANCH   7  10
ATOM     10  C   UNL     1       8.431  -3.108  -0.047  0.00  0.00    +0.039 A 
ATOM     11  C   UNL     1       8.183  -4.296  -0.743  0.00  0.00    +0.014 A 
ATOM     12  C   UNL     1       9.191  -4.909  -1.431  0.00  0.00    +0.018 A 
ATOM     13  C   UNL     1      10.469  -4.355  -1.443  0.00  0.00    +0.038 A 
ATOM     14  C   UNL     1      10.725  -3.172  -0.753  0.00  0.00    +0.140 A 
ATOM     15  C   UNL     1       9.712  -2.546  -0.063  0.00  0.00    +0.047 A 
BRANCH  14  16
ATOM     16  N   UNL     1      12.084  -2.586  -0.767  0.00  0.00    +0.058 N 
ATOM     17  O   UNL     1      12.306  -1.560  -0.167  0.00  0.00    -0.126 OA
ATOM     18  O   UNL     1      12.973  -3.133  -1.377  0.00  0.00    -0.126 OA
ENDBRANCH  14  16
BRANCH  13  19
ATOM     19  S   UNL     1      11.764  -5.151  -2.333  0.00  0.00    -0.126 S 
ATOM     20  C   UNL     1      10.968  -6.616  -3.049  0.00  0.00    +0.090 C 
ENDBRANCH  13  19
ENDBRANCH   7  10
BRANCH   1  21
ATOM     21  C   UNL     1       1.534  -2.461   2.390  0.00  0.00    -0.022 C 
BRANCH  21  27
ATOM     22  C   UNL     1      -0.019   1.526   0.010  0.00  0.00    +0.005 C 
ATOM     23  C   UNL     1       0.002  -0.004   0.002  0.00  0.00    -0.031 C 
ATOM     24  C   UNL     1      -1.434  -0.535   0.015  0.00  0.00    +0.003 C 
ATOM     25  C   UNL     1      -1.402  -2.064   0.086  0.00  0.00    -0.031 C 
ATOM     26  C   UNL     1      -0.613  -2.496   1.324  0.00  0.00    -0.075 C 
ATOM     27  N   UNL     1       0.758  -1.980   1.239  0.00  0.00    +0.384 N 
ATOM     28  C   UNL     1       0.740  -0.512   1.242  0.00  0.00    -0.075 C 
ATOM     29  C   UNL     1      -2.832  -2.602   0.177  0.00  0.00    +0.005 C 
ATOM     30  H   UNL     1       1.188  -2.307   0.386  0.00  0.00    -0.081 HD
ENDBRANCH  21  27
ENDBRANCH   1  21
TORSDOF 5
