REMARK  Name = ZINC13495880
REMARK  13 active torsions:
REMARK  status: ('A' for Active; 'I' for Inactive)
REMARK    1  A    between atoms: C_1  and  C_2
REMARK    2  A    between atoms: C_2  and  C_3
REMARK    3  A    between atoms: C_3  and  C_5
REMARK    4  A    between atoms: C_3  and  N_73
REMARK    5  A    between atoms: N_9  and  C_10
REMARK    6  A    between atoms: C_10  and  C_11
REMARK    7  A    between atoms: C_17  and  C_18
REMARK    8  A    between atoms: C_17  and  N_73
REMARK    9  A    between atoms: C_18  and  C_19
REMARK   10  A    between atoms: C_24  and  C_25
REMARK   11  A    between atoms: C_26  and  C_27
REMARK   12  A    between atoms: C_26  and  N_73
REMARK   13  A    between atoms: C_33  and  C_39
REMARK                            x       y       z     vdW  Elec       q    Type
REMARK                         _______ _______ _______ _____ _____    ______ ____
ROOT
ATOM      1  N   UNL     1       5.716   5.239   0.650  0.00  0.00    +0.389 N 
ATOM      2  H   UNL     1       5.344   5.933   1.308  0.00  0.00    -0.080 HD
ENDROOT
BRANCH   1   3
ATOM      3  C   UNL     1       7.068   5.657   0.224  0.00  0.00    +0.003 C 
BRANCH   3   4
ATOM      4  C   UNL     1       7.457   4.962  -1.055  0.00  0.00    +0.138 A 
ATOM      5  N   UNL     1       6.673   4.699  -2.072  0.00  0.00    -0.115 NA
ATOM      6  N   UNL     1       7.375   4.098  -2.970  0.00  0.00    -0.023 NA
ATOM      7  N   UNL     1       8.586   3.971  -2.553  0.00  0.00    -0.044 NA
ATOM      8  N   UNL     1       8.678   4.496  -1.378  0.00  0.00    -0.228 N 
BRANCH   8   9
ATOM      9  C   UNL     1       9.884   4.568  -0.549  0.00  0.00    +0.178 C 
BRANCH   9  10
ATOM     10  C   UNL     1      10.162   3.195   0.067  0.00  0.00    +0.140 C 
ATOM     11  C   UNL     1      11.364   3.288   1.031  0.00  0.00    +0.035 C 
ATOM     12  C   UNL     1      12.113   1.956   0.753  0.00  0.00    +0.031 C 
ATOM     13  C   UNL     1      11.842   1.777  -0.762  0.00  0.00    +0.160 C 
ATOM     14  O   UNL     1      10.505   2.261  -0.963  0.00  0.00    -0.375 OA
ENDBRANCH   9  10
ENDBRANCH   8   9
ENDBRANCH   3   4
BRANCH   3  16
ATOM     15  C   UNL     1       6.715   7.878   1.312  0.00  0.00    +0.002 C 
ATOM     16  C   UNL     1       7.065   7.171   0.001  0.00  0.00    -0.011 C 
ENDBRANCH   3  16
ENDBRANCH   1   3
BRANCH   1  17
ATOM     17  C   UNL     1       5.783   3.925   1.324  0.00  0.00    -0.073 C 
BRANCH  17  18
ATOM     18  C   UNL     1       6.326   4.128   2.740  0.00  0.00    +0.017 C 
BRANCH  18  19
ATOM     19  C   UNL     1       6.251   2.827   3.498  0.00  0.00    -0.046 A 
ATOM     20  C   UNL     1       5.087   2.476   4.155  0.00  0.00    +0.004 A 
ATOM     21  C   UNL     1       5.016   1.282   4.847  0.00  0.00    +0.000 A 
ATOM     22  C   UNL     1       6.114   0.442   4.888  0.00  0.00    +0.000 A 
ATOM     23  C   UNL     1       7.279   0.794   4.234  0.00  0.00    +0.003 A 
ATOM     24  C   UNL     1       7.348   1.988   3.539  0.00  0.00    -0.047 A 
ATOM     25  C   UNL     1       8.619   2.373   2.827  0.00  0.00    +0.044 C 
ENDBRANCH  18  19
ENDBRANCH  17  18
ENDBRANCH   1  17
BRANCH   1  26
ATOM     26  C   UNL     1       4.819   5.160  -0.523  0.00  0.00    -0.037 C 
BRANCH  26  27
ATOM     27  C   UNL     1       3.393   5.258  -0.046  0.00  0.00    +0.001 A 
ATOM     28  C   UNL     1       2.768   6.461  -0.027  0.00  0.00    +0.017 A 
ATOM     29  C   UNL     1       1.383   6.522   0.442  0.00  0.00    -0.001 A 
ATOM     30  C   UNL     1       0.686   7.735   0.484  0.00  0.00    +0.010 A 
ATOM     31  C   UNL     1      -0.606   7.758   0.926  0.00  0.00    +0.001 A 
ATOM     32  C   UNL     1      -1.236   6.589   1.331  0.00  0.00    +0.005 A 
ATOM     33  C   UNL     1      -0.567   5.384   1.302  0.00  0.00    -0.026 A 
ATOM     34  C   UNL     1       0.749   5.335   0.855  0.00  0.00    +0.052 A 
ATOM     35  N   UNL     1       1.440   4.143   0.811  0.00  0.00    -0.322 N 
ATOM     36  H   UNL     1       1.002   3.326   1.096  0.00  0.00    +0.169 HD
ATOM     37  C   UNL     1       2.712   4.097   0.379  0.00  0.00    +0.251 A 
ATOM     38  O   UNL     1       3.293   3.025   0.354  0.00  0.00    -0.268 OA
ATOM     39  C   UNL     1      -1.262   4.123   1.748  0.00  0.00    +0.046 C 
ENDBRANCH  26  27
ENDBRANCH   1  26
TORSDOF 10
