REMARK  Name = ZINC01885259
REMARK  9 active torsions:
REMARK  status: ('A' for Active; 'I' for Inactive)
REMARK    1  A    between atoms: C_9  and  C_12
REMARK    2  A    between atoms: N_14  and  C_15
REMARK    3  A    between atoms: C_15  and  C_16
REMARK    4  A    between atoms: N_18  and  N_19
REMARK    5  A    between atoms: C_20  and  C_21
REMARK    6  A    between atoms: C_26  and  O_27
REMARK    7  A    between atoms: O_27  and  C_28
REMARK    8  A    between atoms: C_28  and  C_30
REMARK    9  A    between atoms: C_31  and  C_32
REMARK                            x       y       z     vdW  Elec       q    Type
REMARK                         _______ _______ _______ _____ _____    ______ ____
ROOT
ATOM      1  C   UNL     1       7.071  -6.084   0.205  0.00  0.00    +0.249 C 
ATOM      2  O   UNL     1       6.043  -6.370   0.781  0.00  0.00    -0.272 OA
ATOM      3  N   UNL     1       8.030  -7.016   0.035  0.00  0.00    -0.206 N 
ATOM      4  H   UNL     1       8.852  -6.787  -0.426  0.00  0.00    +0.177 HD
ENDROOT
BRANCH   3   5
ATOM      5  N   UNL     1       7.839  -8.315   0.524  0.00  0.00    -0.188 NA
ATOM      6  C   UNL     1       8.762  -9.212   0.360  0.00  0.00    +0.142 C 
BRANCH   6   7
ATOM      7  C   UNL     1       8.562 -10.579   0.874  0.00  0.00    +0.038 A 
ATOM      8  C   UNL     1       9.555 -11.546   0.705  0.00  0.00    +0.028 A 
ATOM      9  C   UNL     1       9.361 -12.823   1.190  0.00  0.00    +0.019 A 
ATOM     10  C   UNL     1       8.184 -13.150   1.843  0.00  0.00    +0.019 A 
ATOM     11  C   UNL     1       7.194 -12.202   2.016  0.00  0.00    +0.048 A 
ATOM     12  C   UNL     1       7.375 -10.913   1.541  0.00  0.00    +0.141 A 
ATOM     13 BR   UNL     1      10.706 -14.132   0.960  0.00  0.00    -0.050 Br
BRANCH  12  14
ATOM     14  O   UNL     1       6.404  -9.979   1.716  0.00  0.00    -0.422 OA
BRANCH  14  15
ATOM     15  C   UNL     1       5.511  -9.800   0.720  0.00  0.00    +0.337 C 
ATOM     16  O   UNL     1       5.644 -10.398  -0.332  0.00  0.00    -0.245 OA
BRANCH  15  17
ATOM     17  C   UNL     1       4.421  -8.918   0.898  0.00  0.00    +0.095 C 
ATOM     18  C   UNL     1       3.523  -8.738  -0.104  0.00  0.00    +0.053 C 
BRANCH  18  19
ATOM     19  C   UNL     1       2.432  -7.855   0.075  0.00  0.00    +0.128 A 
ATOM     20  C   UNL     1       1.446  -7.582  -0.852  0.00  0.00    +0.049 A 
ATOM     21  C   UNL     1       0.578  -6.659  -0.251  0.00  0.00    +0.042 A 
ATOM     22  C   UNL     1       1.055  -6.410   0.989  0.00  0.00    +0.195 A 
ATOM     23  O   UNL     1       2.166  -7.133   1.184  0.00  0.00    -0.464 OA
ENDBRANCH  18  19
ENDBRANCH  15  17
ENDBRANCH  14  15
ENDBRANCH  12  14
ENDBRANCH   6   7
ENDBRANCH   3   5
BRANCH   1  24
ATOM     24  C   UNL     1       7.277  -4.687  -0.321  0.00  0.00    +0.202 C 
BRANCH  24  27
ATOM     25  C   UNL     1       6.059  -2.578  -0.389  0.00  0.00    +0.258 C 
ATOM     26  O   UNL     1       6.996  -2.089  -0.984  0.00  0.00    -0.272 OA
ATOM     27  N   UNL     1       6.100  -3.871  -0.012  0.00  0.00    -0.304 N 
ATOM     28  H   UNL     1       5.350  -4.261   0.464  0.00  0.00    +0.149 HD
BRANCH  25  37
ATOM     29  C   UNL     1       1.785   2.108  -0.667  0.00  0.00    +0.004 A 
ATOM     30  C   UNL     1       3.062   2.638  -0.646  0.00  0.00    +0.004 A 
ATOM     31  C   UNL     1       4.159   1.800  -0.585  0.00  0.00    +0.049 A 
ATOM     32  C   UNL     1       3.982   0.425  -0.545  0.00  0.00    +0.163 A 
ATOM     33  C   UNL     1       2.699  -0.107  -0.563  0.00  0.00    +0.162 A 
ATOM     34  C   UNL     1       1.602   0.739  -0.626  0.00  0.00    +0.049 A 
ATOM     35  O   UNL     1       2.502  -1.453  -0.516  0.00  0.00    -0.484 OA
ATOM     36  C   UNL     1       3.629  -2.279  -0.830  0.00  0.00    +0.283 C 
ATOM     37  C   UNL     1       4.848  -1.738  -0.071  0.00  0.00    +0.296 C 
ATOM     38  O   UNL     1       5.073  -0.387  -0.489  0.00  0.00    -0.473 OA
ENDBRANCH  25  37
ENDBRANCH  24  27
ENDBRANCH   1  24
TORSDOF 9
