REMARK  Name = ZINC66188019
REMARK  7 active torsions:
REMARK  status: ('A' for Active; 'I' for Inactive)
REMARK    1  A    between atoms: C_1  and  C_2
REMARK    2  A    between atoms: N_7  and  C_9
REMARK    3  A    between atoms: C_9  and  C_10
REMARK    4  A    between atoms: C_9  and  C_11
REMARK    5  A    between atoms: C_9  and  C_12
REMARK    6  A    between atoms: C_12  and  N_13
REMARK    7  A    between atoms: C_20  and  C_23
REMARK                            x       y       z     vdW  Elec       q    Type
REMARK                         _______ _______ _______ _____ _____    ______ ____
ROOT
ATOM      1  N   UNL     1       2.193  -4.458   1.145  0.00  0.00    -0.301 N 
ATOM      2  C   UNL     1       2.330  -5.780   0.919  0.00  0.00    +0.302 C 
ATOM      3  O   UNL     1       2.024  -6.580   1.783  0.00  0.00    -0.253 OA
ATOM      4  N   UNL     1       2.807  -6.215  -0.264  0.00  0.00    -0.285 N 
ATOM      5  C   UNL     1       3.294  -5.263  -1.271  0.00  0.00    +0.109 C 
ATOM      6  C   UNL     1       4.715  -5.662  -1.681  0.00  0.00    +0.020 C 
ATOM      7  C   UNL     1       4.718  -7.121  -2.143  0.00  0.00    +0.016 C 
ATOM      8  C   UNL     1       4.276  -8.024  -0.989  0.00  0.00    +0.093 C 
ATOM      9  C   UNL     1       2.856  -7.652  -0.569  0.00  0.00    +0.122 C 
ATOM     10  H   UNL     1       2.503  -3.819   0.486  0.00  0.00    +0.150 HD
ENDROOT
BRANCH   8  11
ATOM     11  C   UNL     1       4.310  -9.463  -1.435  0.00  0.00    +0.220 C 
ATOM     12  O   UNL     1       4.204  -9.736  -2.611  0.00  0.00    -0.275 OA
ATOM     13  N   UNL     1       4.459 -10.447  -0.525  0.00  0.00    -0.297 N 
ATOM     14  C   UNL     1       4.691 -10.138   0.894  0.00  0.00    +0.136 C 
ATOM     15  C   UNL     1       3.691 -10.940   1.734  0.00  0.00    +0.179 C 
ATOM     16  O   UNL     1       3.765 -12.319   1.364  0.00  0.00    -0.377 OA
ATOM     17  C   UNL     1       3.409 -12.581   0.005  0.00  0.00    +0.179 C 
ATOM     18  C   UNL     1       4.389 -11.862  -0.922  0.00  0.00    +0.136 C 
ENDBRANCH   8  11
BRANCH   1  19
ATOM     19  C   UNL     1       1.573  -3.988   2.387  0.00  0.00    +0.093 C 
BRANCH  19  20
ATOM     20  C   UNL     1       1.540  -2.459   2.392  0.00  0.00    -0.055 C 
ATOM     21  C   UNL     1       2.967  -1.917   2.297  0.00  0.00    -0.008 C 
ATOM     22  C   UNL     1       0.893  -1.968   3.689  0.00  0.00    -0.008 C 
BRANCH  20  28
ATOM     23  C   UNL     1      -0.037   1.519   0.013  0.00  0.00    +0.005 C 
ATOM     24  C   UNL     1      -0.011  -0.011   0.007  0.00  0.00    -0.031 C 
ATOM     25  C   UNL     1      -1.446  -0.547   0.028  0.00  0.00    -0.001 C 
ATOM     26  C   UNL     1      -1.408  -2.076   0.101  0.00  0.00    -0.018 C 
ATOM     27  C   UNL     1      -0.612  -2.502   1.336  0.00  0.00    -0.078 C 
ATOM     28  N   UNL     1       0.757  -1.982   1.244  0.00  0.00    +0.384 N 
ATOM     29  C   UNL     1       0.734  -0.514   1.245  0.00  0.00    -0.075 C 
ATOM     30  H   UNL     1       1.184  -2.309   0.390  0.00  0.00    -0.081 HD
ENDBRANCH  20  28
ENDBRANCH  19  20
ENDBRANCH   1  19
TORSDOF 4
