REMARK  Name = ZINC01806068
REMARK  10 active torsions:
REMARK  status: ('A' for Active; 'I' for Inactive)
REMARK    1  A    between atoms: C_1  and  C_2
REMARK    2  A    between atoms: C_2  and  C_3
REMARK    3  A    between atoms: C_6  and  N_9
REMARK    4  A    between atoms: N_9  and  C_10
REMARK    5  A    between atoms: N_14  and  C_17
REMARK    6  A    between atoms: C_22  and  N_23
REMARK    7  A    between atoms: C_26  and  N_31
REMARK    8  A    between atoms: N_31  and  C_32
REMARK    9  A    between atoms: C_35  and  C_38
REMARK   10  A    between atoms: C_38  and  C_39
REMARK                            x       y       z     vdW  Elec       q    Type
REMARK                         _______ _______ _______ _____ _____    ______ ____
ROOT
ATOM      1  C   UNL     1      -2.288   6.411   7.582  0.00  0.00    +0.066 A 
ATOM      2  C   UNL     1      -3.255   7.388   7.402  0.00  0.00    +0.026 A 
ATOM      3  C   UNL     1      -3.661   8.164   8.471  0.00  0.00    +0.002 A 
ATOM      4  C   UNL     1      -3.098   7.976   9.720  0.00  0.00    +0.002 A 
ATOM      5  C   UNL     1      -2.129   7.008   9.907  0.00  0.00    +0.026 A 
ATOM      6  C   UNL     1      -1.720   6.222   8.841  0.00  0.00    +0.066 A 
ENDROOT
BRANCH   1  11
ATOM      7  C   UNL     1      -1.711   3.933   4.952  0.00  0.00    +0.118 C 
ATOM      8  C   UNL     1      -0.750   4.848   4.664  0.00  0.00    +0.130 C 
ATOM      9  C   UNL     1      -0.870   5.918   5.661  0.00  0.00    +0.271 C 
ATOM     10  O   UNL     1      -0.173   6.912   5.720  0.00  0.00    -0.268 OA
ATOM     11  N   UNL     1      -1.878   5.618   6.499  0.00  0.00    -0.199 N 
ATOM     12  C   UNL     1      -2.438   4.449   6.142  0.00  0.00    +0.273 C 
ATOM     13  O   UNL     1      -3.372   3.908   6.696  0.00  0.00    -0.268 OA
ATOM     14 CL   UNL     1       0.401   4.767   3.366  0.00  0.00    -0.076 Cl
BRANCH   7  15
ATOM     15  N   UNL     1      -1.966   2.759   4.273  0.00  0.00    -0.309 N 
ATOM     16  H   UNL     1      -2.744   2.227   4.499  0.00  0.00    +0.152 HD
BRANCH  15  20
ATOM     17  C   UNL     1       0.607   1.505   1.250  0.00  0.00    -0.048 A 
ATOM     18  C   UNL     1       1.101   1.756   2.517  0.00  0.00    +0.005 A 
ATOM     19  C   UNL     1       0.252   2.176   3.521  0.00  0.00    +0.023 A 
ATOM     20  C   UNL     1      -1.104   2.339   3.259  0.00  0.00    +0.031 A 
ATOM     21  C   UNL     1      -1.598   2.081   1.986  0.00  0.00    +0.023 A 
ATOM     22  C   UNL     1      -0.742   1.665   0.986  0.00  0.00    +0.005 A 
BRANCH  17  24
ATOM     23  C   UNL     1       2.088   2.272  -0.585  0.00  0.00    +0.009 C 
ATOM     24  C   UNL     1       1.538   1.052   0.155  0.00  0.00    +0.032 C 
ENDBRANCH  17  24
ENDBRANCH  15  20
ENDBRANCH   7  15
ENDBRANCH   1  11
BRANCH   6  25
ATOM     25  N   UNL     1      -0.737   5.238   9.029  0.00  0.00    -0.199 N 
ATOM     26  C   UNL     1      -0.979   3.961   9.375  0.00  0.00    +0.273 C 
ATOM     27  O   UNL     1      -2.071   3.471   9.575  0.00  0.00    -0.268 OA
ATOM     28  C   UNL     1       0.325   3.254   9.470  0.00  0.00    +0.118 C 
ATOM     29  C   UNL     1       1.281   4.170   9.169  0.00  0.00    +0.130 C 
ATOM     30  C   UNL     1       0.585   5.430   8.884  0.00  0.00    +0.271 C 
ATOM     31  O   UNL     1       1.118   6.477   8.571  0.00  0.00    -0.268 OA
ATOM     32 CL   UNL     1       2.996   3.901   9.123  0.00  0.00    -0.076 Cl
BRANCH  28  33
ATOM     33  N   UNL     1       0.525   1.929   9.800  0.00  0.00    -0.309 N 
ATOM     34  H   UNL     1       0.993   1.341   9.186  0.00  0.00    +0.152 HD
BRANCH  33  35
ATOM     35  C   UNL     1       0.053   1.434  11.016  0.00  0.00    +0.031 A 
ATOM     36  C   UNL     1      -0.479   2.302  11.962  0.00  0.00    +0.023 A 
ATOM     37  C   UNL     1      -0.951   1.808  13.162  0.00  0.00    +0.005 A 
ATOM     38  C   UNL     1      -0.882   0.452  13.428  0.00  0.00    -0.048 A 
ATOM     39  C   UNL     1      -0.348  -0.414  12.492  0.00  0.00    +0.005 A 
ATOM     40  C   UNL     1       0.120   0.072  11.287  0.00  0.00    +0.023 A 
BRANCH  38  41
ATOM     41  C   UNL     1      -1.392  -0.082  14.742  0.00  0.00    +0.032 C 
ATOM     42  C   UNL     1      -0.256  -0.083  15.767  0.00  0.00    +0.009 C 
ENDBRANCH  38  41
ENDBRANCH  33  35
ENDBRANCH  28  33
ENDBRANCH   6  25
TORSDOF 8
