REMARK  Name = ZINC21966741
REMARK  14 active torsions:
REMARK  status: ('A' for Active; 'I' for Inactive)
REMARK    1  A    between atoms: C_1  and  C_2
REMARK    2  A    between atoms: C_2  and  C_3
REMARK    3  A    between atoms: C_2  and  O_4
REMARK    4  A    between atoms: O_4  and  C_5
REMARK    5  A    between atoms: C_11  and  O_13
REMARK    6  A    between atoms: O_13  and  C_14
REMARK    7  A    between atoms: N_16  and  C_17
REMARK    8  A    between atoms: C_26  and  N_27
REMARK    9  A    between atoms: C_28  and  O_30
REMARK   10  A    between atoms: O_30  and  C_31
REMARK   11  A    between atoms: C_37  and  O_39
REMARK   12  A    between atoms: O_39  and  C_40
REMARK   13  A    between atoms: C_40  and  C_41
REMARK   14  A    between atoms: C_40  and  C_42
REMARK                            x       y       z     vdW  Elec       q    Type
REMARK                         _______ _______ _______ _____ _____    ______ ____
ROOT
ATOM      1  C   UNL     1      -7.142  -0.228   0.070  0.00  0.00    +0.044 A 
ATOM      2  C   UNL     1      -7.436   0.152  -1.221  0.00  0.00    +0.024 A 
ATOM      3  C   UNL     1      -8.619   0.826  -1.512  0.00  0.00    +0.002 A 
ATOM      4  C   UNL     1      -9.515   1.127  -0.532  0.00  0.00    +0.010 A 
ATOM      5  C   UNL     1      -9.252   0.757   0.796  0.00  0.00    +0.005 A 
ATOM      6  C   UNL     1      -8.055   0.067   1.105  0.00  0.00    +0.005 A 
ATOM      7  C   UNL     1      -7.793  -0.307   2.433  0.00  0.00    +0.010 A 
ATOM      8  C   UNL     1      -8.691  -0.009   3.412  0.00  0.00    +0.002 A 
ATOM      9  C   UNL     1      -9.874   0.665   3.122  0.00  0.00    +0.024 A 
ATOM     10  C   UNL     1     -10.162   1.057   1.833  0.00  0.00    +0.044 A 
ENDROOT
BRANCH   1  13
ATOM     11  C   UNL     1      -4.832  -0.615  -0.341  0.00  0.00    +0.405 C 
ATOM     12  O   UNL     1      -4.875   0.177  -1.262  0.00  0.00    -0.226 OA
ATOM     13  N   UNL     1      -5.952  -0.904   0.351  0.00  0.00    -0.251 N 
ATOM     14  H   UNL     1      -5.932  -1.582   1.045  0.00  0.00    +0.158 HD
BRANCH  11  15
ATOM     15  O   UNL     1      -3.667  -1.203  -0.013  0.00  0.00    -0.444 OA
BRANCH  15  21
ATOM     16  C   UNL     1      -1.264  -0.955   0.079  0.00  0.00    +0.159 C 
ATOM     17  C   UNL     1      -1.114  -2.390   0.586  0.00  0.00    +0.035 C 
ATOM     18  C   UNL     1      -0.992  -3.342  -0.605  0.00  0.00    +0.003 C 
ATOM     19  C   UNL     1      -2.247  -3.238  -1.473  0.00  0.00    +0.004 C 
ATOM     20  C   UNL     1      -2.398  -1.802  -1.980  0.00  0.00    +0.047 C 
ATOM     21  C   UNL     1      -2.520  -0.850  -0.789  0.00  0.00    +0.207 C 
BRANCH  16  22
ATOM     22  O   UNL     1      -1.379  -0.065   1.191  0.00  0.00    -0.370 OA
BRANCH  22  24
ATOM     23  C   UNL     1      -0.436   1.885   2.263  0.00  0.00    +0.037 C 
ATOM     24  C   UNL     1      -0.147   0.551   1.571  0.00  0.00    +0.113 C 
ATOM     25  C   UNL     1       0.608  -0.369   2.533  0.00  0.00    +0.037 C 
ENDBRANCH  22  24
ENDBRANCH  16  22
ENDBRANCH  15  21
ENDBRANCH  11  15
ENDBRANCH   1  13
BRANCH  10  26
ATOM     26  N   UNL     1     -11.351   1.734   1.551  0.00  0.00    -0.251 N 
ATOM     27  C   UNL     1     -12.427   1.565   2.346  0.00  0.00    +0.405 C 
ATOM     28  O   UNL     1     -12.344   0.874   3.342  0.00  0.00    -0.226 OA
ATOM     29  H   UNL     1     -11.403   2.325   0.784  0.00  0.00    +0.158 HD
BRANCH  27  30
ATOM     30  O   UNL     1     -13.593   2.163   2.037  0.00  0.00    -0.444 OA
BRANCH  30  31
ATOM     31  C   UNL     1     -14.691   1.941   2.924  0.00  0.00    +0.207 C 
ATOM     32  C   UNL     1     -15.471   0.705   2.470  0.00  0.00    +0.047 C 
ATOM     33  C   UNL     1     -15.999   0.928   1.051  0.00  0.00    +0.004 C 
ATOM     34  C   UNL     1     -16.922   2.149   1.036  0.00  0.00    +0.003 C 
ATOM     35  C   UNL     1     -16.141   3.384   1.490  0.00  0.00    +0.035 C 
ATOM     36  C   UNL     1     -15.614   3.161   2.909  0.00  0.00    +0.159 C 
BRANCH  36  37
ATOM     37  O   UNL     1     -14.885   4.315   3.333  0.00  0.00    -0.370 OA
BRANCH  37  38
ATOM     38  C   UNL     1     -14.836   4.482   4.751  0.00  0.00    +0.113 C 
ATOM     39  C   UNL     1     -13.595   5.295   5.126  0.00  0.00    +0.037 C 
ATOM     40  C   UNL     1     -16.091   5.220   5.222  0.00  0.00    +0.037 C 
ENDBRANCH  37  38
ENDBRANCH  36  37
ENDBRANCH  30  31
ENDBRANCH  27  30
ENDBRANCH  10  26
TORSDOF 10
