REMARK  Name = ZINC38915678
REMARK  8 active torsions:
REMARK  status: ('A' for Active; 'I' for Inactive)
REMARK    1  A    between atoms: C_1  and  O_2
REMARK    2  A    between atoms: O_2  and  C_3
REMARK    3  A    between atoms: C_6  and  C_9
REMARK    4  A    between atoms: N_15  and  N_16
REMARK    5  A    between atoms: C_17  and  C_18
REMARK    6  A    between atoms: C_20  and  O_26
REMARK    7  A    between atoms: C_21  and  O_25
REMARK    8  A    between atoms: O_26  and  C_27
REMARK                            x       y       z     vdW  Elec       q    Type
REMARK                         _______ _______ _______ _____ _____    ______ ____
ROOT
ATOM      1  C   UNL     1       2.602  -2.556   4.316  0.00  0.00    +0.264 C 
ATOM      2  N   UNL     1       2.425  -1.776   5.551  0.00  0.00    -0.189 NA
ATOM      3  N   UNL     1       1.803  -2.471   6.358  0.00  0.00    -0.219 N 
ATOM      4  C   UNL     1       1.482  -3.702   5.877  0.00  0.00    +0.174 C 
ATOM      5  S   UNL     1       0.623  -4.901   6.745  0.00  0.00    -0.015 S 
ATOM      6  N   UNL     1       1.943  -3.842   4.611  0.00  0.00    -0.172 N 
ATOM      7  H   UNL     1       1.566  -2.169   7.249  0.00  0.00    +0.176 HD
ENDROOT
BRANCH   1  11
ATOM      8  C   UNL     1       0.693  -0.611   1.025  0.00  0.00    +0.120 A 
ATOM      9  C   UNL     1       1.265   0.142   2.040  0.00  0.00    +0.046 A 
ATOM     10  C   UNL     1       1.881  -0.489   3.103  0.00  0.00    +0.011 A 
ATOM     11  C   UNL     1       1.929  -1.870   3.156  0.00  0.00    -0.002 A 
ATOM     12  C   UNL     1       1.359  -2.623   2.145  0.00  0.00    +0.011 A 
ATOM     13  C   UNL     1       0.737  -1.996   1.083  0.00  0.00    +0.046 A 
BRANCH   8  15
ATOM     14  C   UNL     1       0.079   1.437  -0.016  0.00  0.00    +0.277 C 
ATOM     15  O   UNL     1       0.086   0.008  -0.022  0.00  0.00    -0.495 OA
ENDBRANCH   8  15
ENDBRANCH   1  11
BRANCH   6  16
ATOM     16  N   UNL     1       1.821  -4.956   3.769  0.00  0.00    -0.183 NA
ATOM     17  C   UNL     1       1.306  -6.059   4.222  0.00  0.00    +0.138 C 
BRANCH  17  18
ATOM     18  C   UNL     1       1.279  -7.263   3.373  0.00  0.00    -0.001 A 
ATOM     19  C   UNL     1       0.720  -8.449   3.856  0.00  0.00    +0.059 A 
ATOM     20  C   UNL     1       0.697  -9.575   3.056  0.00  0.00    +0.163 A 
ATOM     21  C   UNL     1       1.231  -9.528   1.770  0.00  0.00    +0.173 A 
ATOM     22  C   UNL     1       1.787  -8.350   1.289  0.00  0.00    +0.063 A 
ATOM     23  C   UNL     1       1.808  -7.220   2.080  0.00  0.00    +0.028 A 
ATOM     24 BR   UNL     1       2.511  -8.293  -0.457  0.00  0.00    -0.046 Br
BRANCH  21  25
ATOM     25  O   UNL     1       1.208 -10.637   0.984  0.00  0.00    -0.503 OA
ATOM     26  H   UNL     1       0.413 -10.716   0.439  0.00  0.00    +0.292 HD
ENDBRANCH  21  25
BRANCH  20  27
ATOM     27  O   UNL     1       0.154 -10.731   3.523  0.00  0.00    -0.491 OA
ATOM     28  C   UNL     1      -0.375 -10.709   4.851  0.00  0.00    +0.277 C 
ENDBRANCH  20  27
ENDBRANCH  17  18
ENDBRANCH   6  16
TORSDOF 6
