REMARK  Name = ZINC19960692
REMARK  4 active torsions:
REMARK  status: ('A' for Active; 'I' for Inactive)
REMARK    1  A    between atoms: C_4  and  C_7
REMARK    2  A    between atoms: N_10  and  C_20
REMARK    3  A    between atoms: N_12  and  C_13
REMARK    4  A    between atoms: C_20  and  C_21
REMARK                            x       y       z     vdW  Elec       q    Type
REMARK                         _______ _______ _______ _____ _____    ______ ____
ROOT
ATOM      1  C   UNL     1      -1.248   2.836  -1.124  0.00  0.00    +0.108 C 
ATOM      2  N   UNL     1      -1.121   3.599  -0.085  0.00  0.00    -0.359 N 
ATOM      3  C   UNL     1      -0.541   3.139   1.173  0.00  0.00    +0.203 C 
ATOM      4  N   UNL     1      -0.592   1.675   1.267  0.00  0.00    -0.265 NA
ATOM      5  C   UNL     1      -0.029   1.065   0.048  0.00  0.00    +0.201 C 
ATOM      6  N   UNL     1      -0.848   1.514  -1.090  0.00  0.00    -0.273 N 
ATOM      7  H   UNL     1      -1.457   4.646  -0.127  0.00  0.00    +0.162 HD
ENDROOT
BRANCH   6   8
ATOM      8  C   UNL     1      -1.212   0.627  -2.108  0.00  0.00    +0.036 A 
ATOM      9  C   UNL     1      -2.552   0.350  -2.343  0.00  0.00    +0.025 A 
ATOM     10  C   UNL     1      -2.909  -0.523  -3.352  0.00  0.00    +0.022 A 
ATOM     11  C   UNL     1      -1.932  -1.130  -4.121  0.00  0.00    +0.041 A 
ATOM     12  C   UNL     1      -0.595  -0.860  -3.885  0.00  0.00    +0.022 A 
ATOM     13  C   UNL     1      -0.233   0.016  -2.881  0.00  0.00    +0.025 A 
ATOM     14 CL   UNL     1      -2.383  -2.231  -5.385  0.00  0.00    -0.084 Cl
ENDBRANCH   6   8
BRANCH   1  18
ATOM     15  C   UNL     1      -2.918   4.425  -4.694  0.00  0.00    +0.000 A 
ATOM     16  C   UNL     1      -3.347   4.893  -3.465  0.00  0.00    +0.001 A 
ATOM     17  C   UNL     1      -2.808   4.381  -2.302  0.00  0.00    +0.011 A 
ATOM     18  C   UNL     1      -1.830   3.389  -2.368  0.00  0.00    +0.013 A 
ATOM     19  C   UNL     1      -1.399   2.924  -3.610  0.00  0.00    +0.011 A 
ATOM     20  C   UNL     1      -1.948   3.441  -4.766  0.00  0.00    +0.001 A 
ENDBRANCH   1  18
BRANCH   4  21
ATOM     21  C   UNL     1       0.110   1.199   2.466  0.00  0.00    +0.124 C 
BRANCH  21  22
ATOM     22  C   UNL     1      -0.423   1.918   3.679  0.00  0.00    -0.015 A 
ATOM     23  C   UNL     1       0.329   2.910   4.279  0.00  0.00    +0.006 A 
ATOM     24  C   UNL     1      -0.159   3.570   5.391  0.00  0.00    +0.000 A 
ATOM     25  C   UNL     1      -1.400   3.239   5.903  0.00  0.00    +0.001 A 
ATOM     26  C   UNL     1      -2.152   2.247   5.304  0.00  0.00    +0.020 A 
ATOM     27  C   UNL     1      -1.667   1.589   4.187  0.00  0.00    +0.045 A 
ATOM     28 CL   UNL     1      -2.615   0.349   3.429  0.00  0.00    -0.083 Cl
ENDBRANCH  21  22
ENDBRANCH   4  21
TORSDOF 4
