REMARK  Name = ZINC10862647
REMARK  13 active torsions:
REMARK  status: ('A' for Active; 'I' for Inactive)
REMARK    1  A    between atoms: C_1  and  C_2
REMARK    2  A    between atoms: C_5  and  C_8
REMARK    3  A    between atoms: C_8  and  C_10
REMARK    4  A    between atoms: C_15  and  C_16
REMARK    5  A    between atoms: C_16  and  O_18
REMARK    6  A    between atoms: O_18  and  C_19
REMARK    7  A    between atoms: C_19  and  C_20
REMARK    8  A    between atoms: N_22  and  C_23
REMARK    9  A    between atoms: C_23  and  C_24
REMARK   10  A    between atoms: N_26  and  C_27
REMARK   11  A    between atoms: C_28  and  C_35
REMARK   12  A    between atoms: C_30  and  C_34
REMARK   13  A    between atoms: C_32  and  C_33
REMARK                            x       y       z     vdW  Elec       q    Type
REMARK                         _______ _______ _______ _____ _____    ______ ____
ROOT
ATOM      1  C   UNL     1      -4.099   1.803  -1.753  0.00  0.00    +0.328 C 
ENDROOT
BRANCH   1   2
ATOM      2  C   UNL     1      -4.942   1.130  -0.700  0.00  0.00    +0.251 C 
ATOM      3  O   UNL     1      -4.552   0.110  -0.172  0.00  0.00    -0.272 OA
ATOM      4  N   UNL     1      -6.129   1.662  -0.346  0.00  0.00    -0.304 N 
ATOM      5  H   UNL     1      -6.440   2.478  -0.768  0.00  0.00    +0.149 HD
BRANCH   4   6
ATOM      6  C   UNL     1      -6.948   1.007   0.677  0.00  0.00    +0.200 C 
BRANCH   6   7
ATOM      7  C   UNL     1      -8.215   1.796   0.886  0.00  0.00    +0.234 C 
ATOM      8  O   UNL     1      -8.414   2.806   0.244  0.00  0.00    -0.274 OA
ATOM      9  N   UNL     1      -9.127   1.380   1.787  0.00  0.00    -0.284 N 
ATOM     10  H   UNL     1      -9.002   0.537   2.250  0.00  0.00    +0.155 HD
BRANCH   9  11
ATOM     11  C   UNL     1     -10.255   2.164   2.054  0.00  0.00    +0.039 A 
ATOM     12  C   UNL     1     -10.109   3.506   2.379  0.00  0.00    -0.029 A 
ATOM     13  C   UNL     1     -11.224   4.278   2.638  0.00  0.00    +0.008 A 
ATOM     14  C   UNL     1     -12.485   3.714   2.583  0.00  0.00    -0.050 A 
ATOM     15  C   UNL     1     -12.634   2.376   2.264  0.00  0.00    +0.008 A 
ATOM     16  C   UNL     1     -11.523   1.600   2.000  0.00  0.00    -0.029 A 
ATOM     17  C   UNL     1     -11.686   0.143   1.652  0.00  0.00    +0.045 C 
ATOM     18  C   UNL     1     -13.700   4.558   2.871  0.00  0.00    +0.044 C 
ATOM     19  C   UNL     1      -8.734   4.121   2.444  0.00  0.00    +0.045 C 
ENDBRANCH   9  11
ENDBRANCH   6   7
ENDBRANCH   4   6
ENDBRANCH   1   2
BRANCH   1  20
ATOM     20  O   UNL     1      -2.878   1.043  -1.954  0.00  0.00    -0.452 OA
BRANCH  20  21
ATOM     21  C   UNL     1      -2.009   1.514  -2.869  0.00  0.00    +0.340 C 
ATOM     22  O   UNL     1      -2.263   2.531  -3.482  0.00  0.00    -0.245 OA
BRANCH  21  28
ATOM     23  C   UNL     1       0.108   1.208  -4.168  0.00  0.00    +0.036 A 
ATOM     24  C   UNL     1       1.293   0.514  -4.404  0.00  0.00    +0.012 A 
ATOM     25  C   UNL     1       1.625  -0.574  -3.619  0.00  0.00    +0.001 A 
ATOM     26  C   UNL     1       0.786  -0.982  -2.597  0.00  0.00    +0.001 A 
ATOM     27  C   UNL     1      -0.394  -0.307  -2.348  0.00  0.00    +0.016 A 
ATOM     28  C   UNL     1      -0.745   0.792  -3.128  0.00  0.00    +0.070 A 
BRANCH  23  29
ATOM     29  C   UNL     1      -0.252   2.372  -5.005  0.00  0.00    +0.194 C 
ATOM     30  O   UNL     1       0.301   3.441  -4.829  0.00  0.00    -0.287 OA
BRANCH  29  35
ATOM     31  C   UNL     1      -4.264   1.846  -9.094  0.00  0.00    +0.044 C 
ATOM     32  C   UNL     1      -3.213   1.984  -8.023  0.00  0.00    -0.050 A 
ATOM     33  C   UNL     1      -2.529   3.178  -7.880  0.00  0.00    +0.004 A 
ATOM     34  C   UNL     1      -1.566   3.311  -6.902  0.00  0.00    +0.012 A 
ATOM     35  C   UNL     1      -1.282   2.237  -6.054  0.00  0.00    +0.022 A 
ATOM     36  C   UNL     1      -1.974   1.033  -6.208  0.00  0.00    +0.012 A 
ATOM     37  C   UNL     1      -2.938   0.916  -7.187  0.00  0.00    +0.004 A 
ENDBRANCH  29  35
ENDBRANCH  23  29
ENDBRANCH  21  28
ENDBRANCH  20  21
ENDBRANCH   1  20
TORSDOF 9
