REMARK  Name = ZINC21260213
REMARK  12 active torsions:
REMARK  status: ('A' for Active; 'I' for Inactive)
REMARK    1  A    between atoms: C_1  and  C_2
REMARK    2  A    between atoms: C_2  and  O_3
REMARK    3  A    between atoms: O_3  and  C_4
REMARK    4  A    between atoms: C_6  and  C_12
REMARK    5  A    between atoms: C_9  and  O_10
REMARK    6  A    between atoms: C_23  and  C_26
REMARK    7  A    between atoms: C_29  and  O_34
REMARK    8  A    between atoms: C_30  and  O_32
REMARK    9  A    between atoms: O_32  and  C_33
REMARK   10  A    between atoms: O_34  and  C_35
REMARK   11  A    between atoms: C_35  and  C_36
REMARK   12  A    between atoms: C_35  and  C_37
REMARK                            x       y       z     vdW  Elec       q    Type
REMARK                         _______ _______ _______ _____ _____    ______ ____
ROOT
ATOM      1  C   UNL     1       1.668  -1.560   2.758  0.00  0.00    +0.063 C 
ATOM      2  C   UNL     1       3.184  -1.361   2.731  0.00  0.00    +0.109 C 
ATOM      3  C   UNL     1       3.486   0.103   2.540  0.00  0.00    +0.218 C 
ATOM      4  O   UNL     1       4.463   0.593   3.065  0.00  0.00    -0.275 OA
ATOM      5  N   UNL     1       2.674   0.867   1.789  0.00  0.00    -0.289 N 
ATOM      6  C   UNL     1       1.577   0.333   1.163  0.00  0.00    +0.018 C 
ATOM      7  C   UNL     1       1.046  -0.832   1.589  0.00  0.00    +0.020 C 
ATOM      8  C   UNL     1      -0.081  -1.393   0.967  0.00  0.00    +0.162 C 
ATOM      9  O   UNL     1      -0.524  -2.450   1.372  0.00  0.00    -0.292 OA
ATOM     10  C   UNL     1      -0.750  -0.706  -0.193  0.00  0.00    +0.088 C 
ATOM     11  C   UNL     1      -0.525   0.805  -0.073  0.00  0.00    +0.032 C 
ATOM     12  C   UNL     1       0.981   1.071  -0.010  0.00  0.00    +0.059 C 
ATOM     13  H   UNL     1       2.885   1.940   1.668  0.00  0.00    +0.155 HD
ENDROOT
BRANCH   1  16
ATOM     14  C   UNL     1      -0.080  -1.341   6.100  0.00  0.00    +0.163 A 
ATOM     15  C   UNL     1       0.428  -1.843   4.912  0.00  0.00    +0.053 A 
ATOM     16  C   UNL     1       1.111  -1.010   4.046  0.00  0.00    -0.034 A 
ATOM     17  C   UNL     1       1.280   0.326   4.356  0.00  0.00    +0.028 A 
ATOM     18  C   UNL     1       0.771   0.835   5.537  0.00  0.00    +0.086 A 
ATOM     19  C   UNL     1       0.089   0.004   6.413  0.00  0.00    +0.177 A 
ATOM     20 CL   UNL     1       0.985   2.514   5.923  0.00  0.00    -0.080 Cl
BRANCH  19  21
ATOM     21  O   UNL     1      -0.412   0.502   7.575  0.00  0.00    -0.502 OA
ATOM     22  H   UNL     1      -0.277   1.565   7.821  0.00  0.00    +0.292 HD
ENDBRANCH  19  21
BRANCH  14  23
ATOM     23  O   UNL     1      -0.748  -2.161   6.955  0.00  0.00    -0.489 OA
BRANCH  23  25
ATOM     24  C   UNL     1      -1.658  -4.290   7.648  0.00  0.00    +0.048 C 
ATOM     25  C   UNL     1      -0.884  -3.530   6.569  0.00  0.00    +0.226 C 
ENDBRANCH  23  25
ENDBRANCH  14  23
ENDBRANCH   1  16
BRANCH  11  26
ATOM     26  C   UNL     1      -1.112   1.501  -1.274  0.00  0.00    -0.040 A 
ATOM     27  C   UNL     1      -0.652   1.196  -2.541  0.00  0.00    +0.008 A 
ATOM     28  C   UNL     1      -1.188   1.832  -3.646  0.00  0.00    +0.050 A 
ATOM     29  C   UNL     1      -2.188   2.777  -3.484  0.00  0.00    +0.162 A 
ATOM     30  C   UNL     1      -2.651   3.084  -2.208  0.00  0.00    +0.162 A 
ATOM     31  C   UNL     1      -2.114   2.439  -1.106  0.00  0.00    +0.053 A 
BRANCH  30  32
ATOM     32  O   UNL     1      -3.633   4.011  -2.044  0.00  0.00    -0.491 OA
ATOM     33  C   UNL     1      -4.058   4.275  -0.706  0.00  0.00    +0.277 C 
ENDBRANCH  30  32
BRANCH  29  34
ATOM     34  O   UNL     1      -2.717   3.402  -4.570  0.00  0.00    -0.486 OA
BRANCH  34  35
ATOM     35  C   UNL     1      -2.113   3.126  -5.835  0.00  0.00    +0.167 C 
ATOM     36  C   UNL     1      -2.720   1.849  -6.422  0.00  0.00    +0.051 C 
ATOM     37  C   UNL     1      -2.368   4.295  -6.788  0.00  0.00    +0.051 C 
ENDBRANCH  34  35
ENDBRANCH  29  34
ENDBRANCH  11  26
TORSDOF 8
