REMARK  Name = ZINC16567373
REMARK  8 active torsions:
REMARK  status: ('A' for Active; 'I' for Inactive)
REMARK    1  A    between atoms: C_1  and  C_2
REMARK    2  A    between atoms: C_2  and  C_3
REMARK    3  A    between atoms: C_3  and  C_4
REMARK    4  A    between atoms: C_5  and  C_18
REMARK    5  A    between atoms: C_6  and  O_17
REMARK    6  A    between atoms: N_7  and  C_9
REMARK    7  A    between atoms: N_22  and  C_26
REMARK    8  A    between atoms: C_26  and  C_27
REMARK                            x       y       z     vdW  Elec       q    Type
REMARK                         _______ _______ _______ _____ _____    ______ ____
ROOT
ATOM      1  C   UNL     1       3.187   2.434   0.633  0.00  0.00    +0.074 A 
ATOM      2  C   UNL     1       1.978   1.876   1.114  0.00  0.00    +0.061 A 
ATOM      3  C   UNL     1       1.218   1.530  -0.001  0.00  0.00    +0.223 A 
ATOM      4  N   UNL     1       1.936   1.873  -1.093  0.00  0.00    -0.200 N 
ATOM      5  N   UNL     1       3.148   2.429  -0.670  0.00  0.00    -0.168 NA
ENDROOT
BRANCH   2   6
ATOM      6  C   UNL     1       1.599   1.695   2.516  0.00  0.00    +0.043 C 
ATOM      7  C   UNL     1       0.385   2.126   2.954  0.00  0.00    +0.099 C 
ATOM      8  C   UNL     1      -0.133   2.028   4.273  0.00  0.00    +0.269 C 
ATOM      9  O   UNL     1       0.429   1.538   5.237  0.00  0.00    -0.268 OA
ATOM     10  N   UNL     1      -1.362   2.579   4.258  0.00  0.00    -0.216 N 
ATOM     11  C   UNL     1      -1.645   3.015   3.019  0.00  0.00    +0.313 C 
ATOM     12  O   UNL     1      -2.683   3.559   2.690  0.00  0.00    -0.252 OA
ATOM     13  N   UNL     1      -0.609   2.765   2.196  0.00  0.00    -0.265 N 
ATOM     14  H   UNL     1      -0.559   2.985   1.253  0.00  0.00    +0.157 HD
BRANCH  10  15
ATOM     15  C   UNL     1      -2.253   2.688   5.415  0.00  0.00    +0.153 C 
BRANCH  15  16
ATOM     16  C   UNL     1      -1.995   3.991   6.128  0.00  0.00    -0.027 A 
ATOM     17  C   UNL     1      -2.700   5.125   5.770  0.00  0.00    +0.005 A 
ATOM     18  C   UNL     1      -2.464   6.321   6.422  0.00  0.00    +0.003 A 
ATOM     19  C   UNL     1      -1.523   6.384   7.433  0.00  0.00    +0.038 A 
ATOM     20  C   UNL     1      -0.817   5.248   7.792  0.00  0.00    +0.124 A 
ATOM     21  C   UNL     1      -1.058   4.050   7.141  0.00  0.00    +0.043 A 
ATOM     22  F   UNL     1       0.103   5.309   8.780  0.00  0.00    -0.205 F 
ENDBRANCH  15  16
ENDBRANCH  10  15
ENDBRANCH   2   6
BRANCH   4  23
ATOM     23  C   UNL     1       1.534   1.701  -2.425  0.00  0.00    +0.071 A 
ATOM     24  C   UNL     1       1.894   2.636  -3.386  0.00  0.00    +0.029 A 
ATOM     25  C   UNL     1       1.498   2.465  -4.698  0.00  0.00    +0.023 A 
ATOM     26  C   UNL     1       0.742   1.362  -5.055  0.00  0.00    +0.059 A 
ATOM     27  C   UNL     1       0.381   0.428  -4.099  0.00  0.00    +0.061 A 
ATOM     28  C   UNL     1       0.781   0.592  -2.786  0.00  0.00    +0.049 A 
ATOM     29 CL   UNL     1      -0.567  -0.955  -4.550  0.00  0.00    -0.082 Cl
ATOM     30 CL   UNL     1       0.245   1.149  -6.705  0.00  0.00    -0.082 Cl
ENDBRANCH   4  23
BRANCH   3  31
ATOM     31  O   UNL     1      -0.011   0.963   0.007  0.00  0.00    -0.492 OA
ATOM     32  H   UNL     1       0.002  -0.004   0.002  0.00  0.00    +0.294 HD
ENDBRANCH   3  31
BRANCH   1  33
ATOM     33  C   UNL     1       4.321   2.950   1.481  0.00  0.00    +0.058 C 
BRANCH  33  35
ATOM     34  C   UNL     1       5.251   4.957   2.642  0.00  0.00    +0.004 C 
ATOM     35  C   UNL     1       4.100   4.434   1.781  0.00  0.00    +0.003 C 
ENDBRANCH  33  35
ENDBRANCH   1  33
TORSDOF 7
