REMARK  Name = ZINC53674069
REMARK  7 active torsions:
REMARK  status: ('A' for Active; 'I' for Inactive)
REMARK    1  A    between atoms: C_1  and  C_2
REMARK    2  A    between atoms: C_2  and  C_4
REMARK    3  A    between atoms: C_2  and  O_22
REMARK    4  A    between atoms: C_7  and  O_10
REMARK    5  A    between atoms: O_10  and  C_11
REMARK    6  A    between atoms: C_14  and  C_20
REMARK    7  A    between atoms: C_16  and  N_17
REMARK                            x       y       z     vdW  Elec       q    Type
REMARK                         _______ _______ _______ _____ _____    ______ ____
ROOT
ATOM      1  O   UNL     1      -5.282  -1.953   0.042  0.00  0.00    -0.454 OA
ENDROOT
BRANCH   1   5
ATOM      2  C   UNL     1      -1.405  -0.545   0.088  0.00  0.00    -0.019 A 
ATOM      3  C   UNL     1      -2.113  -0.656   1.270  0.00  0.00    +0.010 A 
ATOM      4  C   UNL     1      -3.411  -1.127   1.258  0.00  0.00    +0.046 A 
ATOM      5  C   UNL     1      -4.005  -1.489   0.057  0.00  0.00    +0.129 A 
ATOM      6  C   UNL     1      -3.292  -1.377  -1.128  0.00  0.00    +0.046 A 
ATOM      7  C   UNL     1      -1.996  -0.901  -1.111  0.00  0.00    +0.010 A 
BRANCH   2   9
ATOM      8  C   UNL     1      -0.002   1.496   0.202  0.00  0.00    +0.043 C 
ATOM      9  C   UNL     1       0.012  -0.031   0.104  0.00  0.00    +0.141 C 
BRANCH   9  10
ATOM     10  O   UNL     1       0.703  -0.575   1.231  0.00  0.00    -0.387 OA
ATOM     11  H   UNL     1       1.623  -0.285   1.305  0.00  0.00    +0.210 HD
ENDBRANCH   9  10
ENDBRANCH   2   9
ENDBRANCH   1   5
BRANCH   1  12
ATOM     12  C   UNL     1      -6.278  -1.088   0.361  0.00  0.00    +0.159 A 
ATOM     13  C   UNL     1      -5.990   0.257   0.563  0.00  0.00    +0.050 A 
ATOM     14  C   UNL     1      -6.998   1.138   0.887  0.00  0.00    +0.022 A 
ATOM     15  C   UNL     1      -8.312   0.679   1.012  0.00  0.00    +0.054 A 
ATOM     16  C   UNL     1      -8.597  -0.674   0.808  0.00  0.00    +0.055 A 
ATOM     17  C   UNL     1      -7.584  -1.548   0.479  0.00  0.00    +0.169 A 
BRANCH  17  18
ATOM     18  N   UNL     1      -7.886  -2.980   0.258  0.00  0.00    +0.060 N 
ATOM     19  O   UNL     1      -9.022  -3.381   0.360  0.00  0.00    -0.126 OA
ATOM     20  O   UNL     1      -6.997  -3.748  -0.026  0.00  0.00    -0.126 OA
ENDBRANCH  17  18
BRANCH  15  21
ATOM     21  C   UNL     1      -9.363   1.591   1.349  0.00  0.00    +0.099 C 
ATOM     22  N   UNL     1     -10.196   2.316   1.616  0.00  0.00    -0.191 NA
ENDBRANCH  15  21
ENDBRANCH   1  12
TORSDOF 6
