REMARK  Name = ZINC09831127
REMARK  9 active torsions:
REMARK  status: ('A' for Active; 'I' for Inactive)
REMARK    1  A    between atoms: C_1  and  C_2
REMARK    2  A    between atoms: N_10  and  C_11
REMARK    3  A    between atoms: C_11  and  C_12
REMARK    4  A    between atoms: C_12  and  C_13
REMARK    5  A    between atoms: N_26  and  C_27
REMARK    6  A    between atoms: C_27  and  C_28
REMARK    7  A    between atoms: C_28  and  N_70
REMARK    8  A    between atoms: C_29  and  C_37
REMARK    9  A    between atoms: C_34  and  C_36
REMARK                            x       y       z     vdW  Elec       q    Type
REMARK                         _______ _______ _______ _____ _____    ______ ____
ROOT
ATOM      1  C   UNL     1      -3.991  -0.329   0.018  0.00  0.00    +0.154 A 
ATOM      2  N   UNL     1      -4.518   0.891  -0.037  0.00  0.00    -0.211 NA
ATOM      3  C   UNL     1      -3.556   1.789  -0.064  0.00  0.00    +0.169 A 
ATOM      4  C   UNL     1      -3.516   3.254  -0.123  0.00  0.00    +0.045 A 
ATOM      5  C   UNL     1      -4.677   4.023  -0.165  0.00  0.00    +0.014 A 
ATOM      6  C   UNL     1      -4.582   5.396  -0.221  0.00  0.00    +0.001 A 
ATOM      7  C   UNL     1      -3.340   6.018  -0.234  0.00  0.00    +0.002 A 
ATOM      8  C   UNL     1      -2.181   5.277  -0.193  0.00  0.00    +0.028 A 
ATOM      9  C   UNL     1      -2.250   3.882  -0.137  0.00  0.00    +0.078 A 
ATOM     10  N   UNL     1      -1.131   3.120  -0.095  0.00  0.00    -0.214 NA
ATOM     11  C   UNL     1      -1.183   1.815  -0.042  0.00  0.00    +0.219 A 
ATOM     12  N   UNL     1      -2.362   1.121  -0.030  0.00  0.00    -0.181 N 
ATOM     13  N   UNL     1      -2.684  -0.242   0.027  0.00  0.00    -0.147 NA
ATOM     14  N   UNL     1      -0.004   1.110  -0.002  0.00  0.00    -0.315 N 
ATOM     15  H   UNL     1      -0.019   0.141   0.038  0.00  0.00    +0.149 HD
ENDROOT
BRANCH   1  16
ATOM     16  C   UNL     1      -4.778  -1.614   0.063  0.00  0.00    +0.099 C 
BRANCH  16  17
ATOM     17  C   UNL     1      -5.030  -2.107  -1.363  0.00  0.00    +0.131 C 
BRANCH  17  27
ATOM     18  C   UNL     1      -3.810  -4.947  -1.249  0.00  0.00    +0.086 C 
ATOM     19  C   UNL     1      -5.280  -4.615  -1.269  0.00  0.00    +0.108 A 
ATOM     20  N   UNL     1      -6.242  -5.490  -1.238  0.00  0.00    -0.233 NA
ATOM     21  C   UNL     1      -7.440  -4.853  -1.275  0.00  0.00    +0.089 A 
ATOM     22  C   UNL     1      -8.767  -5.293  -1.270  0.00  0.00    +0.030 A 
ATOM     23  C   UNL     1      -9.786  -4.384  -1.316  0.00  0.00    +0.002 A 
ATOM     24  C   UNL     1      -9.518  -3.023  -1.369  0.00  0.00    +0.002 A 
ATOM     25  C   UNL     1      -8.218  -2.566  -1.374  0.00  0.00    +0.028 A 
ATOM     26  C   UNL     1      -7.169  -3.475  -1.328  0.00  0.00    +0.069 A 
ATOM     27  N   UNL     1      -5.794  -3.356  -1.320  0.00  0.00    -0.327 N 
ENDBRANCH  17  27
ENDBRANCH  16  17
ENDBRANCH   1  16
BRANCH  14  28
ATOM     28  C   UNL     1       1.276   1.822  -0.025  0.00  0.00    +0.086 C 
BRANCH  28  29
ATOM     29  C   UNL     1       2.424   0.810   0.021  0.00  0.00    -0.059 C 
BRANCH  29  37
ATOM     30  C   UNL     1       3.916   2.190  -1.294  0.00  0.00    -0.071 C 
ATOM     31  C   UNL     1       5.187   3.040  -1.233  0.00  0.00    -0.016 C 
ATOM     32  C   UNL     1       6.381   2.140  -0.903  0.00  0.00    -0.003 C 
ATOM     33  C   UNL     1       6.117   1.421   0.424  0.00  0.00    -0.016 C 
ATOM     34  C   UNL     1       4.819   0.619   0.314  0.00  0.00    -0.071 C 
ATOM     35  C   UNL     1       4.541  -0.085   1.644  0.00  0.00    -0.013 C 
ATOM     36  C   UNL     1       4.060   1.135  -2.393  0.00  0.00    -0.013 C 
ATOM     37  N   UNL     1       3.705   1.545   0.020  0.00  0.00    +0.384 N 
ATOM     38  H   UNL     1       3.675   2.271   0.746  0.00  0.00    -0.081 HD
ENDBRANCH  29  37
ENDBRANCH  28  29
ENDBRANCH  14  28
TORSDOF 6
