REMARK  Name = ZINC38743369
REMARK  8 active torsions:
REMARK  status: ('A' for Active; 'I' for Inactive)
REMARK    1  A    between atoms: C_1  and  O_2
REMARK    2  A    between atoms: O_2  and  C_3
REMARK    3  A    between atoms: C_6  and  C_9
REMARK    4  A    between atoms: C_9  and  C_10
REMARK    5  A    between atoms: C_13  and  C_20
REMARK    6  A    between atoms: C_23  and  C_26
REMARK    7  A    between atoms: C_29  and  O_32
REMARK    8  A    between atoms: O_32  and  C_33
REMARK                            x       y       z     vdW  Elec       q    Type
REMARK                         _______ _______ _______ _____ _____    ______ ____
ROOT
ATOM      1  C   UNL     1       3.963  -2.719  -4.071  0.00  0.00    +0.099 C 
ATOM      2  N   UNL     1       4.601  -2.411  -2.991  0.00  0.00    -0.178 NA
ATOM      3  N   UNL     1       5.955  -2.610  -2.829  0.00  0.00    -0.206 N 
ATOM      4  C   UNL     1       7.151  -2.196  -2.058  0.00  0.00    +0.206 C 
ATOM      5  N   UNL     1       8.259  -2.153  -3.042  0.00  0.00    -0.231 NA
ATOM      6  N   UNL     1       7.708  -2.646  -4.317  0.00  0.00    -0.224 NA
ATOM      7  C   UNL     1       6.569  -3.479  -3.883  0.00  0.00    +0.240 C 
ATOM      8  S   UNL     1       5.211  -3.469  -5.109  0.00  0.00    -0.067 S 
ATOM      9  H   UNL     1       8.618  -1.215  -3.142  0.00  0.00    +0.143 HD
ATOM     10  H   UNL     1       7.397  -1.881  -4.896  0.00  0.00    +0.144 HD
ENDROOT
BRANCH   4  11
ATOM     11  C   UNL     1       7.453  -3.218  -0.961  0.00  0.00    +0.190 C 
ATOM     12  C   UNL     1       8.638  -2.771  -0.123  0.00  0.00    +0.034 C 
ATOM     13  C   UNL     1       9.551  -3.743  -0.310  0.00  0.00    +0.091 C 
ATOM     14  N   UNL     1       9.062  -4.699  -1.143  0.00  0.00    -0.154 NA
ATOM     15  N   UNL     1       7.912  -4.489  -1.546  0.00  0.00    -0.176 NA
BRANCH  13  16
ATOM     16  C   UNL     1      10.900  -3.767   0.307  0.00  0.00    +0.002 A 
ATOM     17  C   UNL     1      11.299  -2.734   1.154  0.00  0.00    +0.013 A 
ATOM     18  C   UNL     1      12.553  -2.760   1.726  0.00  0.00    +0.046 A 
ATOM     19  C   UNL     1      13.419  -3.812   1.459  0.00  0.00    +0.120 A 
ATOM     20  C   UNL     1      13.024  -4.842   0.616  0.00  0.00    +0.046 A 
ATOM     21  C   UNL     1      11.769  -4.825   0.045  0.00  0.00    +0.013 A 
BRANCH  19  22
ATOM     22  O   UNL     1      14.655  -3.834   2.024  0.00  0.00    -0.495 OA
ATOM     23  C   UNL     1      15.493  -4.946   1.706  0.00  0.00    +0.277 C 
ENDBRANCH  19  22
ENDBRANCH  13  16
ENDBRANCH   4  11
BRANCH   1  24
ATOM     24  C   UNL     1       2.505  -2.503  -4.381  0.00  0.00    +0.099 C 
BRANCH  24  28
ATOM     25  C   UNL     1       0.606  -0.607  -1.056  0.00  0.00    +0.120 A 
ATOM     26  C   UNL     1       1.173   0.161  -2.062  0.00  0.00    +0.046 A 
ATOM     27  C   UNL     1       1.786  -0.455  -3.136  0.00  0.00    +0.007 A 
ATOM     28  C   UNL     1       1.835  -1.835  -3.209  0.00  0.00    -0.041 A 
ATOM     29  C   UNL     1       1.270  -2.602  -2.207  0.00  0.00    +0.007 A 
ATOM     30  C   UNL     1       0.661  -1.992  -1.128  0.00  0.00    +0.046 A 
BRANCH  25  32
ATOM     31  C   UNL     1      -0.017   1.425   0.010  0.00  0.00    +0.277 C 
ATOM     32  O   UNL     1       0.002  -0.004   0.002  0.00  0.00    -0.495 OA
ENDBRANCH  25  32
ENDBRANCH  24  28
ENDBRANCH   1  24
TORSDOF 6
