REMARK  Name = ZINC34923462
REMARK  9 active torsions:
REMARK  status: ('A' for Active; 'I' for Inactive)
REMARK    1  A    between atoms: C_1  and  C_2
REMARK    2  A    between atoms: C_3  and  C_30
REMARK    3  A    between atoms: C_4  and  C_23
REMARK    4  A    between atoms: C_7  and  C_12
REMARK    5  A    between atoms: C_13  and  N_15
REMARK    6  A    between atoms: N_15  and  C_16
REMARK    7  A    between atoms: N_19  and  C_22
REMARK    8  A    between atoms: C_30  and  O_32
REMARK    9  A    between atoms: O_32  and  C_33
REMARK                            x       y       z     vdW  Elec       q    Type
REMARK                         _______ _______ _______ _____ _____    ______ ____
ROOT
ATOM      1  C   UNL     1      -0.062   1.946   0.123  0.00  0.00    +0.066 C 
ATOM      2  C   UNL     1       0.021   0.442   0.111  0.00  0.00    +0.053 C 
ATOM      3  C   UNL     1      -1.139  -0.309   0.139  0.00  0.00    +0.083 C 
ATOM      4  C   UNL     1      -1.004  -1.815   0.125  0.00  0.00    +0.151 C 
ATOM      5  N   UNL     1       0.376  -2.371   0.084  0.00  0.00    -0.267 N 
ATOM      6  C   UNL     1       0.734  -3.704   0.065  0.00  0.00    +0.048 C 
ATOM      7  C   UNL     1       2.053  -3.998   0.026  0.00  0.00    +0.072 C 
ATOM      8  S   UNL     1       2.792  -2.377   0.016  0.00  0.00    -0.060 S 
ATOM      9  C   UNL     1       1.390  -1.455   0.061  0.00  0.00    +0.166 C 
ATOM     10  N   UNL     1       1.203  -0.151   0.070  0.00  0.00    -0.230 NA
ENDROOT
BRANCH   4  11
ATOM     11  C   UNL     1      -1.682  -2.353   1.359  0.00  0.00    -0.004 A 
ATOM     12  C   UNL     1      -2.897  -3.003   1.251  0.00  0.00    +0.007 A 
ATOM     13  C   UNL     1      -3.520  -3.497   2.383  0.00  0.00    +0.000 A 
ATOM     14  C   UNL     1      -2.928  -3.340   3.622  0.00  0.00    +0.001 A 
ATOM     15  C   UNL     1      -1.713  -2.689   3.731  0.00  0.00    +0.020 A 
ATOM     16  C   UNL     1      -1.087  -2.201   2.598  0.00  0.00    +0.046 A 
ATOM     17 CL   UNL     1       0.442  -1.390   2.733  0.00  0.00    -0.083 Cl
ENDBRANCH   4  11
BRANCH   6  18
ATOM     18  C   UNL     1      -0.282  -4.766   0.087  0.00  0.00    +0.091 C 
ATOM     19  C   UNL     1       0.093  -6.054   0.203  0.00  0.00    +0.239 C 
ATOM     20  O   UNL     1       1.408  -6.381   0.190  0.00  0.00    -0.271 OA
BRANCH  19  21
ATOM     21  N   UNL     1      -0.866  -7.045   0.337  0.00  0.00    -0.309 N 
ATOM     22  H   UNL     1      -1.807  -6.820   0.275  0.00  0.00    +0.149 HD
BRANCH  21  23
ATOM     23  C   UNL     1      -0.457  -8.432   0.573  0.00  0.00    +0.070 C 
ATOM     24  C   UNL     1      -0.067  -9.084  -0.756  0.00  0.00    +0.003 C 
ATOM     25  C   UNL     1       0.282 -10.554  -0.514  0.00  0.00    -0.077 C 
ATOM     26  N   UNL     1      -0.881 -11.250   0.051  0.00  0.00    +0.378 N 
ATOM     27  C   UNL     1      -1.217 -10.676   1.359  0.00  0.00    -0.077 C 
ATOM     28  C   UNL     1      -1.623  -9.211   1.189  0.00  0.00    +0.003 C 
ATOM     29  C   UNL     1      -0.567 -12.676   0.209  0.00  0.00    -0.096 C 
ATOM     30  H   UNL     1      -1.668 -11.148  -0.572  0.00  0.00    -0.082 HD
ENDBRANCH  21  23
ENDBRANCH  19  21
ENDBRANCH   6  18
BRANCH   3  31
ATOM     31  C   UNL     1      -2.397   0.304   0.178  0.00  0.00    +0.339 C 
ATOM     32  O   UNL     1      -2.482   1.514   0.296  0.00  0.00    -0.245 OA
BRANCH  31  33
ATOM     33  O   UNL     1      -3.517  -0.446   0.084  0.00  0.00    -0.465 OA
ATOM     34  C   UNL     1      -4.767   0.245   0.131  0.00  0.00    +0.280 C 
ENDBRANCH  31  33
ENDBRANCH   3  31
TORSDOF 6
