REMARK  Name = ZINC22347449
REMARK  13 active torsions:
REMARK  status: ('A' for Active; 'I' for Inactive)
REMARK    1  A    between atoms: C_1  and  C_2
REMARK    2  A    between atoms: C_5  and  S_8
REMARK    3  A    between atoms: S_8  and  N_11
REMARK    4  A    between atoms: N_11  and  C_12
REMARK    5  A    between atoms: N_11  and  C_31
REMARK    6  A    between atoms: C_12  and  C_13
REMARK    7  A    between atoms: N_15  and  C_16
REMARK    8  A    between atoms: C_16  and  C_17
REMARK    9  A    between atoms: C_17  and  C_19
REMARK   10  A    between atoms: C_17  and  C_20
REMARK   11  A    between atoms: C_20  and  C_21
REMARK   12  A    between atoms: C_35  and  C_38
REMARK   13  A    between atoms: C_36  and  C_37
REMARK                            x       y       z     vdW  Elec       q    Type
REMARK                         _______ _______ _______ _____ _____    ______ ____
ROOT
ATOM      1  N   UNL     1      -2.021   2.057   1.207  0.00  0.00    -0.194 N 
ENDROOT
BRANCH   1   2
ATOM      2  C   UNL     1      -2.736   1.151   1.993  0.00  0.00    +0.055 A 
ATOM      3  C   UNL     1      -4.124   1.123   1.933  0.00  0.00    +0.025 A 
ATOM      4  C   UNL     1      -4.829   0.225   2.711  0.00  0.00    +0.002 A 
ATOM      5  C   UNL     1      -4.154  -0.645   3.549  0.00  0.00    +0.004 A 
ATOM      6  C   UNL     1      -2.773  -0.619   3.611  0.00  0.00    -0.046 A 
ATOM      7  C   UNL     1      -2.062   0.273   2.831  0.00  0.00    -0.025 A 
ATOM      8  C   UNL     1      -0.557   0.296   2.894  0.00  0.00    +0.046 C 
ATOM      9  C   UNL     1      -2.043  -1.568   4.525  0.00  0.00    +0.044 C 
ENDBRANCH   1   2
BRANCH   1  10
ATOM     10  S   UNL     1      -1.498   1.614  -0.300  0.00  0.00    +0.075 S 
ATOM     11  O   UNL     1      -1.177   2.815  -0.988  0.00  0.00    -0.150 OA
ATOM     12  O   UNL     1      -2.446   0.680  -0.800  0.00  0.00    -0.150 OA
BRANCH  10  17
ATOM     13  C   UNL     1       3.681  -1.400   0.401  0.00  0.00    +0.044 C 
ATOM     14  C   UNL     1       2.387  -0.647   0.227  0.00  0.00    -0.050 A 
ATOM     15  C   UNL     1       1.200  -1.339   0.079  0.00  0.00    +0.005 A 
ATOM     16  C   UNL     1       0.013  -0.648  -0.080  0.00  0.00    +0.029 A 
ATOM     17  C   UNL     1       0.014   0.734  -0.090  0.00  0.00    +0.109 A 
ATOM     18  C   UNL     1       1.201   1.425   0.059  0.00  0.00    +0.029 A 
ATOM     19  C   UNL     1       2.388   0.735   0.217  0.00  0.00    +0.005 A 
ENDBRANCH  10  17
ENDBRANCH   1  10
BRANCH   1  20
ATOM     20  C   UNL     1      -1.732   3.400   1.717  0.00  0.00    +0.227 C 
BRANCH  20  21
ATOM     21  C   UNL     1      -2.903   4.306   1.438  0.00  0.00    +0.232 C 
ATOM     22  O   UNL     1      -3.883   3.873   0.870  0.00  0.00    -0.274 OA
ATOM     23  N   UNL     1      -2.862   5.598   1.821  0.00  0.00    -0.314 N 
ATOM     24  H   UNL     1      -1.974   5.991   2.336  0.00  0.00    +0.149 HD
BRANCH  23  25
ATOM     25  C   UNL     1      -4.002   6.478   1.550  0.00  0.00    +0.107 C 
BRANCH  25  26
ATOM     26  C   UNL     1      -3.700   7.880   2.083  0.00  0.00    +0.007 C 
ATOM     27  C   UNL     1      -3.579   7.832   3.607  0.00  0.00    +0.009 C 
BRANCH  26  28
ATOM     28  C   UNL     1      -4.834   8.830   1.691  0.00  0.00    +0.040 C 
BRANCH  28  29
ATOM     29  C   UNL     1      -4.480  10.234   2.107  0.00  0.00    -0.039 A 
ATOM     30  C   UNL     1      -4.919  10.725   3.299  0.00  0.00    +0.004 A 
ATOM     31  C   UNL     1      -4.602  12.021   3.701  0.00  0.00    +0.001 A 
ATOM     32  C   UNL     1      -3.844  12.834   2.914  0.00  0.00    +0.008 A 
ATOM     33  C   UNL     1      -3.373  12.361   1.677  0.00  0.00    -0.018 A 
ATOM     34  C   UNL     1      -3.691  11.041   1.271  0.00  0.00    -0.015 A 
ATOM     35  C   UNL     1      -3.224  10.571   0.032  0.00  0.00    +0.009 A 
ATOM     36  C   UNL     1      -2.466  11.383  -0.755  0.00  0.00    +0.001 A 
ATOM     37  C   UNL     1      -2.150  12.679  -0.353  0.00  0.00    +0.001 A 
ATOM     38  C   UNL     1      -2.588  13.171   0.838  0.00  0.00    +0.008 A 
ENDBRANCH  28  29
ENDBRANCH  26  28
ENDBRANCH  25  26
ENDBRANCH  23  25
ENDBRANCH  20  21
ENDBRANCH   1  20
TORSDOF 9
