REMARK  Name = ZINC59212514
REMARK  8 active torsions:
REMARK  status: ('A' for Active; 'I' for Inactive)
REMARK    1  A    between atoms: C_2  and  C_3
REMARK    2  A    between atoms: C_3  and  N_4
REMARK    3  A    between atoms: N_7  and  C_10
REMARK    4  A    between atoms: C_15  and  N_16
REMARK    5  A    between atoms: C_17  and  C_19
REMARK    6  A    between atoms: C_19  and  S_20
REMARK    7  A    between atoms: S_20  and  C_21
REMARK    8  A    between atoms: C_24  and  C_26
REMARK                            x       y       z     vdW  Elec       q    Type
REMARK                         _______ _______ _______ _____ _____    ______ ____
ROOT
ATOM      1  N   UNL     1      -1.458  -5.246  -5.009  0.00  0.00    -0.283 N 
ATOM      2  C   UNL     1      -1.893  -5.615  -6.230  0.00  0.00    +0.228 C 
ATOM      3  O   UNL     1      -2.554  -6.623  -6.359  0.00  0.00    -0.275 OA
ATOM      4  H   UNL     1      -0.999  -4.399  -4.893  0.00  0.00    +0.155 HD
ENDROOT
BRANCH   1  10
ATOM      5  C   UNL     1      -1.712  -5.551  -2.619  0.00  0.00    +0.051 A 
ATOM      6  C   UNL     1      -1.929  -6.386  -1.532  0.00  0.00    +0.025 A 
ATOM      7  C   UNL     1      -2.098  -7.744  -1.728  0.00  0.00    +0.002 A 
ATOM      8  C   UNL     1      -2.052  -8.274  -3.004  0.00  0.00    +0.002 A 
ATOM      9  C   UNL     1      -1.837  -7.449  -4.092  0.00  0.00    +0.025 A 
ATOM     10  C   UNL     1      -1.671  -6.085  -3.906  0.00  0.00    +0.055 A 
BRANCH   5  14
ATOM     11  N   UNL     1      -1.320  -1.715  -1.117  0.00  0.00    +0.384 N 
ATOM     12  C   UNL     1      -0.252  -2.711  -0.963  0.00  0.00    -0.059 C 
ATOM     13  C   UNL     1      -0.203  -3.603  -2.208  0.00  0.00    +0.086 C 
ATOM     14  N   UNL     1      -1.541  -4.176  -2.424  0.00  0.00    -0.332 N 
ATOM     15  C   UNL     1      -2.694  -3.262  -2.429  0.00  0.00    +0.086 C 
ATOM     16  C   UNL     1      -2.625  -2.386  -1.174  0.00  0.00    -0.059 C 
ATOM     17  H   UNL     1      -1.173  -1.197  -1.970  0.00  0.00    -0.081 HD
BRANCH  11  18
ATOM     18  C   UNL     1      -1.295  -0.792   0.025  0.00  0.00    -0.052 C 
BRANCH  18  20
ATOM     19  C   UNL     1      -0.030   1.296   0.026  0.00  0.00    +0.002 C 
ATOM     20  C   UNL     1      -0.005  -0.013   0.014  0.00  0.00    -0.053 C 
ENDBRANCH  18  20
ENDBRANCH  11  18
ENDBRANCH   5  14
ENDBRANCH   1  10
BRANCH   2  21
ATOM     21  C   UNL     1      -1.556  -4.775  -7.435  0.00  0.00    +0.175 C 
BRANCH  21  22
ATOM     22  S   UNL     1      -2.277  -5.529  -8.919  0.00  0.00    -0.056 S 
BRANCH  22  23
ATOM     23  C   UNL     1      -1.801  -4.444 -10.223  0.00  0.00    +0.278 A 
ATOM     24  N   UNL     1      -1.082  -3.353 -10.102  0.00  0.00    -0.101 NA
ATOM     25  N   UNL     1      -0.929  -2.811 -11.259  0.00  0.00    -0.106 NA
ATOM     26  C   UNL     1      -1.544  -3.533 -12.163  0.00  0.00    +0.250 A 
ATOM     27  O   UNL     1      -2.104  -4.585 -11.528  0.00  0.00    -0.411 OA
BRANCH  26  28
ATOM     28  C   UNL     1      -1.607  -3.251 -13.612  0.00  0.00    +0.052 A 
ATOM     29  C   UNL     1      -2.307  -4.108 -14.463  0.00  0.00    +0.014 A 
ATOM     30  C   UNL     1      -2.363  -3.839 -15.815  0.00  0.00    +0.001 A 
ATOM     31  C   UNL     1      -1.726  -2.723 -16.329  0.00  0.00    +0.001 A 
ATOM     32  C   UNL     1      -1.030  -1.869 -15.492  0.00  0.00    +0.016 A 
ATOM     33  C   UNL     1      -0.972  -2.123 -14.136  0.00  0.00    +0.030 A 
ATOM     34 BR   UNL     1      -0.027  -0.950 -12.992  0.00  0.00    -0.050 Br
ENDBRANCH  26  28
ENDBRANCH  22  23
ENDBRANCH  21  22
ENDBRANCH   2  21
TORSDOF 8
