REMARK  Name = ZINC13064408
REMARK  9 active torsions:
REMARK  status: ('A' for Active; 'I' for Inactive)
REMARK    1  A    between atoms: C_1  and  C_2
REMARK    2  A    between atoms: C_2  and  C_3
REMARK    3  A    between atoms: C_3  and  C_5
REMARK    4  A    between atoms: C_3  and  N_71
REMARK    5  A    between atoms: N_9  and  C_10
REMARK    6  A    between atoms: C_16  and  C_17
REMARK    7  A    between atoms: C_16  and  N_71
REMARK    8  A    between atoms: C_23  and  C_24
REMARK    9  A    between atoms: C_23  and  N_71
REMARK                            x       y       z     vdW  Elec       q    Type
REMARK                         _______ _______ _______ _____ _____    ______ ____
ROOT
ATOM      1  N   UNL     1       2.599   4.294  -1.277  0.00  0.00    +0.392 N 
ATOM      2  H   UNL     1       1.901   4.713  -1.902  0.00  0.00    -0.080 HD
ENDROOT
BRANCH   1   3
ATOM      3  C   UNL     1       3.829   5.113  -1.312  0.00  0.00    +0.003 C 
BRANCH   3   4
ATOM      4  C   UNL     1       3.570   6.422  -0.613  0.00  0.00    +0.138 A 
ATOM      5  N   UNL     1       2.511   7.184  -0.745  0.00  0.00    -0.115 NA
ATOM      6  N   UNL     1       2.663   8.212   0.017  0.00  0.00    -0.023 NA
ATOM      7  N   UNL     1       3.794   8.129   0.626  0.00  0.00    -0.044 NA
ATOM      8  N   UNL     1       4.383   7.040   0.265  0.00  0.00    -0.228 N 
BRANCH   8   9
ATOM      9  C   UNL     1       5.690   6.564   0.723  0.00  0.00    +0.111 C 
ATOM     10  C   UNL     1       5.660   6.372   2.240  0.00  0.00    +0.027 C 
ATOM     11  C   UNL     1       7.026   5.875   2.719  0.00  0.00    +0.002 C 
ATOM     12  C   UNL     1       8.099   6.904   2.356  0.00  0.00    +0.000 C 
ATOM     13  C   UNL     1       8.129   7.095   0.838  0.00  0.00    +0.002 C 
ATOM     14  C   UNL     1       6.763   7.592   0.360  0.00  0.00    +0.027 C 
ENDBRANCH   8   9
ENDBRANCH   3   4
BRANCH   3  16
ATOM     15  C   UNL     1       5.509   6.172  -2.828  0.00  0.00    +0.002 C 
ATOM     16  C   UNL     1       4.202   5.379  -2.772  0.00  0.00    -0.011 C 
ENDBRANCH   3  16
ENDBRANCH   1   3
BRANCH   1  17
ATOM     17  C   UNL     1       2.054   4.259   0.096  0.00  0.00    -0.040 C 
BRANCH  17  18
ATOM     18  C   UNL     1       0.614   3.820   0.033  0.00  0.00    -0.046 A 
ATOM     19  C   UNL     1       0.291   2.472  -0.007  0.00  0.00    +0.005 A 
ATOM     20  C   UNL     1      -1.047   2.115  -0.064  0.00  0.00    +0.020 A 
ATOM     21  C   UNL     1      -2.009   3.108  -0.084  0.00  0.00    +0.111 A 
ATOM     22  N   UNL     1      -1.665   4.380  -0.038  0.00  0.00    -0.263 NA
ATOM     23  C   UNL     1      -0.403   4.756   0.016  0.00  0.00    +0.112 A 
ENDBRANCH  17  18
ENDBRANCH   1  17
BRANCH   1  24
ATOM     24  C   UNL     1       2.894   2.921  -1.738  0.00  0.00    -0.036 C 
BRANCH  24  25
ATOM     25  C   UNL     1       3.939   2.281  -0.861  0.00  0.00    +0.001 A 
ATOM     26  C   UNL     1       3.559   1.518   0.196  0.00  0.00    +0.017 A 
ATOM     27  C   UNL     1       4.597   0.907   1.026  0.00  0.00    +0.002 A 
ATOM     28  C   UNL     1       4.265   0.106   2.125  0.00  0.00    +0.059 A 
ATOM     29  C   UNL     1       5.265  -0.451   2.893  0.00  0.00    +0.163 A 
ATOM     30  C   UNL     1       6.607  -0.221   2.577  0.00  0.00    +0.164 A 
ATOM     31  C   UNL     1       6.944   0.569   1.491  0.00  0.00    +0.075 A 
ATOM     32  C   UNL     1       5.949   1.139   0.708  0.00  0.00    +0.053 A 
ATOM     33  N   UNL     1       6.268   1.929  -0.378  0.00  0.00    -0.322 N 
ATOM     34  H   UNL     1       7.200   2.088  -0.597  0.00  0.00    +0.169 HD
ATOM     35  C   UNL     1       5.306   2.481  -1.138  0.00  0.00    +0.251 A 
ATOM     36  O   UNL     1       5.625   3.173  -2.090  0.00  0.00    -0.268 OA
ATOM     37  O   UNL     1       7.600  -0.769   3.328  0.00  0.00    -0.485 OA
ATOM     38  C   UNL     1       7.236  -1.247   4.627  0.00  0.00    +0.270 C 
ATOM     39  C   UNL     1       5.950  -2.073   4.493  0.00  0.00    +0.270 C 
ATOM     40  O   UNL     1       4.926  -1.224   3.962  0.00  0.00    -0.485 OA
ENDBRANCH  24  25
ENDBRANCH   1  24
TORSDOF 8
