REMARK  Name = ZINC40342719
REMARK  11 active torsions:
REMARK  status: ('A' for Active; 'I' for Inactive)
REMARK    1  A    between atoms: C_1  and  C_2
REMARK    2  A    between atoms: C_2  and  O_3
REMARK    3  A    between atoms: O_3  and  C_4
REMARK    4  A    between atoms: C_6  and  C_11
REMARK    5  A    between atoms: C_9  and  O_10
REMARK    6  A    between atoms: C_14  and  C_32
REMARK    7  A    between atoms: N_21  and  C_22
REMARK    8  A    between atoms: C_22  and  C_23
REMARK    9  A    between atoms: C_23  and  C_24
REMARK   10  A    between atoms: C_27  and  O_30
REMARK   11  A    between atoms: O_30  and  C_31
REMARK                            x       y       z     vdW  Elec       q    Type
REMARK                         _______ _______ _______ _____ _____    ______ ____
ROOT
ATOM      1  C   UNL     1       0.654  -4.954  -0.018  0.00  0.00    +0.141 C 
ATOM      2  C   UNL     1       0.881  -5.499  -1.401  0.00  0.00    +0.035 A 
ATOM      3  C   UNL     1       1.150  -5.227  -2.747  0.00  0.00    +0.099 A 
ATOM      4  N   UNL     1       1.200  -6.382  -3.381  0.00  0.00    -0.173 NA
ATOM      5  N   UNL     1       0.990  -7.356  -2.569  0.00  0.00    -0.272 N 
ATOM      6  H   UNL     1       0.980  -8.295  -2.816  0.00  0.00    +0.189 HD
ATOM      7  C   UNL     1       0.781  -6.874  -1.308  0.00  0.00    +0.126 A 
ATOM      8  C   UNL     1       0.498  -7.228   0.087  0.00  0.00    +0.265 C 
ATOM      9  O   UNL     1       0.352  -8.363   0.500  0.00  0.00    -0.268 OA
ATOM     10  N   UNL     1       0.423  -6.118   0.847  0.00  0.00    -0.285 N 
ENDROOT
BRANCH   3  11
ATOM     11  C   UNL     1       1.344  -3.885  -3.350  0.00  0.00    +0.003 A 
ATOM     12  C   UNL     1       0.620  -2.794  -2.874  0.00  0.00    +0.011 A 
ATOM     13  C   UNL     1       0.803  -1.548  -3.438  0.00  0.00    +0.020 A 
ATOM     14  C   UNL     1       1.705  -1.381  -4.476  0.00  0.00    +0.041 A 
ATOM     15  C   UNL     1       2.426  -2.462  -4.952  0.00  0.00    +0.020 A 
ATOM     16  C   UNL     1       2.254  -3.711  -4.390  0.00  0.00    +0.011 A 
ATOM     17 CL   UNL     1       1.930   0.189  -5.182  0.00  0.00    -0.084 Cl
ENDBRANCH   3  11
BRANCH   1  20
ATOM     18  C   UNL     1      -1.498  -1.849   0.006  0.00  0.00    +0.162 A 
ATOM     19  C   UNL     1      -0.389  -2.680  -0.003  0.00  0.00    +0.055 A 
ATOM     20  C   UNL     1      -0.553  -4.052  -0.008  0.00  0.00    -0.019 A 
ATOM     21  C   UNL     1      -1.823  -4.600  -0.005  0.00  0.00    +0.009 A 
ATOM     22  C   UNL     1      -2.934  -3.777   0.004  0.00  0.00    +0.049 A 
ATOM     23  C   UNL     1      -2.776  -2.400   0.016  0.00  0.00    +0.158 A 
BRANCH  23  24
ATOM     24  O   UNL     1      -3.868  -1.589   0.030  0.00  0.00    -0.503 OA
ATOM     25  H   UNL     1      -4.192  -1.350  -0.849  0.00  0.00    +0.292 HD
ENDBRANCH  23  24
BRANCH  18  26
ATOM     26  O   UNL     1      -1.339  -0.499   0.012  0.00  0.00    -0.489 OA
BRANCH  26  28
ATOM     27  C   UNL     1      -0.019   1.526   0.010  0.00  0.00    +0.048 C 
ATOM     28  C   UNL     1       0.002  -0.004   0.002  0.00  0.00    +0.226 C 
ENDBRANCH  26  28
ENDBRANCH  18  26
ENDBRANCH   1  20
BRANCH  10  29
ATOM     29  C   UNL     1       0.155  -6.078   2.287  0.00  0.00    +0.114 C 
BRANCH  29  30
ATOM     30  C   UNL     1      -1.353  -5.980   2.523  0.00  0.00    +0.054 C 
BRANCH  30  31
ATOM     31  C   UNL     1      -1.628  -5.939   4.004  0.00  0.00    -0.046 A 
ATOM     32  C   UNL     1      -1.823  -7.116   4.703  0.00  0.00    +0.007 A 
ATOM     33  C   UNL     1      -2.075  -7.080   6.061  0.00  0.00    +0.046 A 
ATOM     34  C   UNL     1      -2.132  -5.863   6.723  0.00  0.00    +0.120 A 
ATOM     35  C   UNL     1      -1.936  -4.683   6.020  0.00  0.00    +0.046 A 
ATOM     36  C   UNL     1      -1.679  -4.724   4.663  0.00  0.00    +0.007 A 
BRANCH  34  37
ATOM     37  O   UNL     1      -2.381  -5.826   8.059  0.00  0.00    -0.495 OA
ATOM     38  C   UNL     1      -2.425  -4.537   8.675  0.00  0.00    +0.277 C 
ENDBRANCH  34  37
ENDBRANCH  30  31
ENDBRANCH  29  30
ENDBRANCH  10  29
TORSDOF 9
