REMARK  Name = ZINC08612204
REMARK  7 active torsions:
REMARK  status: ('A' for Active; 'I' for Inactive)
REMARK    1  A    between atoms: C_1  and  C_2
REMARK    2  A    between atoms: C_8  and  C_14
REMARK    3  A    between atoms: C_12  and  C_13
REMARK    4  A    between atoms: N_16  and  C_17
REMARK    5  A    between atoms: C_18  and  C_26
REMARK    6  A    between atoms: N_28  and  C_29
REMARK    7  A    between atoms: C_29  and  C_30
REMARK                            x       y       z     vdW  Elec       q    Type
REMARK                         _______ _______ _______ _____ _____    ______ ____
ROOT
ATOM      1  C   UNL     1      -0.721  -8.218   0.415  0.00  0.00    +0.085 A 
ATOM      2  C   UNL     1      -0.735  -8.972   1.579  0.00  0.00    +0.069 A 
ATOM      3  C   UNL     1      -1.045 -10.385   1.450  0.00  0.00    -0.023 A 
ATOM      4  C   UNL     1      -1.285 -10.785   0.183  0.00  0.00    -0.004 A 
ATOM      5  S   UNL     1      -1.108  -9.319  -0.792  0.00  0.00    -0.077 S 
ATOM      6  C   UNL     1      -1.629 -12.169  -0.274  0.00  0.00    +0.043 C 
ATOM      7  C   UNL     1      -1.300 -13.147   0.864  0.00  0.00    +0.005 C 
ATOM      8  C   UNL     1      -1.886 -12.604   2.170  0.00  0.00    +0.005 C 
ATOM      9  C   UNL     1      -1.107 -11.364   2.614  0.00  0.00    +0.037 C 
ENDROOT
BRANCH   1  12
ATOM     10  C   UNL     1      -0.492  -6.290  -0.938  0.00  0.00    +0.284 C 
ATOM     11  O   UNL     1      -0.759  -6.958  -1.918  0.00  0.00    -0.266 OA
ATOM     12  N   UNL     1      -0.456  -6.866   0.280  0.00  0.00    -0.273 N 
ATOM     13  H   UNL     1      -0.243  -6.333   1.062  0.00  0.00    +0.156 HD
BRANCH  10  21
ATOM     14  C   UNL     1      -0.018   1.503   0.010  0.00  0.00    +0.044 C 
ATOM     15  C   UNL     1       0.002  -0.004   0.002  0.00  0.00    -0.047 A 
ATOM     16  C   UNL     1       0.006  -0.684  -1.196  0.00  0.00    +0.019 A 
ATOM     17  C   UNL     1       0.025  -2.077  -1.195  0.00  0.00    +0.064 A 
ATOM     18  C   UNL     1       0.015  -2.851  -2.452  0.00  0.00    +0.193 A 
ATOM     19  O   UNL     1       0.216  -2.328  -3.534  0.00  0.00    -0.287 OA
ATOM     20  C   UNL     1      -0.253  -4.293  -2.321  0.00  0.00    +0.103 A 
ATOM     21  C   UNL     1      -0.208  -4.844  -1.082  0.00  0.00    +0.194 A 
ATOM     22  O   UNL     1       0.082  -4.134   0.017  0.00  0.00    -0.450 OA
ATOM     23  C   UNL     1       0.048  -2.788   0.018  0.00  0.00    +0.140 A 
ATOM     24  C   UNL     1       0.041  -2.080   1.216  0.00  0.00    +0.050 A 
ATOM     25  C   UNL     1       0.023  -0.702   1.201  0.00  0.00    -0.044 A 
ATOM     26  C   UNL     1       0.020   0.056   2.504  0.00  0.00    +0.044 C 
ENDBRANCH  10  21
ENDBRANCH   1  12
BRANCH   2  27
ATOM     27  C   UNL     1      -0.447  -8.368   2.884  0.00  0.00    +0.247 C 
ATOM     28  O   UNL     1      -1.351  -7.904   3.552  0.00  0.00    -0.270 OA
ATOM     29  N   UNL     1       0.820  -8.328   3.342  0.00  0.00    -0.309 N 
ATOM     30  H   UNL     1       1.541  -8.698   2.810  0.00  0.00    +0.149 HD
BRANCH  29  31
ATOM     31  C   UNL     1       1.107  -7.725   4.646  0.00  0.00    +0.136 C 
BRANCH  31  32
ATOM     32  C   UNL     1       2.609  -7.807   4.926  0.00  0.00    +0.135 C 
ATOM     33  C   UNL     1       2.907  -7.285   6.348  0.00  0.00    +0.035 C 
ATOM     34  C   UNL     1       4.231  -6.500   6.141  0.00  0.00    +0.031 C 
ATOM     35  C   UNL     1       4.020  -5.941   4.711  0.00  0.00    +0.160 C 
ATOM     36  O   UNL     1       3.322  -6.979   4.001  0.00  0.00    -0.375 OA
ENDBRANCH  31  32
ENDBRANCH  29  31
ENDBRANCH   2  27
TORSDOF 5
