REMARK  Name = ZINC12491640
REMARK  13 active torsions:
REMARK  status: ('A' for Active; 'I' for Inactive)
REMARK    1  A    between atoms: C_1  and  C_2
REMARK    2  A    between atoms: C_7  and  N_8
REMARK    3  A    between atoms: N_8  and  C_9
REMARK    4  A    between atoms: C_9  and  C_11
REMARK    5  A    between atoms: C_9  and  C_18
REMARK    6  A    between atoms: N_20  and  C_21
REMARK    7  A    between atoms: C_21  and  C_22
REMARK    8  A    between atoms: C_21  and  C_23
REMARK    9  A    between atoms: C_21  and  C_24
REMARK   10  A    between atoms: C_25  and  C_27
REMARK   11  A    between atoms: C_27  and  C_28
REMARK   12  A    between atoms: C_28  and  C_29
REMARK   13  A    between atoms: C_34  and  C_37
REMARK                            x       y       z     vdW  Elec       q    Type
REMARK                         _______ _______ _______ _____ _____    ______ ____
ROOT
ATOM      1  N   UNL     1      -5.619  -3.243  -0.392  0.00  0.00    -0.255 N 
ATOM      2  C   UNL     1      -5.123  -2.110  -0.927  0.00  0.00    +0.221 C 
ATOM      3  O   UNL     1      -5.746  -1.073  -0.836  0.00  0.00    -0.275 OA
ENDROOT
BRANCH   1  10
ATOM      4  C   UNL     1      -5.998  -4.838  -2.717  0.00  0.00    +0.045 C 
ATOM      5  C   UNL     1      -5.056  -5.248  -1.615  0.00  0.00    -0.029 A 
ATOM      6  C   UNL     1      -4.341  -6.426  -1.718  0.00  0.00    +0.005 A 
ATOM      7  C   UNL     1      -3.481  -6.805  -0.704  0.00  0.00    +0.000 A 
ATOM      8  C   UNL     1      -3.328  -6.004   0.413  0.00  0.00    +0.002 A 
ATOM      9  C   UNL     1      -4.036  -4.823   0.520  0.00  0.00    +0.024 A 
ATOM     10  C   UNL     1      -4.901  -4.439  -0.497  0.00  0.00    +0.040 A 
ENDBRANCH   1  10
BRANCH   1  11
ATOM     11  C   UNL     1      -6.911  -3.223   0.300  0.00  0.00    +0.199 C 
BRANCH  11  12
ATOM     12  C   UNL     1      -7.198  -4.588   0.868  0.00  0.00    +0.000 A 
ATOM     13  C   UNL     1      -7.994  -5.475   0.168  0.00  0.00    +0.007 A 
ATOM     14  C   UNL     1      -8.253  -6.730   0.686  0.00  0.00    +0.000 A 
ATOM     15  C   UNL     1      -7.726  -7.094   1.912  0.00  0.00    +0.001 A 
ATOM     16  C   UNL     1      -6.935  -6.207   2.615  0.00  0.00    +0.020 A 
ATOM     17  C   UNL     1      -6.670  -4.952   2.094  0.00  0.00    +0.046 A 
ATOM     18 CL   UNL     1      -5.677  -3.837   2.978  0.00  0.00    -0.083 Cl
ENDBRANCH  11  12
BRANCH  11  19
ATOM     19  C   UNL     1      -7.996  -2.845  -0.675  0.00  0.00    +0.239 C 
ATOM     20  O   UNL     1      -7.721  -2.635  -1.837  0.00  0.00    -0.273 OA
ATOM     21  N   UNL     1      -9.273  -2.742  -0.255  0.00  0.00    -0.309 N 
ATOM     22  H   UNL     1      -9.483  -2.843   0.686  0.00  0.00    +0.149 HD
BRANCH  21  23
ATOM     23  C   UNL     1     -10.342  -2.477  -1.221  0.00  0.00    +0.026 C 
ATOM     24  C   UNL     1     -10.384  -3.603  -2.257  0.00  0.00    +0.031 C 
ATOM     25  C   UNL     1     -11.684  -2.408  -0.489  0.00  0.00    +0.031 C 
ATOM     26  C   UNL     1     -10.076  -1.145  -1.925  0.00  0.00    +0.031 C 
ENDBRANCH  21  23
ENDBRANCH  11  19
ENDBRANCH   1  11
BRANCH   2  27
ATOM     27  C   UNL     1      -3.795  -2.131  -1.638  0.00  0.00    +0.105 C 
BRANCH  27  28
ATOM     28  C   UNL     1      -3.466  -0.726  -2.147  0.00  0.00    +0.105 C 
BRANCH  28  29
ATOM     29  C   UNL     1      -2.137  -0.748  -2.858  0.00  0.00    +0.219 C 
ATOM     30  O   UNL     1      -1.515  -1.784  -2.949  0.00  0.00    -0.275 OA
ATOM     31  N   UNL     1      -1.641   0.385  -3.393  0.00  0.00    -0.268 N 
ATOM     32  C   UNL     1      -0.411   0.366  -4.051  0.00  0.00    +0.168 A 
ATOM     33  C   UNL     1       0.435  -0.758  -4.243  0.00  0.00    +0.091 A 
ATOM     34  C   UNL     1       1.486  -0.261  -4.934  0.00  0.00    +0.136 A 
ATOM     35  O   UNL     1       1.246   1.046  -5.109  0.00  0.00    -0.358 OA
ATOM     36  N   UNL     1       0.194   1.379  -4.613  0.00  0.00    -0.063 NA
ATOM     37  C   UNL     1       2.692  -1.027  -5.413  0.00  0.00    +0.089 C 
ATOM     38  H   UNL     1      -2.139   1.215  -3.320  0.00  0.00    +0.156 HD
ENDBRANCH  28  29
ENDBRANCH  27  28
ENDBRANCH   2  27
TORSDOF 8
