REMARK  Name = ZINC21322118
REMARK  8 active torsions:
REMARK  status: ('A' for Active; 'I' for Inactive)
REMARK    1  A    between atoms: C_1  and  C_2
REMARK    2  A    between atoms: C_2  and  C_25
REMARK    3  A    between atoms: N_3  and  N_4
REMARK    4  A    between atoms: C_8  and  S_11
REMARK    5  A    between atoms: N_9  and  N_10
REMARK    6  A    between atoms: S_11  and  C_12
REMARK    7  A    between atoms: C_12  and  C_13
REMARK    8  A    between atoms: C_13  and  C_15
REMARK                            x       y       z     vdW  Elec       q    Type
REMARK                         _______ _______ _______ _____ _____    ______ ____
ROOT
ATOM      1  N   UNL     1       4.506   7.544  -1.597  0.00  0.00    -0.204 N 
ATOM      2  C   UNL     1       3.879   6.327  -1.375  0.00  0.00    +0.254 A 
ATOM      3  N   UNL     1       4.408   5.142  -1.565  0.00  0.00    -0.109 NA
ATOM      4  N   UNL     1       3.449   4.180  -1.224  0.00  0.00    -0.119 NA
ATOM      5  C   UNL     1       2.364   4.809  -0.836  0.00  0.00    +0.210 A 
ATOM      6  N   UNL     1       2.600   6.151  -0.925  0.00  0.00    -0.211 N 
ATOM      7  H   UNL     1       3.967   8.484  -1.403  0.00  0.00    +0.178 HD
ENDROOT
BRANCH   1  10
ATOM      8  C   UNL     1       5.673  10.005  -2.009  0.00  0.00    +0.068 C 
ATOM      9  C   UNL     1       6.412   8.718  -2.274  0.00  0.00    +0.063 C 
ATOM     10  N   UNL     1       5.825   7.578  -2.067  0.00  0.00    -0.184 NA
BRANCH   9  11
ATOM     11  C   UNL     1       7.800   8.753  -2.769  0.00  0.00    -0.003 A 
ATOM     12  C   UNL     1       8.432   9.978  -2.999  0.00  0.00    +0.010 A 
ATOM     13  C   UNL     1       9.733  10.003  -3.458  0.00  0.00    +0.001 A 
ATOM     14  C   UNL     1      10.408   8.820  -3.700  0.00  0.00    +0.000 A 
ATOM     15  C   UNL     1       9.786   7.603  -3.479  0.00  0.00    +0.001 A 
ATOM     16  C   UNL     1       8.488   7.562  -3.016  0.00  0.00    +0.010 A 
ENDBRANCH   9  11
ENDBRANCH   1  10
BRANCH   6  17
ATOM     17  N   UNL     1       1.714   7.144  -0.616  0.00  0.00    -0.294 N 
ATOM     18  H   UNL     1       0.705   6.889  -0.261  0.00  0.00    +0.163 HD
ATOM     19  H   UNL     1       2.011   8.198  -0.723  0.00  0.00    +0.163 HD
ENDBRANCH   6  17
BRANCH   5  20
ATOM     20  S   UNL     1       0.864   4.054  -0.302  0.00  0.00    -0.077 S 
BRANCH  20  21
ATOM     21  C   UNL     1       1.201   2.275  -0.423  0.00  0.00    +0.152 C 
BRANCH  21  22
ATOM     22  C   UNL     1      -0.018   1.503   0.010  0.00  0.00    +0.147 C 
ATOM     23  O   UNL     1      -1.013   2.091   0.360  0.00  0.00    -0.296 OA
BRANCH  22  24
ATOM     24  C   UNL     1       0.002  -0.004   0.002  0.00  0.00    +0.062 C 
ATOM     25  C   UNL     1      -1.427  -0.534   0.132  0.00  0.00    +0.000 C 
ATOM     26  C   UNL     1      -1.407  -2.064   0.123  0.00  0.00    +0.007 C 
ATOM     27  C   UNL     1      -0.567  -2.569   1.298  0.00  0.00    -0.010 C 
ATOM     28  C   UNL     1      -1.177  -2.075   2.611  0.00  0.00    +0.007 C 
ATOM     29  C   UNL     1      -1.198  -0.545   2.619  0.00  0.00    -0.010 C 
ATOM     30  C   UNL     1      -2.038  -0.040   1.445  0.00  0.00    +0.007 C 
ATOM     31  C   UNL     1       0.232  -0.015   2.490  0.00  0.00    +0.007 C 
ATOM     32  C   UNL     1       0.842  -0.509   1.177  0.00  0.00    +0.000 C 
ATOM     33  C   UNL     1       0.863  -2.039   1.169  0.00  0.00    +0.007 C 
ENDBRANCH  22  24
ENDBRANCH  21  22
ENDBRANCH  20  21
ENDBRANCH   5  20
TORSDOF 7
