REMARK  Name = ZINC35622363
REMARK  3 active torsions:
REMARK  status: ('A' for Active; 'I' for Inactive)
REMARK    1  A    between atoms: C_6  and  N_7
REMARK    2  A    between atoms: C_8  and  C_12
REMARK    3  A    between atoms: C_12  and  N_22
REMARK                            x       y       z     vdW  Elec       q    Type
REMARK                         _______ _______ _______ _____ _____    ______ ____
ROOT
ATOM      1  C   UNL     1      -2.637   0.712   1.631  0.00  0.00    +0.003 C 
ATOM      2  C   UNL     1      -1.512   0.707   2.668  0.00  0.00    -0.013 C 
ATOM      3  C   UNL     1      -1.696   1.887   3.625  0.00  0.00    +0.006 C 
ATOM      4  C   UNL     1      -3.045   1.761   4.336  0.00  0.00    -0.010 C 
ATOM      5  C   UNL     1      -3.085   0.452   5.126  0.00  0.00    +0.007 C 
ATOM      6  C   UNL     1      -2.901  -0.728   4.169  0.00  0.00    -0.010 C 
ATOM      7  C   UNL     1      -1.552  -0.602   3.459  0.00  0.00    +0.006 C 
ATOM      8  C   UNL     1      -4.026  -0.723   3.132  0.00  0.00    +0.006 C 
ATOM      9  C   UNL     1      -3.986   0.586   2.342  0.00  0.00    -0.013 C 
ATOM     10  C   UNL     1      -4.170   1.766   3.299  0.00  0.00    +0.006 C 
ENDROOT
BRANCH   1  11
ATOM     11  N   UNL     1      -2.599   1.969   0.872  0.00  0.00    +0.389 N 
ATOM     12  C   UNL     1      -1.347   2.048   0.076  0.00  0.00    -0.077 C 
ATOM     13  C   UNL     1      -1.700   3.067  -1.037  0.00  0.00    -0.020 C 
ATOM     14  C   UNL     1      -3.173   2.729  -1.361  0.00  0.00    -0.020 C 
ATOM     15  C   UNL     1      -3.704   2.006  -0.110  0.00  0.00    -0.077 C 
ATOM     16  H   UNL     1      -2.664   2.756   1.499  0.00  0.00    -0.080 HD
ENDBRANCH   1  11
BRANCH   1  18
ATOM     17  N   UNL     1      -1.351  -1.217   0.567  0.00  0.00    -0.198 N 
ATOM     18  C   UNL     1      -2.456  -0.450   0.689  0.00  0.00    +0.147 A 
ATOM     19  N   UNL     1      -3.339  -0.903  -0.163  0.00  0.00    -0.114 NA
ATOM     20  N   UNL     1      -2.867  -1.903  -0.815  0.00  0.00    -0.023 NA
ATOM     21  N   UNL     1      -1.661  -2.155  -0.435  0.00  0.00    -0.039 NA
BRANCH  17  27
ATOM     22  C   UNL     1       0.642   0.030   1.129  0.00  0.00    +0.032 A 
ATOM     23  C   UNL     1       1.826   0.145   1.831  0.00  0.00    +0.051 A 
ATOM     24  C   UNL     1       2.228  -0.867   2.690  0.00  0.00    +0.162 A 
ATOM     25  C   UNL     1       1.436  -1.999   2.847  0.00  0.00    +0.164 A 
ATOM     26  C   UNL     1       0.249  -2.115   2.141  0.00  0.00    +0.077 A 
ATOM     27  C   UNL     1      -0.149  -1.100   1.281  0.00  0.00    +0.073 A 
ATOM     28  O   UNL     1       1.810  -2.999   3.691  0.00  0.00    -0.485 OA
ATOM     29  C   UNL     1       3.183  -3.019   4.097  0.00  0.00    +0.270 C 
ATOM     30  C   UNL     1       3.585  -1.595   4.503  0.00  0.00    +0.270 C 
ATOM     31  O   UNL     1       3.400  -0.738   3.371  0.00  0.00    -0.485 OA
ENDBRANCH  17  27
ENDBRANCH   1  18
TORSDOF 3
