REMARK  Name = ZINC15822101
REMARK  6 active torsions:
REMARK  status: ('A' for Active; 'I' for Inactive)
REMARK    1  A    between atoms: C_6  and  C_7
REMARK    2  A    between atoms: C_10  and  C_12
REMARK    3  A    between atoms: N_14  and  N_15
REMARK    4  A    between atoms: C_16  and  C_18
REMARK    5  A    between atoms: N_23  and  S_24
REMARK    6  A    between atoms: S_24  and  C_27
REMARK                            x       y       z     vdW  Elec       q    Type
REMARK                         _______ _______ _______ _____ _____    ______ ____
ROOT
ATOM      1  N   UNL     1      -0.016   1.344   0.009  0.00  0.00    -0.233 N 
ATOM      2  C   UNL     1       0.002  -0.004   0.002  0.00  0.00    +0.248 C 
ATOM      3  O   UNL     1      -1.040  -0.625   0.009  0.00  0.00    -0.273 OA
ATOM      4  H   UNL     1       0.817   1.840   0.004  0.00  0.00    +0.173 HD
ENDROOT
BRANCH   2   5
ATOM      5  C   UNL     1       1.317  -0.740  -0.015  0.00  0.00    +0.167 C 
ATOM      6  C   UNL     1       2.123  -0.403   1.258  0.00  0.00    +0.031 C 
ATOM      7  C   UNL     1       1.804  -1.603   2.195  0.00  0.00    +0.019 C 
ATOM      8  C   UNL     1       1.716  -2.772   1.183  0.00  0.00    +0.110 C 
ATOM      9  N   UNL     1       1.079  -2.191  -0.012  0.00  0.00    -0.165 NA
BRANCH   9  10
ATOM     10  S   UNL     1       0.234  -3.031  -1.162  0.00  0.00    +0.062 S 
ATOM     11  O   UNL     1      -0.231  -4.219  -0.536  0.00  0.00    -0.153 OA
ATOM     12  O   UNL     1      -0.645  -2.102  -1.781  0.00  0.00    -0.153 OA
BRANCH  10  13
ATOM     13  C   UNL     1       1.388  -3.531  -2.396  0.00  0.00    +0.106 A 
ATOM     14  C   UNL     1       1.638  -2.711  -3.481  0.00  0.00    +0.031 A 
ATOM     15  C   UNL     1       2.546  -3.099  -4.447  0.00  0.00    +0.040 A 
ATOM     16  C   UNL     1       3.200  -4.315  -4.333  0.00  0.00    +0.124 A 
ATOM     17  C   UNL     1       2.946  -5.137  -3.248  0.00  0.00    +0.040 A 
ATOM     18  C   UNL     1       2.040  -4.744  -2.281  0.00  0.00    +0.031 A 
ATOM     19  F   UNL     1       4.085  -4.697  -5.279  0.00  0.00    -0.205 F 
ENDBRANCH  10  13
ENDBRANCH   9  10
ENDBRANCH   2   5
BRANCH   1  22
ATOM     20  C   UNL     1      -1.257   3.375   0.026  0.00  0.00    +0.267 C 
ATOM     21  O   UNL     1      -0.211   3.998   0.025  0.00  0.00    -0.268 OA
ATOM     22  N   UNL     1      -1.239   2.027   0.019  0.00  0.00    -0.230 N 
ATOM     23  H   UNL     1      -2.072   1.531   0.020  0.00  0.00    +0.173 HD
BRANCH  20  27
ATOM     24  C   UNL     1      -5.087   4.971   0.052  0.00  0.00    +0.020 A 
ATOM     25  C   UNL     1      -4.061   5.902   0.053  0.00  0.00    +0.017 A 
ATOM     26  C   UNL     1      -2.769   5.458   0.045  0.00  0.00    +0.021 A 
ATOM     27  C   UNL     1      -2.535   4.090   0.036  0.00  0.00    +0.076 A 
ATOM     28  S   UNL     1      -4.192   3.426   0.033  0.00  0.00    -0.084 S 
BRANCH  24  34
ATOM     29  C   UNL     1      -7.054   6.498   0.074  0.00  0.00    +0.012 A 
ATOM     30  C   UNL     1      -8.417   6.704   0.075  0.00  0.00    +0.039 A 
ATOM     31  C   UNL     1      -9.284   5.623   0.073  0.00  0.00    +0.123 A 
ATOM     32  C   UNL     1      -8.787   4.329   0.064  0.00  0.00    +0.039 A 
ATOM     33  C   UNL     1      -7.425   4.112   0.057  0.00  0.00    +0.012 A 
ATOM     34  C   UNL     1      -6.547   5.197   0.059  0.00  0.00    -0.011 A 
ATOM     35  F   UNL     1     -10.619   5.830   0.079  0.00  0.00    -0.205 F 
ENDBRANCH  24  34
ENDBRANCH  20  27
ENDBRANCH   1  22
TORSDOF 6
