REMARK  Name = ZINC09725966
REMARK  6 active torsions:
REMARK  status: ('A' for Active; 'I' for Inactive)
REMARK    1  A    between atoms: C_2  and  C_3
REMARK    2  A    between atoms: C_3  and  N_4
REMARK    3  A    between atoms: C_8  and  S_24
REMARK    4  A    between atoms: N_13  and  C_14
REMARK    5  A    between atoms: C_14  and  C_16
REMARK    6  A    between atoms: S_24  and  N_27
REMARK                            x       y       z     vdW  Elec       q    Type
REMARK                         _______ _______ _______ _____ _____    ______ ____
ROOT
ATOM      1  N   UNL     1      -1.054  -0.862   0.007  0.00  0.00    -0.310 N 
ATOM      2  C   UNL     1      -0.837  -2.228  -0.002  0.00  0.00    +0.059 A 
ATOM      3  C   UNL     1      -1.787  -3.260   0.001  0.00  0.00    +0.029 A 
ATOM      4  C   UNL     1      -1.394  -4.578  -0.010  0.00  0.00    +0.030 A 
ATOM      5  C   UNL     1      -0.054  -4.927  -0.024  0.00  0.00    +0.106 A 
ATOM      6  C   UNL     1       0.904  -3.929  -0.028  0.00  0.00    +0.045 A 
ATOM      7  C   UNL     1       0.512  -2.611  -0.017  0.00  0.00    +0.041 A 
ATOM      8  S   UNL     1       1.377  -1.061  -0.024  0.00  0.00    -0.052 S 
ATOM      9  C   UNL     1       0.002  -0.004   0.002  0.00  0.00    +0.168 A 
ATOM     10  N   UNL     1      -0.016   1.324   0.009  0.00  0.00    -0.152 NA
ENDROOT
BRANCH   5  11
ATOM     11  S   UNL     1       0.425  -6.622  -0.038  0.00  0.00    +0.056 S 
ATOM     12  O   UNL     1      -0.668  -7.349  -0.582  0.00  0.00    -0.153 OA
ATOM     13  O   UNL     1       1.729  -6.672  -0.601  0.00  0.00    -0.153 OA
BRANCH  11  14
ATOM     14  N   UNL     1       0.573  -7.102   1.541  0.00  0.00    -0.204 NA
ATOM     15  H   UNL     1       0.399  -8.024   1.786  0.00  0.00    +0.144 HD
ATOM     16  H   UNL     1       0.833  -6.460   2.220  0.00  0.00    +0.144 HD
ENDBRANCH  11  14
ENDBRANCH   5  11
BRANCH  10  17
ATOM     17  C   UNL     1       1.133   2.009   0.002  0.00  0.00    +0.271 C 
ATOM     18  O   UNL     1       2.196   1.414  -0.011  0.00  0.00    -0.268 OA
BRANCH  17  19
ATOM     19  C   UNL     1       1.113   3.489   0.010  0.00  0.00    +0.057 A 
ATOM     20  C   UNL     1      -0.104   4.173   0.020  0.00  0.00    +0.016 A 
ATOM     21  C   UNL     1      -0.116   5.551   0.033  0.00  0.00    +0.021 A 
ATOM     22  C   UNL     1       1.075   6.258   0.025  0.00  0.00    +0.042 A 
ATOM     23  C   UNL     1       2.285   5.587   0.010  0.00  0.00    +0.040 A 
ATOM     24  C   UNL     1       2.311   4.206   0.003  0.00  0.00    +0.055 A 
ATOM     25 CL   UNL     1       3.829   3.364  -0.016  0.00  0.00    -0.083 Cl
ATOM     26 CL   UNL     1       1.050   7.994   0.034  0.00  0.00    -0.083 Cl
ENDBRANCH  17  19
ENDBRANCH  10  17
BRANCH   1  27
ATOM     27  C   UNL     1      -2.422  -0.339   0.023  0.00  0.00    +0.212 C 
BRANCH  27  29
ATOM     28  C   UNL     1      -3.269  -0.009  -2.462  0.00  0.00    +0.005 C 
ATOM     29  C   UNL     1      -2.893  -0.156  -1.359  0.00  0.00    -0.084 C 
ENDBRANCH  27  29
ENDBRANCH   1  27
TORSDOF 6
