REMARK  Name = ZINC13945708
REMARK  6 active torsions:
REMARK  status: ('A' for Active; 'I' for Inactive)
REMARK    1  A    between atoms: C_1  and  C_2
REMARK    2  A    between atoms: C_12  and  C_14
REMARK    3  A    between atoms: C_17  and  S_20
REMARK    4  A    between atoms: S_20  and  C_21
REMARK    5  A    between atoms: N_22  and  C_23
REMARK    6  A    between atoms: C_23  and  C_24
REMARK                            x       y       z     vdW  Elec       q    Type
REMARK                         _______ _______ _______ _____ _____    ______ ____
ROOT
ATOM      1  C   UNL     1      -0.089   1.499   0.054  0.00  0.00    +0.066 C 
ATOM      2  C   UNL     1      -0.050  -0.007   0.034  0.00  0.00    +0.047 C 
ATOM      3  C   UNL     1      -1.220  -0.712   0.037  0.00  0.00    +0.091 C 
ATOM      4  C   UNL     1      -1.164  -2.117   0.018  0.00  0.00    +0.249 C 
ATOM      5  O   UNL     1      -2.185  -2.785   0.019  0.00  0.00    -0.270 OA
ATOM      6  N   UNL     1       0.067  -2.716  -0.003  0.00  0.00    -0.211 N 
ATOM      7  C   UNL     1       1.207  -1.957  -0.004  0.00  0.00    +0.229 C 
ATOM      8  N   UNL     1       1.120  -0.631   0.009  0.00  0.00    -0.219 NA
ATOM      9  N   UNL     1       2.411  -2.540  -0.024  0.00  0.00    -0.183 NA
ATOM     10  C   UNL     1       2.600  -3.838  -0.042  0.00  0.00    +0.194 C 
ATOM     11  N   UNL     1       1.561  -4.725  -0.043  0.00  0.00    -0.335 N 
ATOM     12  C   UNL     1       0.191  -4.180  -0.022  0.00  0.00    +0.211 C 
ATOM     13  N   UNL     1       3.878  -4.319  -0.061  0.00  0.00    -0.311 N 
ATOM     14  H   UNL     1       4.036  -5.276  -0.075  0.00  0.00    +0.149 HD
ATOM     15  H   UNL     1       1.719  -5.682  -0.058  0.00  0.00    +0.164 HD
ENDROOT
BRANCH  12  16
ATOM     16  C   UNL     1      -0.534  -4.693  -1.240  0.00  0.00    -0.007 A 
ATOM     17  C   UNL     1      -0.192  -4.224  -2.495  0.00  0.00    +0.008 A 
ATOM     18  C   UNL     1      -0.854  -4.692  -3.613  0.00  0.00    +0.015 A 
ATOM     19  C   UNL     1      -1.865  -5.635  -3.476  0.00  0.00    +0.008 A 
ATOM     20  C   UNL     1      -2.206  -6.104  -2.213  0.00  0.00    +0.015 A 
ATOM     21  C   UNL     1      -1.536  -5.636  -1.100  0.00  0.00    +0.008 A 
BRANCH  19  22
ATOM     22  S   UNL     1      -2.713  -6.234  -4.899  0.00  0.00    -0.129 S 
ATOM     23  C   UNL     1      -3.914  -7.417  -4.229  0.00  0.00    +0.090 C 
ENDBRANCH  19  22
ENDBRANCH  12  16
BRANCH  13  24
ATOM     24  C   UNL     1       5.011  -3.390  -0.061  0.00  0.00    +0.139 C 
BRANCH  24  25
ATOM     25  C   UNL     1       6.300  -4.170  -0.084  0.00  0.00    -0.030 A 
ATOM     26  C   UNL     1       6.901  -4.547   1.103  0.00  0.00    +0.006 A 
ATOM     27  C   UNL     1       8.083  -5.262   1.082  0.00  0.00    +0.020 A 
ATOM     28  C   UNL     1       8.666  -5.600  -0.126  0.00  0.00    +0.041 A 
ATOM     29  C   UNL     1       8.065  -5.222  -1.313  0.00  0.00    +0.020 A 
ATOM     30  C   UNL     1       6.879  -4.512  -1.292  0.00  0.00    +0.006 A 
ATOM     31 CL   UNL     1      10.152  -6.498  -0.153  0.00  0.00    -0.084 Cl
ENDBRANCH  24  25
ENDBRANCH  13  24
TORSDOF 4
