REMARK  Name = ZINC24716440
REMARK  11 active torsions:
REMARK  status: ('A' for Active; 'I' for Inactive)
REMARK    1  A    between atoms: C_1  and  C_2
REMARK    2  A    between atoms: C_2  and  C_3
REMARK    3  A    between atoms: C_3  and  N_4
REMARK    4  A    between atoms: N_4  and  C_5
REMARK    5  A    between atoms: N_4  and  C_16
REMARK    6  A    between atoms: C_5  and  C_6
REMARK    7  A    between atoms: C_9  and  C_11
REMARK    8  A    between atoms: C_16  and  C_17
REMARK    9  A    between atoms: N_19  and  C_20
REMARK   10  A    between atoms: C_21  and  C_31
REMARK   11  A    between atoms: C_26  and  C_30
REMARK                            x       y       z     vdW  Elec       q    Type
REMARK                         _______ _______ _______ _____ _____    ______ ____
ROOT
ATOM      1  C   UNL     1       3.062  -7.399  -3.471  0.00  0.00    +0.020 C 
ENDROOT
BRANCH   1   2
ATOM      2  C   UNL     1       2.944  -5.944  -3.096  0.00  0.00    +0.201 C 
ATOM      3  O   UNL     1       2.789  -5.107  -3.959  0.00  0.00    -0.278 OA
ATOM      4  N   UNL     1       3.010  -5.574  -1.802  0.00  0.00    -0.281 N 
ATOM      5  H   UNL     1       3.151  -6.334  -1.019  0.00  0.00    +0.155 HD
BRANCH   4   6
ATOM      6  C   UNL     1       2.901  -4.234  -1.456  0.00  0.00    +0.090 A 
ATOM      7  C   UNL     1       2.945  -3.664  -0.193  0.00  0.00    +0.084 A 
ATOM      8  C   UNL     1       2.805  -2.221  -0.102  0.00  0.00    -0.018 A 
ATOM      9  C   UNL     1       2.645  -1.583  -1.283  0.00  0.00    -0.004 A 
ATOM     10  S   UNL     1       2.679  -2.869  -2.499  0.00  0.00    -0.077 S 
ATOM     11  C   UNL     1       2.476  -0.111  -1.498  0.00  0.00    +0.046 C 
ATOM     12  C   UNL     1       2.136   0.539  -0.149  0.00  0.00    -0.009 C 
ATOM     13  C   UNL     1       3.118   0.025   0.908  0.00  0.00    +0.008 C 
ATOM     14  C   UNL     1       2.832  -1.447   1.210  0.00  0.00    +0.037 C 
ATOM     15  C   UNL     1       2.260   2.060  -0.267  0.00  0.00    +0.008 C 
BRANCH   7  16
ATOM     16  C   UNL     1       3.120  -4.468   0.979  0.00  0.00    +0.102 C 
ATOM     17  N   UNL     1       3.259  -5.106   1.909  0.00  0.00    -0.191 NA
ENDBRANCH   7  16
ENDBRANCH   4   6
ENDBRANCH   1   2
BRANCH   1  18
ATOM     18  N   UNL     1       2.959  -7.539  -4.929  0.00  0.00    +0.391 N 
ATOM     19  H   UNL     1       3.683  -6.849  -5.387  0.00  0.00    -0.080 HD
BRANCH  18  20
ATOM     20  C   UNL     1       1.619  -7.165  -5.401  0.00  0.00    -0.078 C 
BRANCH  20  22
ATOM     21  C   UNL     1      -0.820  -7.681  -5.234  0.00  0.00    +0.002 C 
ATOM     22  C   UNL     1       0.576  -8.074  -4.747  0.00  0.00    -0.022 C 
ENDBRANCH  20  22
ENDBRANCH  18  20
BRANCH  18  23
ATOM     23  C   UNL     1       3.305  -8.903  -5.353  0.00  0.00    +0.021 C 
BRANCH  23  24
ATOM     24  C   UNL     1       3.562  -8.917  -6.838  0.00  0.00    +0.202 A 
ATOM     25  N   UNL     1       4.709  -8.713  -7.422  0.00  0.00    -0.114 NA
ATOM     26  N   UNL     1       4.566  -8.799  -8.697  0.00  0.00    -0.104 NA
ATOM     27  C   UNL     1       3.308  -9.064  -8.974  0.00  0.00    +0.284 A 
ATOM     28  O   UNL     1       2.650  -9.149  -7.799  0.00  0.00    -0.420 OA
BRANCH  27  29
ATOM     29  C   UNL     1       2.727  -9.241 -10.314  0.00  0.00    +0.191 A 
ATOM     30  C   UNL     1       3.401  -9.158 -11.495  0.00  0.00    +0.055 A 
ATOM     31  C   UNL     1       2.461  -9.393 -12.516  0.00  0.00    +0.042 A 
ATOM     32  C   UNL     1       1.272  -9.606 -11.916  0.00  0.00    +0.196 A 
ATOM     33  O   UNL     1       1.437  -9.519 -10.587  0.00  0.00    -0.458 OA
ENDBRANCH  27  29
ENDBRANCH  23  24
ENDBRANCH  18  23
ENDBRANCH   1  18
TORSDOF 9
