REMARK  Name = ZINC12421276
REMARK  12 active torsions:
REMARK  status: ('A' for Active; 'I' for Inactive)
REMARK    1  A    between atoms: C_1  and  C_2
REMARK    2  A    between atoms: N_7  and  S_9
REMARK    3  A    between atoms: S_9  and  C_12
REMARK    4  A    between atoms: C_15  and  C_18
REMARK    5  A    between atoms: C_20  and  C_29
REMARK    6  A    between atoms: C_21  and  N_23
REMARK    7  A    between atoms: N_23  and  C_24
REMARK    8  A    between atoms: C_24  and  C_25
REMARK    9  A    between atoms: C_25  and  C_26
REMARK   10  A    between atoms: C_26  and  N_59
REMARK   11  A    between atoms: C_27  and  N_59
REMARK   12  A    between atoms: C_28  and  N_59
REMARK                            x       y       z     vdW  Elec       q    Type
REMARK                         _______ _______ _______ _____ _____    ______ ____
ROOT
ATOM      1  C   UNL     1      -2.847  -0.013  -1.928  0.00  0.00    +0.106 A 
ATOM      2  C   UNL     1      -3.015  -1.141  -1.146  0.00  0.00    +0.029 A 
ATOM      3  C   UNL     1      -4.282  -1.564  -0.801  0.00  0.00    +0.015 A 
ATOM      4  C   UNL     1      -5.397  -0.856  -1.253  0.00  0.00    +0.037 A 
ATOM      5  C   UNL     1      -5.221   0.279  -2.047  0.00  0.00    +0.015 A 
ATOM      6  C   UNL     1      -3.948   0.693  -2.380  0.00  0.00    +0.029 A 
ENDROOT
BRANCH   4   7
ATOM      7  C   UNL     1      -6.758  -1.306  -0.893  0.00  0.00    +0.231 A 
ATOM      8  N   UNL     1      -7.868  -0.718  -1.256  0.00  0.00    -0.196 NA
ATOM      9  C   UNL     1      -8.916  -1.414  -0.743  0.00  0.00    +0.201 A 
ATOM     10  C   UNL     1      -8.383  -2.475  -0.025  0.00  0.00    +0.225 A 
ATOM     11  O   UNL     1      -7.045  -2.382  -0.136  0.00  0.00    -0.421 OA
BRANCH  10  12
ATOM     12  N   UNL     1      -9.087  -3.436   0.666  0.00  0.00    -0.313 N 
ATOM     13  H   UNL     1     -10.056  -3.410   0.682  0.00  0.00    +0.149 HD
BRANCH  12  14
ATOM     14  C   UNL     1      -8.371  -4.497   1.379  0.00  0.00    +0.102 C 
BRANCH  14  15
ATOM     15  C   UNL     1      -9.380  -5.425   2.059  0.00  0.00    +0.000 C 
BRANCH  15  16
ATOM     16  C   UNL     1      -8.632  -6.533   2.803  0.00  0.00    -0.078 C 
BRANCH  16  19
ATOM     17  C   UNL     1     -10.401  -8.150   2.461  0.00  0.00    -0.097 C 
ATOM     18  C   UNL     1      -8.926  -8.356   4.370  0.00  0.00    -0.097 C 
ATOM     19  N   UNL     1      -9.618  -7.408   3.471  0.00  0.00    +0.376 N 
ATOM     20  H   UNL     1     -10.257  -6.827   4.027  0.00  0.00    -0.083 HD
ENDBRANCH  16  19
ENDBRANCH  15  16
ENDBRANCH  14  15
ENDBRANCH  12  14
ENDBRANCH  10  12
BRANCH   9  21
ATOM     21  C   UNL     1     -10.305  -1.108  -0.907  0.00  0.00    +0.124 C 
ATOM     22  N   UNL     1     -11.407  -0.866  -1.038  0.00  0.00    -0.189 NA
ENDBRANCH   9  21
ENDBRANCH   4   7
BRANCH   1  23
ATOM     23  S   UNL     1      -1.225   0.524  -2.357  0.00  0.00    +0.061 S 
ATOM     24  O   UNL     1      -1.351   1.284  -3.552  0.00  0.00    -0.153 OA
ATOM     25  O   UNL     1      -0.382  -0.616  -2.266  0.00  0.00    -0.153 OA
BRANCH  23  31
ATOM     26  C   UNL     1      -1.879   5.010  -0.075  0.00  0.00    +0.009 C 
ATOM     27  C   UNL     1      -1.712   3.490  -0.028  0.00  0.00    +0.002 C 
ATOM     28  C   UNL     1      -0.878   3.105   1.196  0.00  0.00    +0.006 C 
ATOM     29  C   UNL     1      -0.736   1.583   1.264  0.00  0.00    +0.017 C 
ATOM     30  C   UNL     1      -0.013   1.086   0.008  0.00  0.00    +0.109 C 
ATOM     31  N   UNL     1      -0.729   1.575  -1.178  0.00  0.00    -0.176 NA
ATOM     32  C   UNL     1      -0.997   3.015  -1.297  0.00  0.00    +0.112 C 
ENDBRANCH  23  31
ENDBRANCH   1  23
TORSDOF 9
