REMARK  Name = ZINC39362927
REMARK  8 active torsions:
REMARK  status: ('A' for Active; 'I' for Inactive)
REMARK    1  A    between atoms: C_1  and  C_2
REMARK    2  A    between atoms: C_5  and  C_32
REMARK    3  A    between atoms: C_6  and  C_8
REMARK    4  A    between atoms: C_8  and  S_9
REMARK    5  A    between atoms: S_9  and  C_10
REMARK    6  A    between atoms: C_13  and  C_23
REMARK    7  A    between atoms: N_15  and  C_16
REMARK    8  A    between atoms: C_23  and  C_24
REMARK                            x       y       z     vdW  Elec       q    Type
REMARK                         _______ _______ _______ _____ _____    ______ ____
ROOT
ATOM      1  C   UNL     1       1.621  -3.987   4.534  0.00  0.00    +0.180 C 
ATOM      2  N   UNL     1       0.496  -4.326   5.064  0.00  0.00    -0.162 NA
ATOM      3  N   UNL     1       0.684  -5.059   6.243  0.00  0.00    -0.246 N 
ATOM      4  C   UNL     1       2.141  -5.165   6.431  0.00  0.00    +0.187 C 
ATOM      5  N   UNL     1       2.701  -4.447   5.274  0.00  0.00    -0.258 N 
ATOM      6  H   UNL     1      -0.006  -5.423   6.819  0.00  0.00    +0.170 HD
ENDROOT
BRANCH   5   7
ATOM      7  C   UNL     1       4.056  -4.262   4.980  0.00  0.00    +0.038 A 
ATOM      8  C   UNL     1       4.848  -3.481   5.812  0.00  0.00    +0.026 A 
ATOM      9  C   UNL     1       6.186  -3.301   5.520  0.00  0.00    +0.040 A 
ATOM     10  C   UNL     1       6.737  -3.897   4.398  0.00  0.00    +0.124 A 
ATOM     11  C   UNL     1       5.950  -4.675   3.567  0.00  0.00    +0.040 A 
ATOM     12  C   UNL     1       4.613  -4.863   3.858  0.00  0.00    +0.026 A 
ATOM     13  F   UNL     1       8.046  -3.718   4.114  0.00  0.00    -0.205 F 
ENDBRANCH   5   7
BRANCH   1  14
ATOM     14  S   UNL     1       1.770  -3.058   3.044  0.00  0.00    -0.084 S 
BRANCH  14  15
ATOM     15  C   UNL     1       0.053  -2.750   2.546  0.00  0.00    +0.112 C 
BRANCH  15  21
ATOM     16  C   UNL     1      -0.001   1.666   0.192  0.00  0.00    +0.044 C 
ATOM     17  C   UNL     1       0.010   0.160   0.141  0.00  0.00    -0.050 A 
ATOM     18  C   UNL     1       0.005  -0.490  -1.079  0.00  0.00    +0.003 A 
ATOM     19  C   UNL     1       0.015  -1.871  -1.126  0.00  0.00    +0.004 A 
ATOM     20  C   UNL     1       0.030  -2.603   0.047  0.00  0.00    -0.046 A 
ATOM     21  C   UNL     1       0.037  -1.953   1.267  0.00  0.00    -0.034 A 
ATOM     22  C   UNL     1       0.031  -0.571   1.314  0.00  0.00    +0.008 A 
ATOM     23  C   UNL     1       0.041  -4.109  -0.004  0.00  0.00    +0.044 C 
ENDBRANCH  15  21
ENDBRANCH  14  15
ENDBRANCH   1  14
BRANCH   4  24
ATOM     24  C   UNL     1       2.580  -6.631   6.414  0.00  0.00    +0.097 C 
BRANCH  24  25
ATOM     25  C   UNL     1       1.915  -7.367   7.548  0.00  0.00    +0.029 A 
ATOM     26  N   UNL     1       2.469  -7.348   8.799  0.00  0.00    -0.311 N 
ATOM     27  C   UNL     1       1.883  -8.002   9.819  0.00  0.00    +0.327 A 
ATOM     28  O   UNL     1       2.393  -7.972  10.922  0.00  0.00    -0.247 OA
ATOM     29  N   UNL     1       0.740  -8.688   9.635  0.00  0.00    -0.275 N 
ATOM     30  C   UNL     1       0.162  -8.732   8.417  0.00  0.00    +0.254 A 
ATOM     31  O   UNL     1      -0.872  -9.352   8.250  0.00  0.00    -0.268 OA
ATOM     32  C   UNL     1       0.766  -8.044   7.337  0.00  0.00    +0.091 A 
ATOM     33  H   UNL     1       0.331  -9.154  10.380  0.00  0.00    +0.173 HD
ATOM     34  H   UNL     1       3.293  -6.859   8.952  0.00  0.00    +0.170 HD
ENDBRANCH  24  25
ENDBRANCH   4  24
TORSDOF 6
