REMARK  Name = ZINC20869686
REMARK  9 active torsions:
REMARK  status: ('A' for Active; 'I' for Inactive)
REMARK    1  A    between atoms: C_1  and  O_2
REMARK    2  A    between atoms: O_2  and  C_3
REMARK    3  A    between atoms: C_6  and  N_11
REMARK    4  A    between atoms: C_8  and  O_9
REMARK    5  A    between atoms: O_9  and  C_10
REMARK    6  A    between atoms: C_21  and  S_22
REMARK    7  A    between atoms: S_22  and  C_23
REMARK    8  A    between atoms: C_23  and  C_24
REMARK    9  A    between atoms: C_33  and  O_35
REMARK                            x       y       z     vdW  Elec       q    Type
REMARK                         _______ _______ _______ _____ _____    ______ ____
ROOT
ATOM      1  N   UNL     1       2.682  -3.567  -2.537  0.00  0.00    -0.255 N 
ATOM      2  C   UNL     1       2.251  -4.832  -2.321  0.00  0.00    +0.267 A 
ATOM      3  O   UNL     1       1.827  -5.519  -3.232  0.00  0.00    -0.267 OA
ATOM      4  C   UNL     1       2.314  -5.344  -0.945  0.00  0.00    +0.065 A 
ATOM      5  C   UNL     1       1.895  -6.633  -0.620  0.00  0.00    +0.015 A 
ATOM      6  C   UNL     1       1.976  -7.061   0.677  0.00  0.00    +0.001 A 
ATOM      7  C   UNL     1       2.470  -6.225   1.670  0.00  0.00    +0.002 A 
ATOM      8  C   UNL     1       2.888  -4.957   1.379  0.00  0.00    +0.028 A 
ATOM      9  C   UNL     1       2.818  -4.490   0.063  0.00  0.00    +0.079 A 
ATOM     10  N   UNL     1       3.224  -3.249  -0.269  0.00  0.00    -0.223 NA
ATOM     11  C   UNL     1       3.155  -2.810  -1.501  0.00  0.00    +0.177 A 
ENDROOT
BRANCH   1  15
ATOM     12  C   UNL     1       2.559  -1.966  -6.389  0.00  0.00    +0.162 A 
ATOM     13  C   UNL     1       1.473  -1.819  -5.542  0.00  0.00    +0.051 A 
ATOM     14  C   UNL     1       1.511  -2.354  -4.268  0.00  0.00    +0.030 A 
ATOM     15  C   UNL     1       2.642  -3.030  -3.832  0.00  0.00    +0.056 A 
ATOM     16  C   UNL     1       3.732  -3.180  -4.678  0.00  0.00    +0.075 A 
ATOM     17  C   UNL     1       3.692  -2.649  -5.957  0.00  0.00    +0.163 A 
BRANCH  12  19
ATOM     18  C   UNL     1       1.323  -0.756  -8.023  0.00  0.00    +0.277 C 
ATOM     19  O   UNL     1       2.517  -1.444  -7.645  0.00  0.00    -0.491 OA
ENDBRANCH  12  19
BRANCH  17  20
ATOM     20  O   UNL     1       4.758  -2.793  -6.788  0.00  0.00    -0.491 OA
ATOM     21  C   UNL     1       5.887  -3.505  -6.277  0.00  0.00    +0.277 C 
ENDBRANCH  17  20
ENDBRANCH   1  15
BRANCH  11  22
ATOM     22  S   UNL     1       3.702  -1.170  -1.841  0.00  0.00    -0.083 S 
BRANCH  22  23
ATOM     23  C   UNL     1       4.200  -0.654  -0.179  0.00  0.00    +0.113 C 
BRANCH  23  24
ATOM     24  C   UNL     1       4.718   0.761  -0.227  0.00  0.00    -0.020 A 
ATOM     25  C   UNL     1       6.034   1.015  -0.448  0.00  0.00    +0.097 A 
ATOM     26  C   UNL     1       6.494   2.348  -0.487  0.00  0.00    +0.338 A 
ATOM     27  O   UNL     1       7.676   2.561  -0.685  0.00  0.00    -0.245 OA
ATOM     28  O   UNL     1       5.662   3.386  -0.311  0.00  0.00    -0.422 OA
ATOM     29  C   UNL     1       4.343   3.203  -0.088  0.00  0.00    +0.143 A 
ATOM     30  C   UNL     1       3.816   1.898  -0.036  0.00  0.00    +0.022 A 
ATOM     31  C   UNL     1       2.449   1.704   0.194  0.00  0.00    +0.015 A 
ATOM     32  C   UNL     1       1.629   2.782   0.362  0.00  0.00    +0.046 A 
ATOM     33  C   UNL     1       2.147   4.075   0.318  0.00  0.00    +0.120 A 
ATOM     34  C   UNL     1       3.497   4.286   0.091  0.00  0.00    +0.092 A 
BRANCH  33  35
ATOM     35  O   UNL     1       1.319   5.137   0.493  0.00  0.00    -0.507 OA
ATOM     36  H   UNL     1       1.723   6.160   0.459  0.00  0.00    +0.292 HD
ENDBRANCH  33  35
ENDBRANCH  23  24
ENDBRANCH  22  23
ENDBRANCH  11  22
TORSDOF 7
