REMARK  Name = ZINC46569131
REMARK  8 active torsions:
REMARK  status: ('A' for Active; 'I' for Inactive)
REMARK    1  A    between atoms: C_1  and  N_2
REMARK    2  A    between atoms: N_2  and  C_3
REMARK    3  A    between atoms: N_2  and  S_4
REMARK    4  A    between atoms: S_4  and  C_7
REMARK    5  A    between atoms: C_10  and  S_16
REMARK    6  A    between atoms: C_11  and  N_13
REMARK    7  A    between atoms: S_16  and  N_19
REMARK    8  A    between atoms: C_23  and  C_25
REMARK                            x       y       z     vdW  Elec       q    Type
REMARK                         _______ _______ _______ _____ _____    ______ ____
ROOT
ATOM      1  S   UNL     1       6.219  -1.617  -3.097  0.00  0.00    +0.064 S 
ATOM      2  O   UNL     1       6.442  -2.970  -3.472  0.00  0.00    -0.153 OA
ATOM      3  O   UNL     1       6.494  -0.530  -3.970  0.00  0.00    -0.153 OA
ENDROOT
BRANCH   1   7
ATOM      4  C   UNL     1       1.849  -1.290  -1.961  0.00  0.00    +0.108 A 
ATOM      5  C   UNL     1       2.815  -1.380  -0.976  0.00  0.00    +0.030 A 
ATOM      6  C   UNL     1       4.149  -1.480  -1.323  0.00  0.00    +0.033 A 
ATOM      7  C   UNL     1       4.518  -1.491  -2.655  0.00  0.00    +0.136 A 
ATOM      8  C   UNL     1       3.553  -1.402  -3.640  0.00  0.00    +0.154 A 
ATOM      9  C   UNL     1       2.218  -1.306  -3.293  0.00  0.00    +0.063 A 
BRANCH   4  10
ATOM     10  S   UNL     1       0.148  -1.163  -1.519  0.00  0.00    +0.060 S 
ATOM     11  O   UNL     1      -0.512  -0.549  -2.618  0.00  0.00    -0.153 OA
ATOM     12  O   UNL     1       0.110  -0.620  -0.207  0.00  0.00    -0.153 OA
BRANCH  10  14
ATOM     13  C   UNL     1      -0.393  -3.423  -0.136  0.00  0.00    +0.131 C 
ATOM     14  N   UNL     1      -0.446  -2.705  -1.411  0.00  0.00    -0.183 NA
ATOM     15  C   UNL     1      -1.026  -3.350  -2.592  0.00  0.00    +0.131 C 
ENDBRANCH  10  14
ENDBRANCH   4  10
BRANCH   8  16
ATOM     16  N   UNL     1       3.948  -1.413  -5.067  0.00  0.00    +0.058 N 
ATOM     17  O   UNL     1       3.121  -1.205  -5.924  0.00  0.00    -0.126 OA
ATOM     18  O   UNL     1       5.097  -1.630  -5.374  0.00  0.00    -0.126 OA
ENDBRANCH   8  16
ENDBRANCH   1   7
BRANCH   1  19
ATOM     19  N   UNL     1       7.103  -1.355  -1.722  0.00  0.00    -0.166 NA
ATOM     20  C   UNL     1       7.629  -2.401  -0.826  0.00  0.00    +0.110 C 
ATOM     21  C   UNL     1       7.803  -1.700   0.544  0.00  0.00    +0.019 C 
ATOM     22  C   UNL     1       8.281  -0.288   0.113  0.00  0.00    +0.030 C 
ATOM     23  C   UNL     1       7.498  -0.041  -1.195  0.00  0.00    +0.148 C 
BRANCH  23  24
ATOM     24  C   UNL     1       8.376   0.669  -2.193  0.00  0.00    +0.157 A 
ATOM     25  N   UNL     1       9.395   0.154  -2.831  0.00  0.00    -0.132 NA
ATOM     26  N   UNL     1       9.924   1.032  -3.609  0.00  0.00    -0.129 NA
ATOM     27  C   UNL     1       9.258   2.171  -3.507  0.00  0.00    +0.161 A 
ATOM     28  N   UNL     1       8.248   1.961  -2.601  0.00  0.00    -0.285 N 
ATOM     29  C   UNL     1       7.380   2.965  -2.289  0.00  0.00    +0.094 A 
ATOM     30  C   UNL     1       7.499   4.179  -2.868  0.00  0.00    +0.018 A 
ATOM     31  C   UNL     1       8.521   4.423  -3.801  0.00  0.00    +0.005 A 
ATOM     32  C   UNL     1       9.399   3.433  -4.116  0.00  0.00    +0.048 A 
ENDBRANCH  23  24
ENDBRANCH   1  19
TORSDOF 6
