REMARK  Name = ZINC09397608
REMARK  10 active torsions:
REMARK  status: ('A' for Active; 'I' for Inactive)
REMARK    1  A    between atoms: C_1  and  C_2
REMARK    2  A    between atoms: C_5  and  C_32
REMARK    3  A    between atoms: C_6  and  N_8
REMARK    4  A    between atoms: C_13  and  C_15
REMARK    5  A    between atoms: C_15  and  O_17
REMARK    6  A    between atoms: O_17  and  C_18
REMARK    7  A    between atoms: C_18  and  C_20
REMARK    8  A    between atoms: C_18  and  C_21
REMARK    9  A    between atoms: N_23  and  C_24
REMARK   10  A    between atoms: C_24  and  C_30
REMARK                            x       y       z     vdW  Elec       q    Type
REMARK                         _______ _______ _______ _____ _____    ______ ____
ROOT
ATOM      1  C   UNL     1      -1.263  -0.744   0.008  0.00  0.00    +0.356 C 
ATOM      2  O   UNL     1      -1.256  -1.960   0.001  0.00  0.00    -0.244 OA
ENDROOT
BRANCH   1   8
ATOM      3  N   UNL     1       1.172   2.033   0.002  0.00  0.00    -0.160 N 
ATOM      4  C   UNL     1       2.327   1.464  -0.394  0.00  0.00    +0.240 C 
ATOM      5  O   UNL     1       3.353   2.111  -0.402  0.00  0.00    -0.273 OA
ATOM      6  C   UNL     1       2.340   0.019  -0.826  0.00  0.00    +0.104 C 
ATOM      7  C   UNL     1       1.304  -0.759  -0.013  0.00  0.00    +0.074 C 
ATOM      8  C   UNL     1       0.002  -0.004   0.002  0.00  0.00    +0.144 C 
ATOM      9  N   UNL     1      -0.015   1.294   0.009  0.00  0.00    -0.170 NA
BRANCH   3  15
ATOM     10  C   UNL     1       2.921   5.591   2.911  0.00  0.00    +0.044 C 
ATOM     11  C   UNL     1       1.997   5.124   1.815  0.00  0.00    -0.049 A 
ATOM     12  C   UNL     1       1.137   6.021   1.209  0.00  0.00    +0.004 A 
ATOM     13  C   UNL     1       0.288   5.597   0.203  0.00  0.00    +0.005 A 
ATOM     14  C   UNL     1       0.301   4.277  -0.203  0.00  0.00    -0.027 A 
ATOM     15  C   UNL     1       1.160   3.373   0.407  0.00  0.00    +0.063 A 
ATOM     16  C   UNL     1       2.011   3.802   1.418  0.00  0.00    +0.029 A 
ATOM     17  C   UNL     1      -0.620   3.817  -1.304  0.00  0.00    +0.046 C 
ENDBRANCH   3  15
ENDBRANCH   1   8
BRANCH   1  18
ATOM     18  O   UNL     1      -2.435  -0.077   0.020  0.00  0.00    -0.448 OA
BRANCH  18  19
ATOM     19  C   UNL     1      -3.648  -0.875   0.025  0.00  0.00    +0.259 C 
ATOM     20  C   UNL     1      -4.063  -1.163   1.470  0.00  0.00    +0.062 C 
BRANCH  19  21
ATOM     21  C   UNL     1      -4.749  -0.119  -0.672  0.00  0.00    +0.255 C 
ATOM     22  O   UNL     1      -4.533   0.984  -1.129  0.00  0.00    -0.272 OA
ATOM     23  N   UNL     1      -5.974  -0.668  -0.789  0.00  0.00    -0.294 N 
ATOM     24  H   UNL     1      -6.147  -1.550  -0.424  0.00  0.00    +0.150 HD
BRANCH  23  25
ATOM     25  C   UNL     1      -7.045   0.067  -1.468  0.00  0.00    +0.121 C 
ATOM     26  C   UNL     1      -7.300   1.387  -0.737  0.00  0.00    +0.041 C 
ATOM     27  C   UNL     1      -8.418   2.154  -1.446  0.00  0.00    +0.003 C 
ATOM     28  C   UNL     1      -9.696   1.313  -1.441  0.00  0.00    +0.000 C 
ATOM     29  C   UNL     1      -9.441  -0.007  -2.171  0.00  0.00    +0.003 C 
ATOM     30  C   UNL     1      -8.323  -0.774  -1.462  0.00  0.00    +0.041 C 
BRANCH  25  31
ATOM     31  C   UNL     1      -6.646   0.344  -2.857  0.00  0.00    +0.088 C 
ATOM     32  N   UNL     1      -6.337   0.558  -3.929  0.00  0.00    -0.194 NA
ENDBRANCH  25  31
ENDBRANCH  23  25
ENDBRANCH  19  21
ENDBRANCH  18  19
ENDBRANCH   1  18
TORSDOF 7
