REMARK  Name = ZINC19335770
REMARK  6 active torsions:
REMARK  status: ('A' for Active; 'I' for Inactive)
REMARK    1  A    between atoms: N_9  and  C_12
REMARK    2  A    between atoms: C_12  and  N_13
REMARK    3  A    between atoms: N_13  and  C_14
REMARK    4  A    between atoms: N_13  and  C_21
REMARK    5  A    between atoms: C_14  and  C_15
REMARK    6  A    between atoms: C_21  and  N_22
REMARK                            x       y       z     vdW  Elec       q    Type
REMARK                         _______ _______ _______ _____ _____    ______ ____
ROOT
ATOM      1  N   UNL     1       3.558   5.237   1.196  0.00  0.00    -0.268 NA
ENDROOT
BRANCH   1   2
ATOM      2  C   UNL     1       3.081   5.026  -0.177  0.00  0.00    +0.205 C 
BRANCH   2  11
ATOM      3  C   UNL     1      -0.151  -0.122  -0.437  0.00  0.00    +0.001 A 
ATOM      4  C   UNL     1      -1.213   0.716  -0.154  0.00  0.00    +0.001 A 
ATOM      5  C   UNL     1      -1.009   2.076   0.014  0.00  0.00    +0.014 A 
ATOM      6  C   UNL     1       0.269   2.599  -0.103  0.00  0.00    +0.049 A 
ATOM      7  C   UNL     1       1.352   1.744  -0.393  0.00  0.00    +0.049 A 
ATOM      8  C   UNL     1       1.133   0.386  -0.558  0.00  0.00    +0.014 A 
ATOM      9  C   UNL     1       2.547   2.611  -0.448  0.00  0.00    +0.255 C 
ATOM     10  O   UNL     1       3.682   2.241  -0.673  0.00  0.00    -0.269 OA
ATOM     11  N   UNL     1       2.169   3.880  -0.206  0.00  0.00    -0.220 N 
ATOM     12  C   UNL     1       0.843   3.957   0.007  0.00  0.00    +0.255 C 
ATOM     13  O   UNL     1       0.222   4.971   0.250  0.00  0.00    -0.269 OA
ENDBRANCH   2  11
ENDBRANCH   1   2
BRANCH   1  14
ATOM     14  C   UNL     1       2.554   5.948   1.999  0.00  0.00    +0.119 C 
BRANCH  14  15
ATOM     15  C   UNL     1       2.155   7.242   1.287  0.00  0.00    +0.132 C 
ATOM     16  C   UNL     1       0.974   7.903   2.024  0.00  0.00    +0.035 C 
ATOM     17  C   UNL     1       1.506   9.304   2.412  0.00  0.00    +0.031 C 
ATOM     18  C   UNL     1       2.678   9.495   1.417  0.00  0.00    +0.160 C 
ATOM     19  O   UNL     1       3.251   8.173   1.313  0.00  0.00    -0.375 OA
ENDBRANCH  14  15
ENDBRANCH   1  14
BRANCH   1  20
ATOM     20  C   UNL     1       4.841   5.954   1.203  0.00  0.00    +0.205 C 
BRANCH  20  21
ATOM     21  N   UNL     1       5.571   5.636   2.433  0.00  0.00    -0.220 N 
ATOM     22  C   UNL     1       5.472   6.334   3.579  0.00  0.00    +0.255 C 
ATOM     23  O   UNL     1       4.774   7.312   3.755  0.00  0.00    -0.269 OA
ATOM     24  C   UNL     1       6.353   5.710   4.588  0.00  0.00    +0.049 A 
ATOM     25  C   UNL     1       6.653   5.983   5.913  0.00  0.00    +0.014 A 
ATOM     26  C   UNL     1       7.555   5.180   6.593  0.00  0.00    +0.001 A 
ATOM     27  C   UNL     1       8.156   4.109   5.960  0.00  0.00    +0.001 A 
ATOM     28  C   UNL     1       7.866   3.823   4.635  0.00  0.00    +0.014 A 
ATOM     29  C   UNL     1       6.966   4.617   3.942  0.00  0.00    +0.049 A 
ATOM     30  C   UNL     1       6.433   4.612   2.563  0.00  0.00    +0.255 C 
ATOM     31  O   UNL     1       6.725   3.815   1.694  0.00  0.00    -0.269 OA
ENDBRANCH  20  21
ENDBRANCH   1  20
TORSDOF 6
