REMARK  Name = ZINC09262233
REMARK  13 active torsions:
REMARK  status: ('A' for Active; 'I' for Inactive)
REMARK    1  A    between atoms: C_1  and  C_2
REMARK    2  A    between atoms: C_2  and  N_3
REMARK    3  A    between atoms: C_4  and  CA_19
REMARK    4  A    between atoms: C_7  and  S_8
REMARK    5  A    between atoms: S_8  and  C_9
REMARK    6  A    between atoms: C_9  and  C_10
REMARK    7  A    between atoms: C_10  and  C_12
REMARK    8  A    between atoms: CA_19  and  C_21
REMARK    9  A    between atoms: CA_19  and  N_23
REMARK   10  A    between atoms: C_21  and  O_22
REMARK   11  A    between atoms: C_24  and  C_26
REMARK   12  A    between atoms: C_29  and  O_32
REMARK   13  A    between atoms: O_32  and  C_33
REMARK                            x       y       z     vdW  Elec       q    Type
REMARK                         _______ _______ _______ _____ _____    ______ ____
ROOT
ATOM      1  N   UNL     1      -0.018   1.461   0.010  0.00  0.00    -0.305 N 
ATOM      2  C   UNL     1      -1.119   2.272   0.019  0.00  0.00    +0.157 A 
ATOM      3  N   UNL     1      -0.694   3.503   0.026  0.00  0.00    -0.131 NA
ATOM      4  N   UNL     1       0.591   3.526   0.015  0.00  0.00    -0.122 NA
ATOM      5  C   UNL     1       1.059   2.300   0.004  0.00  0.00    +0.192 A 
ENDROOT
BRANCH   1   7
ATOM      6  C   UNL     1       0.022  -0.522   1.442  0.00  0.00    +0.027 C 
ATOM      7  C   UNL     1       0.002  -0.004   0.002  0.00  0.00    +0.122 C 
ENDBRANCH   1   7
BRANCH   5   8
ATOM      8  S   UNL     1       2.756   1.826  -0.013  0.00  0.00    -0.078 S 
BRANCH   8   9
ATOM      9  C   UNL     1       3.538   3.459  -0.012  0.00  0.00    +0.157 C 
BRANCH   9  10
ATOM     10  C   UNL     1       5.037   3.298  -0.026  0.00  0.00    +0.173 C 
ATOM     11  O   UNL     1       5.527   2.189  -0.035  0.00  0.00    -0.291 OA
BRANCH  10  12
ATOM     12  C   UNL     1       5.904   4.486  -0.029  0.00  0.00    +0.018 A 
ATOM     13  C   UNL     1       5.341   5.767  -0.024  0.00  0.00    +0.012 A 
ATOM     14  C   UNL     1       6.160   6.876  -0.019  0.00  0.00    +0.016 A 
ATOM     15  C   UNL     1       7.537   6.724  -0.033  0.00  0.00    +0.018 A 
ATOM     16  C   UNL     1       8.101   5.459  -0.044  0.00  0.00    +0.016 A 
ATOM     17  C   UNL     1       7.295   4.341  -0.042  0.00  0.00    +0.012 A 
ATOM     18 BR   UNL     1       8.652   8.251  -0.035  0.00  0.00    -0.050 Br
ENDBRANCH  10  12
ENDBRANCH   9  10
ENDBRANCH   8   9
ENDBRANCH   5   8
BRANCH   2  19
ATOM     19  CA  UNL     1      -2.558   1.824   0.022  0.00  0.00    +0.167 C 
BRANCH  19  20
ATOM     20  N   UNL     1      -3.311   2.606   1.006  0.00  0.00    -0.299 N 
ATOM     21  C   UNL     1      -4.431   2.097   1.557  0.00  0.00    +0.245 C 
ATOM     22  O   UNL     1      -4.817   0.990   1.237  0.00  0.00    -0.270 OA
ATOM     23  H   UNL     1      -3.003   3.489   1.262  0.00  0.00    +0.150 HD
BRANCH  21  24
ATOM     24  C   UNL     1      -5.189   2.885   2.548  0.00  0.00    +0.037 A 
ATOM     25  C   UNL     1      -4.744   4.156   2.921  0.00  0.00    +0.016 A 
ATOM     26  C   UNL     1      -5.457   4.889   3.844  0.00  0.00    +0.046 A 
ATOM     27  C   UNL     1      -6.612   4.363   4.410  0.00  0.00    +0.120 A 
ATOM     28  C   UNL     1      -7.055   3.098   4.045  0.00  0.00    +0.046 A 
ATOM     29  C   UNL     1      -6.351   2.360   3.120  0.00  0.00    +0.016 A 
BRANCH  27  30
ATOM     30  O   UNL     1      -7.309   5.088   5.322  0.00  0.00    -0.495 OA
ATOM     31  C   UNL     1      -6.797   6.380   5.652  0.00  0.00    +0.277 C 
ENDBRANCH  27  30
ENDBRANCH  21  24
ENDBRANCH  19  20
BRANCH  19  32
ATOM     32  C   UNL     1      -3.161   2.036  -1.367  0.00  0.00    +0.186 C 
BRANCH  32  33
ATOM     33  O   UNL     1      -2.990   3.400  -1.758  0.00  0.00    -0.393 OA
ATOM     34  H   UNL     1      -3.350   3.607  -2.631  0.00  0.00    +0.209 HD
ENDBRANCH  32  33
ENDBRANCH  19  32
ENDBRANCH   2  19
TORSDOF 11
