REMARK  Name = ZINC09001765
REMARK  6 active torsions:
REMARK  status: ('A' for Active; 'I' for Inactive)
REMARK    1  A    between atoms: C_1  and  C_2
REMARK    2  A    between atoms: C_4  and  C_8
REMARK    3  A    between atoms: N_6  and  C_7
REMARK    4  A    between atoms: N_10  and  C_11
REMARK    5  A    between atoms: C_12  and  C_22
REMARK    6  A    between atoms: C_17  and  C_21
REMARK                            x       y       z     vdW  Elec       q    Type
REMARK                         _______ _______ _______ _____ _____    ______ ____
ROOT
ATOM      1  C   UNL     1       3.685   3.387  -0.160  0.00  0.00    +0.090 A 
ATOM      2  C   UNL     1       3.757   2.043   0.178  0.00  0.00    +0.084 A 
ATOM      3  C   UNL     1       2.510   1.304   0.265  0.00  0.00    -0.018 A 
ATOM      4  C   UNL     1       1.396   2.022  -0.000  0.00  0.00    -0.004 A 
ATOM      5  S   UNL     1       1.984   3.653  -0.358  0.00  0.00    -0.077 S 
ATOM      6  C   UNL     1      -0.019   1.531   0.011  0.00  0.00    +0.046 C 
ATOM      7  C   UNL     1       0.002  -0.004   0.002  0.00  0.00    -0.009 C 
ATOM      8  C   UNL     1       0.992  -0.490   1.064  0.00  0.00    +0.008 C 
ATOM      9  C   UNL     1       2.423  -0.174   0.625  0.00  0.00    +0.037 C 
ATOM     10  C   UNL     1      -1.397  -0.538   0.318  0.00  0.00    +0.008 C 
ENDROOT
BRANCH   1  13
ATOM     11  C   UNL     1       4.456   5.574  -0.641  0.00  0.00    +0.269 C 
ATOM     12  O   UNL     1       3.307   5.929  -0.818  0.00  0.00    -0.268 OA
ATOM     13  N   UNL     1       4.722   4.296  -0.304  0.00  0.00    -0.274 N 
ATOM     14  H   UNL     1       5.639   4.013  -0.163  0.00  0.00    +0.156 HD
BRANCH  11  18
ATOM     15  C   UNL     1       7.120   9.803  -1.482  0.00  0.00    +0.065 C 
ATOM     16  C   UNL     1       6.705   8.389  -1.163  0.00  0.00    +0.037 A 
ATOM     17  C   UNL     1       5.440   7.908  -1.143  0.00  0.00    +0.057 A 
ATOM     18  C   UNL     1       5.561   6.542  -0.795  0.00  0.00    +0.148 A 
ATOM     19  N   UNL     1       6.846   6.299  -0.630  0.00  0.00    -0.167 NA
ATOM     20  N   UNL     1       7.527   7.366  -0.846  0.00  0.00    -0.271 N 
ATOM     21  C   UNL     1       8.987   7.460  -0.756  0.00  0.00    +0.172 C 
ENDBRANCH  11  18
ENDBRANCH   1  13
BRANCH   2  22
ATOM     22  C   UNL     1       5.015   1.409   0.432  0.00  0.00    +0.102 C 
ATOM     23  N   UNL     1       6.013   0.905   0.634  0.00  0.00    -0.191 NA
ENDBRANCH   2  22
TORSDOF 3
