REMARK  Name = ZINC13374831
REMARK  9 active torsions:
REMARK  status: ('A' for Active; 'I' for Inactive)
REMARK    1  A    between atoms: C_1  and  C_2
REMARK    2  A    between atoms: C_5  and  C_36
REMARK    3  A    between atoms: N_8  and  S_10
REMARK    4  A    between atoms: S_10  and  C_13
REMARK    5  A    between atoms: C_16  and  C_19
REMARK    6  A    between atoms: C_19  and  N_21
REMARK    7  A    between atoms: N_23  and  C_35
REMARK    8  A    between atoms: C_27  and  N_31
REMARK    9  A    between atoms: C_32  and  C_34
REMARK                            x       y       z     vdW  Elec       q    Type
REMARK                         _______ _______ _______ _____ _____    ______ ____
ROOT
ATOM      1  C   UNL     1       4.311  -3.933  -4.963  0.00  0.00    +0.269 C 
ATOM      2  O   UNL     1       3.854  -4.984  -5.379  0.00  0.00    -0.268 OA
ENDROOT
BRANCH   1   3
ATOM      3  N   UNL     1       5.468  -3.470  -5.447  0.00  0.00    -0.152 NA
ATOM      4  C   UNL     1       6.595  -3.659  -4.770  0.00  0.00    +0.166 A 
ATOM      5  N   UNL     1       6.780  -4.409  -3.653  0.00  0.00    -0.324 N 
ATOM      6  C   UNL     1       8.037  -4.491  -3.080  0.00  0.00    +0.057 A 
ATOM      7  C   UNL     1       8.444  -5.199  -1.941  0.00  0.00    +0.029 A 
ATOM      8  C   UNL     1       9.752  -5.159  -1.520  0.00  0.00    +0.025 A 
ATOM      9  C   UNL     1      10.706  -4.417  -2.209  0.00  0.00    +0.035 A 
ATOM     10  C   UNL     1      10.325  -3.707  -3.341  0.00  0.00    +0.040 A 
ATOM     11  C   UNL     1       9.016  -3.751  -3.758  0.00  0.00    +0.041 A 
ATOM     12  S   UNL     1       8.117  -3.030  -5.106  0.00  0.00    -0.052 S 
ATOM     13  C   UNL     1       5.652  -5.129  -3.057  0.00  0.00    +0.151 C 
BRANCH   9  14
ATOM     14  N   UNL     1      12.035  -4.386  -1.766  0.00  0.00    -0.286 N 
ATOM     15  C   UNL     1      12.579  -5.477  -1.192  0.00  0.00    +0.214 C 
ATOM     16  O   UNL     1      11.952  -6.514  -1.143  0.00  0.00    -0.276 OA
ATOM     17  C   UNL     1      13.968  -5.409  -0.611  0.00  0.00    +0.109 C 
ATOM     18  H   UNL     1      12.563  -3.579  -1.873  0.00  0.00    +0.155 HD
ENDBRANCH   9  14
ENDBRANCH   1   3
BRANCH   1  22
ATOM     19  C   UNL     1       2.230  -1.747  -1.971  0.00  0.00    +0.106 A 
ATOM     20  C   UNL     1       1.708  -2.938  -2.442  0.00  0.00    +0.029 A 
ATOM     21  C   UNL     1       2.379  -3.653  -3.413  0.00  0.00    +0.015 A 
ATOM     22  C   UNL     1       3.586  -3.171  -3.921  0.00  0.00    +0.039 A 
ATOM     23  C   UNL     1       4.107  -1.969  -3.442  0.00  0.00    +0.015 A 
ATOM     24  C   UNL     1       3.424  -1.261  -2.474  0.00  0.00    +0.029 A 
BRANCH  19  25
ATOM     25  S   UNL     1       1.367  -0.841  -0.731  0.00  0.00    +0.061 S 
ATOM     26  O   UNL     1       2.333  -0.033  -0.072  0.00  0.00    -0.153 OA
ATOM     27  O   UNL     1       0.555  -1.776  -0.035  0.00  0.00    -0.153 OA
BRANCH  25  33
ATOM     28  C   UNL     1       0.839   3.203  -3.753  0.00  0.00    +0.009 C 
ATOM     29  C   UNL     1       0.517   1.756  -3.376  0.00  0.00    +0.002 C 
ATOM     30  C   UNL     1      -0.953   1.463  -3.685  0.00  0.00    +0.009 C 
ATOM     31  C   UNL     1      -1.268   0.005  -3.339  0.00  0.00    +0.002 C 
ATOM     32  C   UNL     1      -1.033  -0.222  -1.843  0.00  0.00    +0.112 C 
ATOM     33  N   UNL     1       0.336   0.195  -1.510  0.00  0.00    -0.176 NA
ATOM     34  C   UNL     1       0.773   1.548  -1.880  0.00  0.00    +0.112 C 
ATOM     35  C   UNL     1      -2.728  -0.296  -3.680  0.00  0.00    +0.009 C 
ENDBRANCH  25  33
ENDBRANCH  19  25
ENDBRANCH   1  22
TORSDOF 5
