REMARK  Name = ZINC59398911
REMARK  10 active torsions:
REMARK  status: ('A' for Active; 'I' for Inactive)
REMARK    1  A    between atoms: C_1  and  C_2
REMARK    2  A    between atoms: C_2  and  O_3
REMARK    3  A    between atoms: O_3  and  C_4
REMARK    4  A    between atoms: C_6  and  C_19
REMARK    5  A    between atoms: C_9  and  O_10
REMARK    6  A    between atoms: O_10  and  C_11
REMARK    7  A    between atoms: C_11  and  C_12
REMARK    8  A    between atoms: N_30  and  C_31
REMARK    9  A    between atoms: C_33  and  C_38
REMARK   10  A    between atoms: C_35  and  C_37
REMARK                            x       y       z     vdW  Elec       q    Type
REMARK                         _______ _______ _______ _____ _____    ______ ____
ROOT
ATOM      1  C   UNL     1      -0.207  -4.947   0.417  0.00  0.00    +0.198 C 
ATOM      2  N   UNL     1      -1.339  -4.287   1.077  0.00  0.00    -0.321 N 
ATOM      3  C   UNL     1      -2.571  -4.269   0.433  0.00  0.00    +0.041 A 
ATOM      4  C   UNL     1      -3.485  -3.248   0.636  0.00  0.00    +0.024 A 
ATOM      5  C   UNL     1      -4.701  -3.279  -0.018  0.00  0.00    +0.002 A 
ATOM      6  C   UNL     1      -5.014  -4.322  -0.875  0.00  0.00    +0.001 A 
ATOM      7  C   UNL     1      -4.114  -5.344  -1.092  0.00  0.00    +0.015 A 
ATOM      8  C   UNL     1      -2.881  -5.324  -0.443  0.00  0.00    +0.058 A 
ATOM      9  C   UNL     1      -1.876  -6.379  -0.660  0.00  0.00    +0.254 C 
ATOM     10  O   UNL     1      -2.167  -7.386  -1.277  0.00  0.00    -0.270 OA
ATOM     11  N   UNL     1      -0.635  -6.217  -0.170  0.00  0.00    -0.244 N 
ATOM     12  H   UNL     1      -1.230  -3.872   1.947  0.00  0.00    +0.148 HD
ENDROOT
BRANCH  11  13
ATOM     13  C   UNL     1       0.265  -7.286  -0.225  0.00  0.00    +0.039 A 
ATOM     14  C   UNL     1       0.834  -7.778   0.943  0.00  0.00    +0.027 A 
ATOM     15  C   UNL     1       1.722  -8.834   0.885  0.00  0.00    -0.048 A 
ATOM     16  C   UNL     1       2.045  -9.402  -0.334  0.00  0.00    +0.006 A 
ATOM     17  C   UNL     1       1.481  -8.914  -1.498  0.00  0.00    -0.048 A 
ATOM     18  C   UNL     1       0.588  -7.862  -1.447  0.00  0.00    +0.027 A 
ATOM     19  C   UNL     1       1.836  -9.535  -2.824  0.00  0.00    +0.044 C 
ATOM     20  C   UNL     1       2.339  -9.368   2.152  0.00  0.00    +0.044 C 
ENDBRANCH  11  13
BRANCH   1  23
ATOM     21  C   UNL     1       0.716  -1.851  -1.543  0.00  0.00    +0.162 A 
ATOM     22  C   UNL     1       0.224  -2.677  -0.545  0.00  0.00    +0.056 A 
ATOM     23  C   UNL     1       0.329  -4.050  -0.669  0.00  0.00    -0.005 A 
ATOM     24  C   UNL     1       0.925  -4.602  -1.788  0.00  0.00    +0.011 A 
ATOM     25  C   UNL     1       1.418  -3.784  -2.787  0.00  0.00    +0.050 A 
ATOM     26  C   UNL     1       1.310  -2.408  -2.671  0.00  0.00    +0.162 A 
BRANCH  21  27
ATOM     27  O   UNL     1       0.613  -0.501  -1.422  0.00  0.00    -0.489 OA
BRANCH  27  29
ATOM     28  C   UNL     1      -0.034   1.528  -0.280  0.00  0.00    +0.048 C 
ATOM     29  C   UNL     1      -0.009  -0.001  -0.236  0.00  0.00    +0.226 C 
ENDBRANCH  27  29
ENDBRANCH  21  27
BRANCH  26  30
ATOM     30  O   UNL     1       1.790  -1.601  -3.656  0.00  0.00    -0.484 OA
BRANCH  30  31
ATOM     31  C   UNL     1       2.387  -2.242  -4.785  0.00  0.00    +0.266 C 
BRANCH  31  32
ATOM     32  C   UNL     1       2.857  -1.197  -5.765  0.00  0.00    +0.008 A 
ATOM     33  C   UNL     1       2.678   0.144  -5.484  0.00  0.00    +0.008 A 
ATOM     34  C   UNL     1       3.109   1.103  -6.382  0.00  0.00    +0.000 A 
ATOM     35  C   UNL     1       3.718   0.720  -7.562  0.00  0.00    +0.001 A 
ATOM     36  C   UNL     1       3.897  -0.621  -7.845  0.00  0.00    +0.020 A 
ATOM     37  C   UNL     1       3.471  -1.581  -6.943  0.00  0.00    +0.047 A 
ATOM     38 CL   UNL     1       3.701  -3.265  -7.295  0.00  0.00    -0.083 Cl
ENDBRANCH  31  32
ENDBRANCH  30  31
ENDBRANCH  26  30
ENDBRANCH   1  23
TORSDOF 7
