REMARK  Name = ZINC03597787
REMARK  5 active torsions:
REMARK  status: ('A' for Active; 'I' for Inactive)
REMARK    1  A    between atoms: C_3  and  C_9
REMARK    2  A    between atoms: C_12  and  S_20
REMARK    3  A    between atoms: N_13  and  C_14
REMARK    4  A    between atoms: S_20  and  C_21
REMARK    5  A    between atoms: C_21  and  C_22
REMARK                            x       y       z     vdW  Elec       q    Type
REMARK                         _______ _______ _______ _____ _____    ______ ____
ROOT
ATOM      1  C   UNL     1       4.315   5.845  -0.088  0.00  0.00    +0.167 A 
ATOM      2  N   UNL     1       4.686   4.598   0.081  0.00  0.00    -0.128 NA
ATOM      3  N   UNL     1       3.653   3.835   0.130  0.00  0.00    -0.122 NA
ATOM      4  C   UNL     1       2.558   4.549  -0.005  0.00  0.00    +0.193 A 
ATOM      5  N   UNL     1       2.940   5.852  -0.154  0.00  0.00    -0.299 N 
ENDROOT
BRANCH   1   8
ATOM      6  C   UNL     1       5.780   9.260   0.455  0.00  0.00    +0.021 A 
ATOM      7  C   UNL     1       4.945   8.166   0.558  0.00  0.00    +0.014 A 
ATOM      8  C   UNL     1       5.205   7.020  -0.195  0.00  0.00    +0.038 A 
ATOM      9  C   UNL     1       6.313   6.986  -1.044  0.00  0.00    +0.053 A 
ATOM     10  C   UNL     1       7.138   8.089  -1.143  0.00  0.00    +0.040 A 
ATOM     11  C   UNL     1       6.874   9.223  -0.394  0.00  0.00    +0.042 A 
ATOM     12 CL   UNL     1       7.919  10.603  -0.517  0.00  0.00    -0.083 Cl
ATOM     13 CL   UNL     1       6.649   5.562  -1.979  0.00  0.00    -0.083 Cl
ENDBRANCH   1   8
BRANCH   5  14
ATOM     14  C   UNL     1       2.069   7.015  -0.342  0.00  0.00    +0.091 C 
ATOM     15  C   UNL     1       1.140   7.156   0.866  0.00  0.00    +0.025 C 
ATOM     16  C   UNL     1       0.230   8.370   0.669  0.00  0.00    +0.002 C 
ATOM     17  C   UNL     1      -0.607   8.181  -0.598  0.00  0.00    +0.000 C 
ATOM     18  C   UNL     1       0.323   8.040  -1.806  0.00  0.00    +0.002 C 
ATOM     19  C   UNL     1       1.233   6.826  -1.609  0.00  0.00    +0.025 C 
ENDBRANCH   5  14
BRANCH   4  20
ATOM     20  S   UNL     1       0.905   3.939  -0.001  0.00  0.00    -0.077 S 
BRANCH  20  21
ATOM     21  C   UNL     1       1.223   2.172   0.230  0.00  0.00    +0.173 C 
BRANCH  21  22
ATOM     22  C   UNL     1      -0.087   1.427   0.265  0.00  0.00    +0.231 C 
ATOM     23  O   UNL     1      -1.131   2.030   0.140  0.00  0.00    -0.274 OA
ATOM     24  N   UNL     1      -0.096   0.089   0.429  0.00  0.00    -0.240 N 
ATOM     25  C   UNL     1      -1.267  -0.578   0.460  0.00  0.00    +0.303 C 
ATOM     26  O   UNL     1      -2.314   0.028   0.341  0.00  0.00    -0.253 OA
ATOM     27  N   UNL     1      -1.277  -1.915   0.625  0.00  0.00    -0.313 N 
ATOM     28  H   UNL     1       0.740  -0.394   0.525  0.00  0.00    +0.159 HD
ATOM     29  H   UNL     1      -0.441  -2.398   0.720  0.00  0.00    +0.146 HD
ATOM     30  H   UNL     1      -2.120  -2.395   0.647  0.00  0.00    +0.146 HD
ENDBRANCH  21  22
ENDBRANCH  20  21
ENDBRANCH   4  20
TORSDOF 5
