REMARK  Name = ZINC36558772
REMARK  11 active torsions:
REMARK  status: ('A' for Active; 'I' for Inactive)
REMARK    1  A    between atoms: C_1  and  C_2
REMARK    2  A    between atoms: C_5  and  C_7
REMARK    3  A    between atoms: C_7  and  N_8
REMARK    4  A    between atoms: N_8  and  C_9
REMARK    5  A    between atoms: C_9  and  C_11
REMARK    6  A    between atoms: C_9  and  C_20
REMARK    7  A    between atoms: C_12  and  O_19
REMARK    8  A    between atoms: C_14  and  O_18
REMARK    9  A    between atoms: C_16  and  O_17
REMARK   10  A    between atoms: N_22  and  C_23
REMARK   11  A    between atoms: C_29  and  C_31
REMARK                            x       y       z     vdW  Elec       q    Type
REMARK                         _______ _______ _______ _____ _____    ______ ____
ROOT
ATOM      1  C   UNL     1       3.348  -2.820  -2.823  0.00  0.00    +0.200 C 
ENDROOT
BRANCH   1   2
ATOM      2  C   UNL     1       3.159  -1.408  -3.316  0.00  0.00    +0.065 A 
ATOM      3  C   UNL     1       2.874  -0.392  -2.417  0.00  0.00    +0.129 A 
ATOM      4  C   UNL     1       2.700   0.907  -2.870  0.00  0.00    +0.091 A 
ATOM      5  C   UNL     1       2.812   1.190  -4.223  0.00  0.00    +0.124 A 
ATOM      6  C   UNL     1       3.098   0.174  -5.123  0.00  0.00    +0.091 A 
ATOM      7  C   UNL     1       3.276  -1.125  -4.668  0.00  0.00    +0.129 A 
BRANCH   7   8
ATOM      8  O   UNL     1       3.561  -2.119  -5.549  0.00  0.00    -0.506 OA
ATOM      9  H   UNL     1       2.780  -2.560  -5.911  0.00  0.00    +0.292 HD
ENDBRANCH   7   8
BRANCH   5  10
ATOM     10  O   UNL     1       2.640   2.462  -4.668  0.00  0.00    -0.507 OA
ATOM     11  H   UNL     1       3.455   2.983  -4.694  0.00  0.00    +0.292 HD
ENDBRANCH   5  10
BRANCH   3  12
ATOM     12  O   UNL     1       2.764  -0.669  -1.091  0.00  0.00    -0.506 OA
ATOM     13  H   UNL     1       3.576  -0.516  -0.589  0.00  0.00    +0.292 HD
ENDBRANCH   3  12
ENDBRANCH   1   2
BRANCH   1  14
ATOM     14  C   UNL     1       3.865  -2.792  -1.408  0.00  0.00    +0.239 C 
ATOM     15  O   UNL     1       3.225  -3.312  -0.518  0.00  0.00    -0.273 OA
ATOM     16  N   UNL     1       5.039  -2.191  -1.131  0.00  0.00    -0.311 N 
ATOM     17  H   UNL     1       5.551  -1.775  -1.842  0.00  0.00    +0.149 HD
BRANCH  16  18
ATOM     18  C   UNL     1       5.542  -2.164   0.245  0.00  0.00    +0.073 C 
ATOM     19  C   UNL     1       4.926  -0.978   0.990  0.00  0.00    +0.022 C 
ATOM     20  C   UNL     1       5.451  -0.951   2.427  0.00  0.00    +0.002 C 
ATOM     21  C   UNL     1       6.974  -0.807   2.411  0.00  0.00    +0.000 C 
ATOM     22  C   UNL     1       7.590  -1.993   1.665  0.00  0.00    +0.002 C 
ATOM     23  C   UNL     1       7.065  -2.021   0.229  0.00  0.00    +0.022 C 
ENDBRANCH  16  18
ENDBRANCH   1  14
BRANCH   1  24
ATOM     24  N   UNL     1       2.065  -3.526  -2.861  0.00  0.00    -0.274 N 
ATOM     25  C   UNL     1       2.022  -4.827  -3.211  0.00  0.00    +0.248 C 
ATOM     26  O   UNL     1       0.951  -5.386  -3.340  0.00  0.00    -0.270 OA
BRANCH  25  27
ATOM     27  C   UNL     1       3.277  -5.573  -3.437  0.00  0.00    +0.037 A 
ATOM     28  C   UNL     1       4.476  -5.111  -2.890  0.00  0.00    +0.014 A 
ATOM     29  C   UNL     1       5.644  -5.811  -3.104  0.00  0.00    +0.021 A 
ATOM     30  C   UNL     1       5.630  -6.972  -3.860  0.00  0.00    +0.041 A 
ATOM     31  C   UNL     1       4.444  -7.436  -4.404  0.00  0.00    +0.021 A 
ATOM     32  C   UNL     1       3.269  -6.747  -4.193  0.00  0.00    +0.014 A 
ATOM     33 CL   UNL     1       7.105  -7.849  -4.125  0.00  0.00    -0.084 Cl
ENDBRANCH  25  27
BRANCH  24  34
ATOM     34  C   UNL     1       0.829  -2.818  -2.518  0.00  0.00    +0.183 C 
BRANCH  34  39
ATOM     35  C   UNL     1       0.373   0.541  -6.253  0.00  0.00    +0.086 C 
ATOM     36  C   UNL     1       0.106  -0.644  -5.361  0.00  0.00    +0.102 A 
ATOM     37  C   UNL     1      -0.902  -1.524  -5.503  0.00  0.00    +0.045 A 
ATOM     38  C   UNL     1      -0.774  -2.465  -4.456  0.00  0.00    +0.046 A 
ATOM     39  C   UNL     1       0.304  -2.105  -3.737  0.00  0.00    +0.122 A 
ATOM     40  O   UNL     1       0.837  -1.004  -4.293  0.00  0.00    -0.463 OA
ENDBRANCH  34  39
ENDBRANCH  24  34
ENDBRANCH   1  24
TORSDOF 10
