REMARK  Name = ZINC34793150
REMARK  5 active torsions:
REMARK  status: ('A' for Active; 'I' for Inactive)
REMARK    1  A    between atoms: C_1  and  C_2
REMARK    2  A    between atoms: C_4  and  C_37
REMARK    3  A    between atoms: N_21  and  C_24
REMARK    4  A    between atoms: C_27  and  N_31
REMARK    5  A    between atoms: C_29  and  C_30
REMARK                            x       y       z     vdW  Elec       q    Type
REMARK                         _______ _______ _______ _____ _____    ______ ____
ROOT
ATOM      1  C   UNL     1       0.032   1.560   0.081  0.00  0.00    +0.044 C 
ATOM      2  C   UNL     1       0.059   0.054   0.051  0.00  0.00    -0.050 A 
ATOM      3  C   UNL     1      -0.017  -0.617  -1.156  0.00  0.00    +0.008 A 
ATOM      4  C   UNL     1       0.009  -1.996  -1.189  0.00  0.00    -0.029 A 
ATOM      5  C   UNL     1       0.111  -2.723  -0.005  0.00  0.00    +0.042 A 
ATOM      6  C   UNL     1       0.185  -2.038   1.203  0.00  0.00    +0.004 A 
ATOM      7  C   UNL     1       0.166  -0.661   1.231  0.00  0.00    +0.011 A 
ATOM      8  C   UNL     1       0.280  -3.092   2.270  0.00  0.00    +0.138 C 
ATOM      9  C   UNL     1      -0.888  -2.993   3.258  0.00  0.00    +0.123 C 
ATOM     10  C   UNL     1      -0.307  -2.229   4.479  0.00  0.00    +0.107 C 
ATOM     11  C   UNL     1       1.165  -1.953   4.119  0.00  0.00    +0.071 C 
ATOM     12  N   UNL     1       1.510  -2.949   3.067  0.00  0.00    -0.281 NA
ATOM     13  C   UNL     1       1.767  -4.198   3.822  0.00  0.00    +0.086 C 
ATOM     14  C   UNL     1       2.476  -3.750   5.117  0.00  0.00    +0.017 C 
ATOM     15  C   UNL     1       2.055  -2.271   5.334  0.00  0.00    +0.021 C 
ATOM     16  C   UNL     1      -1.087  -0.935   4.486  0.00  0.00    +0.232 C 
ATOM     17  O   UNL     1      -0.946  -0.035   5.287  0.00  0.00    -0.274 OA
ATOM     18  N   UNL     1      -1.959  -0.936   3.471  0.00  0.00    -0.210 N 
ATOM     19  C   UNL     1      -1.941  -2.055   2.711  0.00  0.00    +0.233 C 
ATOM     20  O   UNL     1      -2.644  -2.276   1.749  0.00  0.00    -0.274 OA
ATOM     21  C   UNL     1       0.256  -4.401   1.527  0.00  0.00    +0.243 C 
ATOM     22  O   UNL     1       0.315  -5.511   2.013  0.00  0.00    -0.273 OA
ATOM     23  N   UNL     1       0.158  -4.101   0.217  0.00  0.00    -0.283 N 
ATOM     24  C   UNL     1      -0.074  -2.717  -2.509  0.00  0.00    +0.045 C 
ATOM     25  H   UNL     1       0.123  -4.765  -0.489  0.00  0.00    +0.155 HD
ENDROOT
BRANCH  18  26
ATOM     26  C   UNL     1      -2.828   0.134   3.216  0.00  0.00    +0.047 A 
ATOM     27  C   UNL     1      -2.486   1.099   2.279  0.00  0.00    +0.026 A 
ATOM     28  C   UNL     1      -3.345   2.152   2.030  0.00  0.00    +0.034 A 
ATOM     29  C   UNL     1      -4.543   2.245   2.714  0.00  0.00    +0.127 A 
ATOM     30  C   UNL     1      -4.886   1.285   3.648  0.00  0.00    +0.038 A 
ATOM     31  C   UNL     1      -4.035   0.227   3.896  0.00  0.00    -0.026 A 
ATOM     32  C   UNL     1      -4.412  -0.823   4.910  0.00  0.00    +0.046 C 
BRANCH  29  33
ATOM     33  N   UNL     1      -5.461   3.376   2.445  0.00  0.00    +0.056 N 
ATOM     34  O   UNL     1      -5.162   4.216   1.629  0.00  0.00    -0.126 OA
ATOM     35  O   UNL     1      -6.509   3.458   3.042  0.00  0.00    -0.126 OA
ENDBRANCH  29  33
ENDBRANCH  18  26
TORSDOF 2
