REMARK  Name = ZINC39325423
REMARK  9 active torsions:
REMARK  status: ('A' for Active; 'I' for Inactive)
REMARK    1  A    between atoms: C_1  and  C_2
REMARK    2  A    between atoms: C_9  and  C_14
REMARK    3  A    between atoms: C_14  and  N_15
REMARK    4  A    between atoms: N_15  and  C_16
REMARK    5  A    between atoms: N_15  and  S_25
REMARK    6  A    between atoms: C_16  and  C_17
REMARK    7  A    between atoms: C_20  and  O_23
REMARK    8  A    between atoms: O_23  and  C_24
REMARK    9  A    between atoms: S_25  and  C_28
REMARK                            x       y       z     vdW  Elec       q    Type
REMARK                         _______ _______ _______ _____ _____    ______ ____
ROOT
ATOM      1  N   UNL     1       1.287  -6.490   2.939  0.00  0.00    -0.171 NA
ENDROOT
BRANCH   1   2
ATOM      2  S   UNL     1       0.541  -7.269   4.195  0.00  0.00    +0.063 S 
ATOM      3  O   UNL     1       1.105  -8.572   4.258  0.00  0.00    -0.153 OA
ATOM      4  O   UNL     1       0.564  -6.375   5.299  0.00  0.00    -0.153 OA
BRANCH   2   5
ATOM      5  C   UNL     1      -1.152  -7.474   3.749  0.00  0.00    +0.134 A 
ATOM      6  C   UNL     1      -1.652  -8.716   3.548  0.00  0.00    +0.031 A 
ATOM      7  C   UNL     1      -2.986  -8.916   3.195  0.00  0.00    +0.004 A 
ATOM      8  C   UNL     1      -3.839  -7.877   3.037  0.00  0.00    +0.031 A 
ATOM      9  C   UNL     1      -3.384  -6.544   3.231  0.00  0.00    +0.102 A 
ATOM     10  C   UNL     1      -1.990  -6.336   3.606  0.00  0.00    +0.126 A 
ATOM     11  N   UNL     1      -1.677  -5.049   3.767  0.00  0.00    -0.189 NA
ATOM     12  S   UNL     1      -3.032  -4.233   3.472  0.00  0.00    +0.117 S 
ATOM     13  N   UNL     1      -4.073  -5.408   3.120  0.00  0.00    -0.191 NA
ENDBRANCH   2   5
ENDBRANCH   1   2
BRANCH   1  14
ATOM     14  C   UNL     1       1.492  -5.041   2.994  0.00  0.00    +0.126 C 
BRANCH  14  23
ATOM     15  C   UNL     1       4.487   1.056   5.199  0.00  0.00    +0.044 C 
ATOM     16  C   UNL     1       4.218  -0.423   5.297  0.00  0.00    -0.050 A 
ATOM     17  C   UNL     1       4.371  -1.066   6.525  0.00  0.00    +0.005 A 
ATOM     18  C   UNL     1       4.146  -2.396   6.690  0.00  0.00    +0.024 A 
ATOM     19  C   UNL     1       3.741  -3.192   5.603  0.00  0.00    +0.040 A 
ATOM     20  N   UNL     1       3.523  -4.495   5.777  0.00  0.00    -0.284 N 
ATOM     21  C   UNL     1       3.141  -5.300   4.799  0.00  0.00    +0.225 C 
ATOM     22  O   UNL     1       2.957  -6.482   5.018  0.00  0.00    -0.275 OA
ATOM     23  C   UNL     1       2.935  -4.745   3.408  0.00  0.00    +0.114 C 
ATOM     24  C   UNL     1       3.181  -3.263   3.205  0.00  0.00    -0.003 C 
ATOM     25  C   UNL     1       3.571  -2.539   4.293  0.00  0.00    -0.007 A 
ATOM     26  C   UNL     1       3.826  -1.102   4.188  0.00  0.00    +0.012 A 
ATOM     27  H   UNL     1       3.650  -4.871   6.662  0.00  0.00    +0.155 HD
ENDBRANCH  14  23
ENDBRANCH   1  14
BRANCH   1  28
ATOM     28  C   UNL     1       1.743  -7.251   1.772  0.00  0.00    +0.144 C 
BRANCH  28  29
ATOM     29  C   UNL     1       3.186  -7.641   1.960  0.00  0.00    -0.031 A 
ATOM     30  C   UNL     1       4.192  -6.800   1.522  0.00  0.00    +0.008 A 
ATOM     31  C   UNL     1       5.516  -7.156   1.693  0.00  0.00    +0.046 A 
ATOM     32  C   UNL     1       5.836  -8.359   2.305  0.00  0.00    +0.120 A 
ATOM     33  C   UNL     1       4.825  -9.202   2.744  0.00  0.00    +0.046 A 
ATOM     34  C   UNL     1       3.503  -8.839   2.575  0.00  0.00    +0.008 A 
BRANCH  32  35
ATOM     35  O   UNL     1       7.137  -8.712   2.474  0.00  0.00    -0.495 OA
ATOM     36  C   UNL     1       7.392  -9.965   3.111  0.00  0.00    +0.277 C 
ENDBRANCH  32  35
ENDBRANCH  28  29
ENDBRANCH   1  28
TORSDOF 7
