REMARK  Name = ZINC16037698
REMARK  4 active torsions:
REMARK  status: ('A' for Active; 'I' for Inactive)
REMARK    1  A    between atoms: C_4  and  N_7
REMARK    2  A    between atoms: C_12  and  C_14
REMARK    3  A    between atoms: C_17  and  N_20
REMARK    4  A    between atoms: N_25  and  C_28
REMARK                            x       y       z     vdW  Elec       q    Type
REMARK                         _______ _______ _______ _____ _____    ______ ____
ROOT
ATOM      1  N   UNL     1       3.617  -0.654  -0.024  0.00  0.00    -0.237 N 
ATOM      2  C   UNL     1       3.909  -2.093   0.055  0.00  0.00    +0.217 C 
ATOM      3  C   UNL     1       5.000  -2.210  -1.016  0.00  0.00    +0.069 C 
ATOM      4  H   UNL     1       5.313   0.637   0.293  0.00  0.00    +0.170 HD
ATOM      5  C   UNL     1       5.618  -0.999  -1.005  0.00  0.00    +0.062 C 
ATOM      6  N   UNL     1       4.948  -0.149  -0.144  0.00  0.00    -0.262 N 
ATOM      7  C   UNL     1       4.742  -3.451  -1.605  0.00  0.00    +0.257 C 
ATOM      8  O   UNL     1       5.548  -4.101  -2.246  0.00  0.00    -0.269 OA
ATOM      9  N   UNL     1       3.473  -3.823  -1.359  0.00  0.00    -0.205 N 
ATOM     10  C   UNL     1       2.843  -3.009  -0.465  0.00  0.00    +0.253 C 
ATOM     11  O   UNL     1       1.671  -3.016  -0.155  0.00  0.00    -0.272 OA
ENDROOT
BRANCH   9  12
ATOM     12  C   UNL     1       2.861  -4.936  -1.954  0.00  0.00    +0.044 A 
ATOM     13  C   UNL     1       1.512  -5.184  -1.742  0.00  0.00    +0.027 A 
ATOM     14  C   UNL     1       0.912  -6.281  -2.329  0.00  0.00    +0.040 A 
ATOM     15  C   UNL     1       1.655  -7.133  -3.128  0.00  0.00    +0.124 A 
ATOM     16  C   UNL     1       3.001  -6.888  -3.340  0.00  0.00    +0.040 A 
ATOM     17  C   UNL     1       3.604  -5.789  -2.759  0.00  0.00    +0.027 A 
ATOM     18  F   UNL     1       1.066  -8.206  -3.701  0.00  0.00    -0.205 F 
ENDBRANCH   9  12
BRANCH   1  22
ATOM     19  C   UNL     1      -0.027   1.359   0.060  0.00  0.00    +0.000 A 
ATOM     20  C   UNL     1       0.239   0.375   0.995  0.00  0.00    +0.002 A 
ATOM     21  C   UNL     1       1.447  -0.294   0.970  0.00  0.00    +0.025 A 
ATOM     22  C   UNL     1       2.394   0.021   0.004  0.00  0.00    +0.049 A 
ATOM     23  C   UNL     1       2.123   1.010  -0.934  0.00  0.00    +0.025 A 
ATOM     24  C   UNL     1       0.914   1.675  -0.903  0.00  0.00    +0.002 A 
ENDBRANCH   1  22
BRANCH   5  25
ATOM     25  C   UNL     1       6.816  -0.645  -1.793  0.00  0.00    -0.002 A 
ATOM     26  C   UNL     1       7.402  -1.588  -2.641  0.00  0.00    +0.012 A 
ATOM     27  C   UNL     1       8.521  -1.250  -3.374  0.00  0.00    +0.033 A 
ATOM     28  C   UNL     1       9.062   0.019  -3.271  0.00  0.00    +0.126 A 
ATOM     29  C   UNL     1       8.487   0.958  -2.433  0.00  0.00    +0.033 A 
ATOM     30  C   UNL     1       7.364   0.636  -1.699  0.00  0.00    +0.012 A 
BRANCH  28  31
ATOM     31  N   UNL     1      10.263   0.374  -4.061  0.00  0.00    +0.056 N 
ATOM     32  O   UNL     1      10.768  -0.445  -4.794  0.00  0.00    -0.126 OA
ATOM     33  O   UNL     1      10.738   1.482  -3.974  0.00  0.00    -0.126 OA
ENDBRANCH  28  31
ENDBRANCH   5  25
TORSDOF 4
