REMARK  Name = ZINC35964055
REMARK  7 active torsions:
REMARK  status: ('A' for Active; 'I' for Inactive)
REMARK    1  A    between atoms: C_1  and  C_2
REMARK    2  A    between atoms: C_2  and  N_3
REMARK    3  A    between atoms: N_6  and  C_7
REMARK    4  A    between atoms: N_6  and  C_8
REMARK    5  A    between atoms: C_8  and  C_9
REMARK    6  A    between atoms: C_12  and  C_24
REMARK    7  A    between atoms: C_15  and  C_17
REMARK                            x       y       z     vdW  Elec       q    Type
REMARK                         _______ _______ _______ _____ _____    ______ ____
ROOT
ATOM      1  C   UNL     1       2.938  -4.173   2.062  0.00  0.00    +0.253 C 
ATOM      2  O   UNL     1       3.648  -3.385   1.474  0.00  0.00    -0.272 OA
ATOM      3  N   UNL     1       3.291  -5.471   2.139  0.00  0.00    -0.184 N 
ATOM      4  C   UNL     1       4.508  -6.063   1.561  0.00  0.00    +0.137 C 
ATOM      5  C   UNL     1       4.403  -7.553   1.944  0.00  0.00    +0.087 C 
ATOM      6  C   UNL     1       3.106  -7.639   2.716  0.00  0.00    +0.072 C 
ATOM      7  N   UNL     1       2.566  -6.472   2.783  0.00  0.00    -0.181 NA
ENDROOT
BRANCH   4   8
ATOM      8  C   UNL     1       4.519  -5.897   0.063  0.00  0.00    -0.021 A 
ATOM      9  C   UNL     1       3.344  -6.028  -0.654  0.00  0.00    +0.009 A 
ATOM     10  C   UNL     1       3.349  -5.876  -2.028  0.00  0.00    +0.050 A 
ATOM     11  C   UNL     1       4.532  -5.593  -2.690  0.00  0.00    +0.166 A 
ATOM     12  C   UNL     1       5.715  -5.461  -1.968  0.00  0.00    +0.167 A 
ATOM     13  C   UNL     1       5.702  -5.609  -0.591  0.00  0.00    +0.055 A 
ATOM     14  O   UNL     1       6.730  -5.186  -2.839  0.00  0.00    -0.453 OA
ATOM     15  C   UNL     1       6.231  -5.553  -4.139  0.00  0.00    +0.466 C 
ATOM     16  O   UNL     1       4.804  -5.400  -4.013  0.00  0.00    -0.453 OA
ENDBRANCH   4   8
BRANCH   6  17
ATOM     17  C   UNL     1       2.548  -8.870   3.306  0.00  0.00    +0.033 A 
ATOM     18  C   UNL     1       3.231 -10.082   3.179  0.00  0.00    +0.012 A 
ATOM     19  C   UNL     1       2.703 -11.229   3.734  0.00  0.00    +0.001 A 
ATOM     20  C   UNL     1       1.500 -11.183   4.415  0.00  0.00    +0.003 A 
ATOM     21  C   UNL     1       0.816  -9.988   4.546  0.00  0.00    +0.039 A 
ATOM     22  C   UNL     1       1.335  -8.829   4.001  0.00  0.00    +0.132 A 
ATOM     23  F   UNL     1       0.669  -7.661   4.134  0.00  0.00    -0.205 F 
ENDBRANCH   6  17
BRANCH   1  24
ATOM     24  C   UNL     1       1.661  -3.700   2.708  0.00  0.00    +0.206 C 
BRANCH  24  28
ATOM     25  N   UNL     1       0.711  -0.489   1.189  0.00  0.00    -0.300 N 
ATOM     26  C   UNL     1       0.854  -1.814   1.394  0.00  0.00    +0.302 C 
ATOM     27  O   UNL     1       0.395  -2.606   0.593  0.00  0.00    -0.253 OA
ATOM     28  N   UNL     1       1.506  -2.260   2.486  0.00  0.00    -0.280 N 
ATOM     29  C   UNL     1       2.059  -1.306   3.450  0.00  0.00    +0.134 C 
ATOM     30  H   UNL     1       1.077   0.142   1.827  0.00  0.00    +0.150 HD
BRANCH  25  32
ATOM     31  C   UNL     1      -0.019   1.526   0.010  0.00  0.00    +0.024 C 
ATOM     32  C   UNL     1       0.002  -0.004   0.002  0.00  0.00    +0.102 C 
ENDBRANCH  25  32
ENDBRANCH  24  28
ENDBRANCH   1  24
TORSDOF 5
