REMARK  Name = ZINC13506478
REMARK  10 active torsions:
REMARK  status: ('A' for Active; 'I' for Inactive)
REMARK    1  A    between atoms: C_1  and  C_2
REMARK    2  A    between atoms: C_7  and  C_8
REMARK    3  A    between atoms: C_8  and  C_10
REMARK    4  A    between atoms: C_8  and  N_19
REMARK    5  A    between atoms: N_12  and  C_13
REMARK    6  A    between atoms: N_19  and  C_20
REMARK    7  A    between atoms: C_20  and  C_21
REMARK    8  A    between atoms: C_27  and  C_29
REMARK    9  A    between atoms: C_29  and  N_30
REMARK   10  A    between atoms: C_31  and  C_33
REMARK                            x       y       z     vdW  Elec       q    Type
REMARK                         _______ _______ _______ _____ _____    ______ ____
ROOT
ATOM      1  N   UNL     1       7.882   3.540  -0.136  0.00  0.00    -0.282 N 
ATOM      2  C   UNL     1       6.811   3.890   0.603  0.00  0.00    +0.234 C 
ATOM      3  O   UNL     1       6.534   5.061   0.752  0.00  0.00    -0.274 OA
ENDROOT
BRANCH   1   4
ATOM      4  C   UNL     1       8.712   4.574  -0.759  0.00  0.00    +0.193 C 
BRANCH   4  11
ATOM      5  C   UNL     1       6.529   5.260  -2.523  0.00  0.00    +0.044 C 
ATOM      6  C   UNL     1       7.781   4.633  -3.081  0.00  0.00    -0.045 A 
ATOM      7  C   UNL     1       7.884   4.386  -4.438  0.00  0.00    +0.004 A 
ATOM      8  C   UNL     1       9.032   3.811  -4.950  0.00  0.00    +0.000 A 
ATOM      9  C   UNL     1      10.076   3.482  -4.106  0.00  0.00    +0.000 A 
ATOM     10  C   UNL     1       9.975   3.734  -2.751  0.00  0.00    +0.006 A 
ATOM     11  C   UNL     1       8.825   4.305  -2.238  0.00  0.00    -0.015 A 
ENDBRANCH   4  11
BRANCH   4  12
ATOM     12  C   UNL     1      10.086   4.557  -0.139  0.00  0.00    +0.238 C 
ATOM     13  O   UNL     1      10.405   3.652   0.602  0.00  0.00    -0.273 OA
ATOM     14  N   UNL     1      10.959   5.547  -0.409  0.00  0.00    -0.311 N 
ATOM     15  H   UNL     1      10.680   6.308  -0.942  0.00  0.00    +0.149 HD
BRANCH  14  16
ATOM     16  C   UNL     1      12.330   5.475   0.104  0.00  0.00    +0.073 C 
ATOM     17  C   UNL     1      12.370   6.026   1.530  0.00  0.00    +0.022 C 
ATOM     18  C   UNL     1      13.802   5.951   2.066  0.00  0.00    +0.002 C 
ATOM     19  C   UNL     1      14.725   6.781   1.172  0.00  0.00    +0.000 C 
ATOM     20  C   UNL     1      14.684   6.230  -0.255  0.00  0.00    +0.002 C 
ATOM     21  C   UNL     1      13.253   6.305  -0.790  0.00  0.00    +0.022 C 
ENDBRANCH  14  16
ENDBRANCH   4  12
ENDBRANCH   1   4
BRANCH   1  22
ATOM     22  C   UNL     1       8.217   2.125  -0.317  0.00  0.00    +0.140 C 
BRANCH  22  23
ATOM     23  C   UNL     1       7.596   1.616  -1.619  0.00  0.00    +0.136 C 
ATOM     24  C   UNL     1       7.967   0.136  -1.834  0.00  0.00    +0.035 C 
ATOM     25  C   UNL     1       6.602  -0.590  -1.915  0.00  0.00    +0.031 C 
ATOM     26  C   UNL     1       5.640   0.569  -2.283  0.00  0.00    +0.160 C 
ATOM     27  O   UNL     1       6.162   1.689  -1.538  0.00  0.00    -0.375 OA
ENDBRANCH  22  23
ENDBRANCH   1  22
BRANCH   2  28
ATOM     28  C   UNL     1       5.958   2.826   1.244  0.00  0.00    +0.200 C 
BRANCH  28  29
ATOM     29  N   UNL     1       4.865   3.458   1.987  0.00  0.00    -0.302 N 
ATOM     30  C   UNL     1       3.969   2.697   2.646  0.00  0.00    +0.251 C 
ATOM     31  O   UNL     1       4.068   1.484   2.623  0.00  0.00    -0.270 OA
ATOM     32  H   UNL     1       4.787   4.425   2.005  0.00  0.00    +0.150 HD
BRANCH  30  33
ATOM     33  C   UNL     1       2.876   3.330   3.390  0.00  0.00    +0.074 A 
ATOM     34  C   UNL     1       1.862   2.737   4.125  0.00  0.00    +0.021 A 
ATOM     35  C   UNL     1       0.953   3.574   4.725  0.00  0.00    +0.008 A 
ATOM     36  C   UNL     1       1.093   4.918   4.581  0.00  0.00    +0.046 A 
ATOM     37  S   UNL     1       2.504   5.064   3.584  0.00  0.00    -0.092 S 
ENDBRANCH  30  33
ENDBRANCH  28  29
ENDBRANCH   2  28
TORSDOF 9
