REMARK  Name = ZINC32109445
REMARK  3 active torsions:
REMARK  status: ('A' for Active; 'I' for Inactive)
REMARK    1  A    between atoms: C_6  and  C_7
REMARK    2  A    between atoms: C_10  and  C_12
REMARK    3  A    between atoms: C_22  and  C_24
REMARK                            x       y       z     vdW  Elec       q    Type
REMARK                         _______ _______ _______ _____ _____    ______ ____
ROOT
ATOM      1  C   UNL     1      -0.211  -5.178  -0.493  0.00  0.00    +0.063 C 
ATOM      2  C   UNL     1      -1.552  -5.150  -0.140  0.00  0.00    +0.084 C 
ATOM      3  C   UNL     1      -2.270  -3.872   0.110  0.00  0.00    +0.153 C 
ATOM      4  N   UNL     1      -1.696  -2.815   0.625  0.00  0.00    -0.283 NA
ATOM      5  N   UNL     1      -3.631  -3.910  -0.262  0.00  0.00    -0.152 N 
ATOM      6  C   UNL     1      -4.236  -5.146  -0.340  0.00  0.00    +0.181 C 
ATOM      7  N   UNL     1      -3.678  -6.319  -0.176  0.00  0.00    -0.152 NA
ATOM      8  C   UNL     1      -2.346  -6.392   0.003  0.00  0.00    +0.273 C 
ATOM      9  O   UNL     1      -1.809  -7.453   0.280  0.00  0.00    -0.268 OA
ATOM     10  S   UNL     1      -5.907  -4.718  -0.752  0.00  0.00    -0.038 S 
ATOM     11  C   UNL     1      -5.683  -2.946  -0.829  0.00  0.00    +0.103 C 
ATOM     12  N   UNL     1      -4.420  -2.814  -0.538  0.00  0.00    -0.169 NA
ATOM     13  H   UNL     1      -0.630  -2.845   0.896  0.00  0.00    +0.188 HD
ENDROOT
BRANCH  11  14
ATOM     14  C   UNL     1      -6.696  -1.877  -1.149  0.00  0.00    +0.046 C 
ATOM     15  C   UNL     1      -5.979  -0.642  -1.696  0.00  0.00    +0.010 C 
ATOM     16  C   UNL     1      -7.008   0.443  -2.021  0.00  0.00    +0.001 C 
ATOM     17  C   UNL     1      -7.772   0.818  -0.750  0.00  0.00    +0.000 C 
ATOM     18  C   UNL     1      -8.489  -0.418  -0.202  0.00  0.00    +0.001 C 
ATOM     19  C   UNL     1      -7.460  -1.502   0.122  0.00  0.00    +0.010 C 
ENDBRANCH  11  14
BRANCH   1  23
ATOM     20  C   UNL     1       0.658  -2.018  -1.877  0.00  0.00    +0.136 A 
ATOM     21  C   UNL     1       1.909  -2.598  -1.831  0.00  0.00    +0.050 A 
ATOM     22  C   UNL     1       1.748  -3.876  -1.299  0.00  0.00    +0.050 A 
ATOM     23  C   UNL     1       0.395  -4.034  -1.037  0.00  0.00    +0.129 A 
ATOM     24  O   UNL     1      -0.238  -2.894  -1.391  0.00  0.00    -0.455 OA
BRANCH  20  30
ATOM     25  C   UNL     1      -0.960  -0.191  -2.367  0.00  0.00    +0.014 A 
ATOM     26  C   UNL     1      -1.237   1.077  -2.831  0.00  0.00    +0.039 A 
ATOM     27  C   UNL     1      -0.213   1.885  -3.303  0.00  0.00    +0.123 A 
ATOM     28  C   UNL     1       1.094   1.422  -3.311  0.00  0.00    +0.039 A 
ATOM     29  C   UNL     1       1.383   0.156  -2.849  0.00  0.00    +0.014 A 
ATOM     30  C   UNL     1       0.356  -0.662  -2.372  0.00  0.00    +0.017 A 
ATOM     31  F   UNL     1      -0.490   3.126  -3.756  0.00  0.00    -0.205 F 
ENDBRANCH  20  30
ENDBRANCH   1  23
TORSDOF 3
