REMARK  Name = ZINC39836499
REMARK  12 active torsions:
REMARK  status: ('A' for Active; 'I' for Inactive)
REMARK    1  A    between atoms: C_1  and  C_2
REMARK    2  A    between atoms: C_2  and  C_3
REMARK    3  A    between atoms: C_2  and  O_4
REMARK    4  A    between atoms: O_4  and  C_5
REMARK    5  A    between atoms: C_8  and  C_11
REMARK    6  A    between atoms: N_13  and  C_14
REMARK    7  A    between atoms: C_15  and  C_28
REMARK    8  A    between atoms: C_20  and  C_24
REMARK    9  A    between atoms: C_24  and  C_25
REMARK   10  A    between atoms: C_24  and  C_26
REMARK   11  A    between atoms: C_24  and  C_27
REMARK   12  A    between atoms: N_30  and  C_31
REMARK                            x       y       z     vdW  Elec       q    Type
REMARK                         _______ _______ _______ _____ _____    ______ ____
ROOT
ATOM      1  C   UNL     1      -5.861  -1.411  -6.216  0.00  0.00    +0.085 A 
ATOM      2  C   UNL     1      -7.181  -1.759  -6.461  0.00  0.00    +0.069 A 
ATOM      3  C   UNL     1      -7.609  -1.803  -7.848  0.00  0.00    -0.023 A 
ATOM      4  C   UNL     1      -6.641  -1.492  -8.736  0.00  0.00    -0.004 A 
ATOM      5  S   UNL     1      -5.217  -1.147  -7.745  0.00  0.00    -0.077 S 
ATOM      6  C   UNL     1      -6.768  -1.449 -10.227  0.00  0.00    +0.046 C 
ATOM      7  C   UNL     1      -8.061  -2.178 -10.622  0.00  0.00    -0.000 C 
ATOM      8  C   UNL     1      -9.205  -1.668  -9.741  0.00  0.00    +0.009 C 
ATOM      9  C   UNL     1      -9.016  -2.161  -8.305  0.00  0.00    +0.037 C 
ENDROOT
BRANCH   1  12
ATOM     10  C   UNL     1      -3.923  -0.944  -4.939  0.00  0.00    +0.249 C 
ATOM     11  O   UNL     1      -3.313  -0.717  -5.966  0.00  0.00    -0.270 OA
ATOM     12  N   UNL     1      -5.222  -1.302  -4.992  0.00  0.00    -0.275 N 
ATOM     13  H   UNL     1      -5.708  -1.482  -4.173  0.00  0.00    +0.156 HD
BRANCH  10  17
ATOM     14  C   UNL     1      -1.964  -0.607  -1.187  0.00  0.00    +0.121 A 
ATOM     15  C   UNL     1      -1.265  -0.348  -2.360  0.00  0.00    +0.046 A 
ATOM     16  C   UNL     1      -1.896  -0.456  -3.579  0.00  0.00    +0.016 A 
ATOM     17  C   UNL     1      -3.243  -0.827  -3.636  0.00  0.00    +0.037 A 
ATOM     18  C   UNL     1      -3.942  -1.086  -2.454  0.00  0.00    +0.016 A 
ATOM     19  C   UNL     1      -3.302  -0.981  -1.240  0.00  0.00    +0.046 A 
BRANCH  14  20
ATOM     20  O   UNL     1      -1.339  -0.499   0.012  0.00  0.00    -0.489 OA
BRANCH  20  22
ATOM     21  C   UNL     1       0.290   1.280  -0.135  0.00  0.00    +0.051 C 
ATOM     22  C   UNL     1       0.064  -0.228  -0.010  0.00  0.00    +0.167 C 
ATOM     23  C   UNL     1       0.703  -0.734   1.285  0.00  0.00    +0.051 C 
ENDBRANCH  20  22
ENDBRANCH  14  20
ENDBRANCH  10  17
ENDBRANCH   1  12
BRANCH   7  24
ATOM     24  C   UNL     1      -8.378  -1.897 -12.092  0.00  0.00    -0.035 C 
ATOM     25  C   UNL     1      -7.226  -2.396 -12.967  0.00  0.00    +0.011 C 
ATOM     26  C   UNL     1      -9.667  -2.624 -12.483  0.00  0.00    +0.011 C 
ATOM     27  C   UNL     1      -8.559  -0.392 -12.297  0.00  0.00    +0.011 C 
ENDBRANCH   7  24
BRANCH   2  28
ATOM     28  C   UNL     1      -8.104  -2.069  -5.365  0.00  0.00    +0.247 C 
ATOM     29  O   UNL     1      -8.765  -1.182  -4.857  0.00  0.00    -0.270 OA
ATOM     30  N   UNL     1      -8.221  -3.336  -4.921  0.00  0.00    -0.307 N 
ATOM     31  H   UNL     1      -7.695  -4.043  -5.327  0.00  0.00    +0.149 HD
BRANCH  30  32
ATOM     32  C   UNL     1      -9.144  -3.646  -3.827  0.00  0.00    +0.096 C 
ATOM     33  C   UNL     1      -8.441  -3.430  -2.477  0.00  0.00    +0.046 C 
ATOM     34  C   UNL     1      -9.283  -4.052  -1.337  0.00  0.00    +0.168 C 
ATOM     35  S   UNL     1     -10.175  -5.414  -2.191  0.00  0.00    -0.029 S 
ATOM     36  O   UNL     1     -11.571  -5.157  -2.138  0.00  0.00    -0.174 OA
ATOM     37  O   UNL     1      -9.675  -6.659  -1.723  0.00  0.00    -0.174 OA
ATOM     38  C   UNL     1      -9.579  -5.137  -3.912  0.00  0.00    +0.188 C 
ENDBRANCH  30  32
ENDBRANCH   2  28
TORSDOF 7
