REMARK  Name = ZINC35232123
REMARK  7 active torsions:
REMARK  status: ('A' for Active; 'I' for Inactive)
REMARK    1  A    between atoms: C_1  and  C_2
REMARK    2  A    between atoms: C_3  and  C_26
REMARK    3  A    between atoms: C_7  and  C_14
REMARK    4  A    between atoms: C_8  and  C_11
REMARK    5  A    between atoms: C_11  and  C_12
REMARK    6  A    between atoms: C_11  and  C_13
REMARK    7  A    between atoms: N_16  and  C_17
REMARK                            x       y       z     vdW  Elec       q    Type
REMARK                         _______ _______ _______ _____ _____    ______ ____
ROOT
ATOM      1  C   UNL     1      -0.369   1.452   0.566  0.00  0.00    +0.068 C 
ATOM      2  C   UNL     1      -0.239  -0.038   0.383  0.00  0.00    +0.070 A 
ATOM      3  C   UNL     1      -0.253  -0.712  -0.844  0.00  0.00    +0.049 A 
ATOM      4  C   UNL     1      -0.105  -2.076  -0.570  0.00  0.00    +0.164 A 
ATOM      5  N   UNL     1      -0.053  -3.153  -1.363  0.00  0.00    -0.235 NA
ATOM      6  C   UNL     1       0.094  -4.356  -0.865  0.00  0.00    +0.128 A 
ATOM      7  C   UNL     1       0.200  -4.535   0.535  0.00  0.00    +0.076 A 
ATOM      8  C   UNL     1       0.147  -3.426   1.356  0.00  0.00    +0.061 A 
ATOM      9  N   UNL     1      -0.006  -2.196   0.793  0.00  0.00    -0.217 N 
ATOM     10  N   UNL     1      -0.088  -0.913   1.346  0.00  0.00    -0.169 NA
ENDROOT
BRANCH   3  11
ATOM     11  C   UNL     1      -0.399  -0.096  -2.184  0.00  0.00    -0.013 A 
ATOM     12  C   UNL     1      -1.526  -0.365  -2.959  0.00  0.00    +0.009 A 
ATOM     13  C   UNL     1      -1.656   0.212  -4.206  0.00  0.00    +0.001 A 
ATOM     14  C   UNL     1      -0.670   1.055  -4.687  0.00  0.00    +0.000 A 
ATOM     15  C   UNL     1       0.451   1.326  -3.922  0.00  0.00    +0.001 A 
ATOM     16  C   UNL     1       0.589   0.760  -2.671  0.00  0.00    +0.009 A 
ENDBRANCH   3  11
BRANCH   7  17
ATOM     17  C   UNL     1       0.366  -5.885   1.107  0.00  0.00    +0.248 C 
ATOM     18  O   UNL     1       1.458  -6.419   1.099  0.00  0.00    -0.270 OA
ATOM     19  N   UNL     1      -0.694  -6.526   1.640  0.00  0.00    -0.300 N 
ATOM     20  H   UNL     1      -1.565  -6.099   1.646  0.00  0.00    +0.150 HD
BRANCH  19  21
ATOM     21  C   UNL     1      -0.530  -7.866   2.208  0.00  0.00    +0.159 C 
ATOM     22  C   UNL     1      -1.625  -8.121   3.247  0.00  0.00    +0.032 C 
ATOM     23  C   UNL     1      -1.177  -9.166   4.253  0.00  0.00    +0.004 C 
ATOM     24  C   UNL     1      -1.004 -10.552   3.662  0.00  0.00    +0.019 C 
ATOM     25  C   UNL     1       0.164 -10.582   2.674  0.00  0.00    +0.104 C 
ATOM     26  N   UNL     1      -0.330 -10.173   1.349  0.00  0.00    -0.314 N 
ATOM     27  C   UNL     1      -0.652  -8.902   1.111  0.00  0.00    +0.233 C 
ATOM     28  O   UNL     1      -1.050  -8.576   0.013  0.00  0.00    -0.274 OA
ATOM     29  H   UNL     1      -0.417 -10.833   0.643  0.00  0.00    +0.149 HD
ENDBRANCH  19  21
ENDBRANCH   7  17
BRANCH   8  30
ATOM     30  C   UNL     1       0.258  -3.575   2.852  0.00  0.00    +0.032 C 
ATOM     31  C   UNL     1       1.488  -2.814   3.351  0.00  0.00    +0.014 C 
ATOM     32  C   UNL     1      -0.998  -3.006   3.515  0.00  0.00    +0.014 C 
ENDBRANCH   8  30
TORSDOF 4
