REMARK  Name = ZINC06089596
REMARK  11 active torsions:
REMARK  status: ('A' for Active; 'I' for Inactive)
REMARK    1  A    between atoms: C_1  and  C_2
REMARK    2  A    between atoms: C_2  and  O_3
REMARK    3  A    between atoms: O_3  and  C_4
REMARK    4  A    between atoms: C_4  and  C_6
REMARK    5  A    between atoms: C_9  and  N_12
REMARK    6  A    between atoms: C_13  and  C_36
REMARK    7  A    between atoms: C_15  and  C_18
REMARK    8  A    between atoms: C_16  and  C_17
REMARK    9  A    between atoms: N_25  and  C_28
REMARK   10  A    between atoms: C_30  and  C_35
REMARK   11  A    between atoms: C_32  and  C_34
REMARK                            x       y       z     vdW  Elec       q    Type
REMARK                         _______ _______ _______ _____ _____    ______ ____
ROOT
ATOM      1  C   UNL     1       3.418   1.180   1.260  0.00  0.00    +0.028 C 
ATOM      2  C   UNL     1       4.211   0.044   1.286  0.00  0.00    +0.100 C 
ATOM      3  C   UNL     1       3.624  -1.307   1.208  0.00  0.00    +0.257 C 
ATOM      4  O   UNL     1       2.421  -1.461   1.118  0.00  0.00    -0.270 OA
ATOM      5  N   UNL     1       4.459  -2.366   1.234  0.00  0.00    -0.235 N 
ATOM      6  C   UNL     1       5.786  -2.211   1.339  0.00  0.00    +0.320 C 
ATOM      7  O   UNL     1       6.482  -3.207   1.361  0.00  0.00    -0.251 OA
ATOM      8  N   UNL     1       6.387  -1.015   1.419  0.00  0.00    -0.190 N 
ATOM      9  C   UNL     1       5.678   0.133   1.399  0.00  0.00    +0.263 C 
ATOM     10  O   UNL     1       6.235   1.212   1.474  0.00  0.00    -0.269 OA
ATOM     11  H   UNL     1       4.090  -3.261   1.179  0.00  0.00    +0.159 HD
ENDROOT
BRANCH   8  12
ATOM     12  C   UNL     1       7.783  -0.956   1.526  0.00  0.00    +0.046 A 
ATOM     13  C   UNL     1       8.565  -0.867   0.382  0.00  0.00    +0.027 A 
ATOM     14  C   UNL     1       9.940  -0.805   0.491  0.00  0.00    -0.048 A 
ATOM     15  C   UNL     1      10.539  -0.840   1.737  0.00  0.00    +0.006 A 
ATOM     16  C   UNL     1       9.763  -0.934   2.877  0.00  0.00    -0.048 A 
ATOM     17  C   UNL     1       8.387  -0.992   2.776  0.00  0.00    +0.027 A 
ATOM     18  C   UNL     1      10.420  -0.973   4.233  0.00  0.00    +0.044 C 
ATOM     19  C   UNL     1      10.790  -0.702  -0.750  0.00  0.00    +0.044 C 
ENDBRANCH   8  12
BRANCH   1  23
ATOM     20  N   UNL     1      -0.159   1.309   1.008  0.00  0.00    -0.317 N 
ATOM     21  C   UNL     1       0.110   0.503  -0.064  0.00  0.00    +0.022 A 
ATOM     22  C   UNL     1       1.436   0.318  -0.158  0.00  0.00    +0.031 A 
ATOM     23  C   UNL     1       2.041   1.074   0.950  0.00  0.00    -0.003 A 
ATOM     24  C   UNL     1       0.984   1.662   1.629  0.00  0.00    +0.028 A 
ATOM     25  C   UNL     1       1.095   2.543   2.847  0.00  0.00    +0.064 C 
ATOM     26  C   UNL     1      -0.920  -0.085  -0.994  0.00  0.00    +0.064 C 
BRANCH  20  30
ATOM     27  C   UNL     1      -3.972   2.519   2.180  0.00  0.00    +0.059 A 
ATOM     28  C   UNL     1      -3.616   1.168   2.239  0.00  0.00    +0.017 A 
ATOM     29  C   UNL     1      -2.356   0.772   1.851  0.00  0.00    +0.027 A 
ATOM     30  C   UNL     1      -1.437   1.715   1.401  0.00  0.00    +0.047 A 
ATOM     31  C   UNL     1      -1.786   3.060   1.346  0.00  0.00    +0.027 A 
ATOM     32  C   UNL     1      -3.046   3.462   1.727  0.00  0.00    +0.017 A 
BRANCH  27  33
ATOM     33  C   UNL     1      -5.322   2.946   2.594  0.00  0.00    +0.339 C 
ATOM     34  O   UNL     1      -6.126   2.125   2.986  0.00  0.00    -0.245 OA
BRANCH  33  35
ATOM     35  O   UNL     1      -5.663   4.249   2.536  0.00  0.00    -0.461 OA
BRANCH  35  37
ATOM     36  C   UNL     1      -7.210   6.108   2.824  0.00  0.00    +0.048 C 
ATOM     37  C   UNL     1      -7.008   4.597   2.959  0.00  0.00    +0.229 C 
ENDBRANCH  35  37
ENDBRANCH  33  35
ENDBRANCH  27  33
ENDBRANCH  20  30
ENDBRANCH   1  23
TORSDOF 6
