REMARK  Name = ZINC39916841
REMARK  6 active torsions:
REMARK  status: ('A' for Active; 'I' for Inactive)
REMARK    1  A    between atoms: C_8  and  C_12
REMARK    2  A    between atoms: N_14  and  C_15
REMARK    3  A    between atoms: C_15  and  C_17
REMARK    4  A    between atoms: C_15  and  N_21
REMARK    5  A    between atoms: N_21  and  C_22
REMARK    6  A    between atoms: C_22  and  C_23
REMARK                            x       y       z     vdW  Elec       q    Type
REMARK                         _______ _______ _______ _____ _____    ______ ____
ROOT
ATOM      1  C   UNL     1       3.951  -6.210   0.525  0.00  0.00    +0.193 C 
ENDROOT
BRANCH   1   4
ATOM      2  C   UNL     1       2.620  -4.182   0.288  0.00  0.00    +0.252 C 
ATOM      3  O   UNL     1       1.637  -4.881   0.132  0.00  0.00    -0.270 OA
ATOM      4  N   UNL     1       3.825  -4.750   0.492  0.00  0.00    -0.292 N 
ATOM      5  H   UNL     1       4.609  -4.193   0.617  0.00  0.00    +0.151 HD
BRANCH   2  13
ATOM      6  C   UNL     1      -0.016   1.361   0.009  0.00  0.00    +0.001 A 
ATOM      7  C   UNL     1       1.169   2.083   0.002  0.00  0.00    +0.004 A 
ATOM      8  C   UNL     1       2.386   1.435  -0.026  0.00  0.00    +0.047 A 
ATOM      9  C   UNL     1       2.430   0.048  -0.040  0.00  0.00    +0.139 A 
ATOM     10  C   UNL     1       1.229  -0.684  -0.003  0.00  0.00    +0.018 A 
ATOM     11  C   UNL     1       0.002  -0.004   0.002  0.00  0.00    +0.011 A 
ATOM     12  C   UNL     1       1.266  -2.102   0.048  0.00  0.00    +0.031 A 
ATOM     13  C   UNL     1       2.494  -2.716   0.256  0.00  0.00    +0.122 A 
ATOM     14  C   UNL     1       3.666  -1.841   0.442  0.00  0.00    +0.350 A 
ATOM     15  O   UNL     1       4.642  -2.222   1.060  0.00  0.00    -0.244 OA
ATOM     16  O   UNL     1       3.619  -0.600  -0.096  0.00  0.00    -0.422 OA
ENDBRANCH   2  13
ENDBRANCH   1   4
BRANCH   1  17
ATOM     17  C   UNL     1       4.831  -6.619   1.708  0.00  0.00    +0.222 C 
ATOM     18 CL   UNL     1       4.080  -6.046   3.243  0.00  0.00    -0.080 Cl
ATOM     19 CL   UNL     1       4.986  -8.415   1.748  0.00  0.00    -0.080 Cl
ATOM     20 CL   UNL     1       6.465  -5.879   1.525  0.00  0.00    -0.080 Cl
ENDBRANCH   1  17
BRANCH   1  21
ATOM     21  N   UNL     1       4.563  -6.677  -0.726  0.00  0.00    -0.291 NA
ATOM     22  H   UNL     1       5.042  -5.924  -1.197  0.00  0.00    +0.124 HD
BRANCH  21  23
ATOM     23  C   UNL     1       3.561  -7.295  -1.604  0.00  0.00    +0.118 C 
BRANCH  23  24
ATOM     24  C   UNL     1       4.225  -7.761  -2.874  0.00  0.00    -0.030 A 
ATOM     25  C   UNL     1       4.317  -6.906  -3.957  0.00  0.00    +0.009 A 
ATOM     26  C   UNL     1       4.926  -7.329  -5.125  0.00  0.00    +0.050 A 
ATOM     27  C   UNL     1       5.444  -8.610  -5.212  0.00  0.00    +0.166 A 
ATOM     28  C   UNL     1       5.351  -9.471  -4.121  0.00  0.00    +0.167 A 
ATOM     29  C   UNL     1       4.745  -9.039  -2.952  0.00  0.00    +0.054 A 
ATOM     30  O   UNL     1       5.929 -10.662  -4.454  0.00  0.00    -0.453 OA
ATOM     31  C   UNL     1       6.012 -10.660  -5.891  0.00  0.00    +0.466 C 
ATOM     32  O   UNL     1       6.081  -9.262  -6.228  0.00  0.00    -0.453 OA
ENDBRANCH  23  24
ENDBRANCH  21  23
ENDBRANCH   1  21
TORSDOF 6
