REMARK  Name = ZINC56308764
REMARK  4 active torsions:
REMARK  status: ('A' for Active; 'I' for Inactive)
REMARK    1  A    between atoms: C_4  and  C_6
REMARK    2  A    between atoms: N_11  and  C_12
REMARK    3  A    between atoms: C_12  and  C_13
REMARK    4  A    between atoms: N_18  and  C_19
REMARK                            x       y       z     vdW  Elec       q    Type
REMARK                         _______ _______ _______ _____ _____    ______ ____
ROOT
ATOM      1  C   UNL     1       0.506  -4.910  -1.524  0.00  0.00    +0.204 C 
ATOM      2  O   UNL     1      -0.543  -4.849  -0.918  0.00  0.00    -0.277 OA
ATOM      3  N   UNL     1       1.056  -6.109  -1.800  0.00  0.00    -0.242 N 
ATOM      4  C   UNL     1       0.440  -7.240  -1.403  0.00  0.00    +0.306 C 
ATOM      5  O   UNL     1      -0.611  -7.179  -0.795  0.00  0.00    -0.252 OA
ATOM      6  N   UNL     1       0.990  -8.439  -1.678  0.00  0.00    -0.295 N 
ATOM      7  H   UNL     1       1.894  -6.158  -2.284  0.00  0.00    +0.159 HD
ATOM      8  H   UNL     1       1.829  -8.488  -2.163  0.00  0.00    +0.151 HD
ENDROOT
BRANCH   6   9
ATOM      9  C   UNL     1       0.321  -9.669  -1.246  0.00  0.00    +0.097 C 
ATOM     10  C   UNL     1       0.740 -10.010   0.193  0.00  0.00    +0.046 C 
ATOM     11  C   UNL     1       0.303 -11.453   0.542  0.00  0.00    +0.168 C 
ATOM     12  S   UNL     1       0.306 -12.284  -1.098  0.00  0.00    -0.029 S 
ATOM     13  O   UNL     1       1.367 -13.229  -1.135  0.00  0.00    -0.174 OA
ATOM     14  O   UNL     1      -1.016 -12.705  -1.407  0.00  0.00    -0.174 OA
ATOM     15  C   UNL     1       0.745 -10.849  -2.167  0.00  0.00    +0.188 C 
ENDBRANCH   6   9
BRANCH   1  16
ATOM     16  C   UNL     1       1.194  -3.645  -1.968  0.00  0.00    +0.019 C 
BRANCH  16  21
ATOM     17  C   UNL     1       1.127  -1.242  -1.876  0.00  0.00    -0.065 C 
ATOM     18  C   UNL     1       0.254  -0.443  -2.866  0.00  0.00    -0.017 C 
ATOM     19  C   UNL     1      -0.660  -1.534  -3.485  0.00  0.00    -0.020 C 
ATOM     20  C   UNL     1      -0.893  -2.471  -2.274  0.00  0.00    -0.078 C 
ATOM     21  N   UNL     1       0.400  -2.482  -1.550  0.00  0.00    +0.387 N 
ATOM     22  H   UNL     1       0.233  -2.527  -0.556  0.00  0.00    -0.081 HD
BRANCH  17  26
ATOM     23  C   UNL     1      -0.019   1.538   0.011  0.00  0.00    +0.000 C 
ATOM     24  C   UNL     1       1.477   1.939  -0.002  0.00  0.00    +0.000 C 
ATOM     25  C   UNL     1       2.107   0.881  -0.942  0.00  0.00    +0.002 C 
ATOM     26  C   UNL     1       1.353  -0.422  -0.604  0.00  0.00    -0.025 C 
ATOM     27  C   UNL     1       0.002  -0.004   0.002  0.00  0.00    +0.002 C 
ENDBRANCH  17  26
ENDBRANCH  16  21
ENDBRANCH   1  16
TORSDOF 4
