REMARK  Name = ZINC40061184
REMARK  8 active torsions:
REMARK  status: ('A' for Active; 'I' for Inactive)
REMARK    1  A    between atoms: C_1  and  C_2
REMARK    2  A    between atoms: C_4  and  C_39
REMARK    3  A    between atoms: C_13  and  C_29
REMARK    4  A    between atoms: C_21  and  C_28
REMARK    5  A    between atoms: C_23  and  C_27
REMARK    6  A    between atoms: C_33  and  O_35
REMARK    7  A    between atoms: O_35  and  C_36
REMARK    8  A    between atoms: C_36  and  C_37
REMARK                            x       y       z     vdW  Elec       q    Type
REMARK                         _______ _______ _______ _____ _____    ______ ____
ROOT
ATOM      1  C   UNL     1      -0.523   1.450   0.038  0.00  0.00    +0.044 C 
ATOM      2  C   UNL     1      -0.237  -0.029   0.015  0.00  0.00    -0.047 A 
ATOM      3  C   UNL     1      -0.233  -0.708  -1.195  0.00  0.00    +0.007 A 
ATOM      4  C   UNL     1       0.027  -2.050  -1.231  0.00  0.00    -0.036 A 
ATOM      5  C   UNL     1       0.289  -2.735  -0.045  0.00  0.00    +0.067 A 
ATOM      6  C   UNL     1       0.282  -2.060   1.186  0.00  0.00    +0.140 A 
ATOM      7  C   UNL     1       0.022  -0.690   1.195  0.00  0.00    +0.050 A 
ATOM      8  O   UNL     1       0.518  -2.692   2.358  0.00  0.00    -0.450 OA
ATOM      9  C   UNL     1       1.000  -3.950   2.352  0.00  0.00    +0.199 A 
ATOM     10  C   UNL     1       1.050  -4.714   1.220  0.00  0.00    +0.072 A 
ATOM     11  C   UNL     1       0.581  -4.191  -0.067  0.00  0.00    +0.199 A 
ATOM     12  O   UNL     1       0.445  -4.884  -1.060  0.00  0.00    -0.287 OA
ATOM     13  C   UNL     1       1.630  -6.040   1.591  0.00  0.00    +0.152 C 
ATOM     14  N   UNL     1       1.914  -5.964   3.033  0.00  0.00    -0.232 N 
ATOM     15  C   UNL     1       1.544  -4.742   3.468  0.00  0.00    +0.289 C 
ATOM     16  O   UNL     1       1.645  -4.351   4.614  0.00  0.00    -0.266 OA
ATOM     17  C   UNL     1       2.464  -6.970   3.808  0.00  0.00    +0.169 A 
ATOM     18  N   UNL     1       2.735  -6.966   5.092  0.00  0.00    -0.224 NA
ATOM     19  C   UNL     1       3.276  -8.030   5.723  0.00  0.00    +0.083 A 
ATOM     20  C   UNL     1       3.615  -8.155   7.091  0.00  0.00    -0.024 A 
ATOM     21  C   UNL     1       4.162  -9.315   7.574  0.00  0.00    +0.009 A 
ATOM     22  C   UNL     1       4.402 -10.402   6.746  0.00  0.00    -0.049 A 
ATOM     23  C   UNL     1       4.083 -10.315   5.404  0.00  0.00    +0.020 A 
ATOM     24  C   UNL     1       3.535  -9.158   4.911  0.00  0.00    +0.041 A 
ATOM     25  S   UNL     1       2.978  -8.610   3.315  0.00  0.00    -0.052 S 
ATOM     26  C   UNL     1       5.006 -11.665   7.305  0.00  0.00    +0.044 C 
ATOM     27  C   UNL     1       3.372  -6.999   8.027  0.00  0.00    +0.046 C 
ATOM     28  C   UNL     1       0.031  -2.784  -2.547  0.00  0.00    +0.044 C 
ENDROOT
BRANCH  13  29
ATOM     29  C   UNL     1       2.902  -6.285   0.821  0.00  0.00    -0.019 A 
ATOM     30  C   UNL     1       4.085  -5.705   1.239  0.00  0.00    +0.006 A 
ATOM     31  C   UNL     1       5.254  -5.928   0.535  0.00  0.00    +0.004 A 
ATOM     32  C   UNL     1       5.242  -6.730  -0.590  0.00  0.00    +0.045 A 
ATOM     33  C   UNL     1       4.056  -7.314  -1.011  0.00  0.00    +0.121 A 
ATOM     34  C   UNL     1       2.886  -7.093  -0.299  0.00  0.00    +0.051 A 
BRANCH  33  35
ATOM     35  O   UNL     1       4.042  -8.104  -2.117  0.00  0.00    -0.488 OA
BRANCH  35  36
ATOM     36  C   UNL     1       5.285  -8.291  -2.797  0.00  0.00    +0.256 C 
BRANCH  36  37
ATOM     37  C   UNL     1       5.075  -9.189  -3.989  0.00  0.00    +0.006 C 
ATOM     38  C   UNL     1       5.610  -8.880  -5.144  0.00  0.00    +0.007 C 
ENDBRANCH  36  37
ENDBRANCH  35  36
ENDBRANCH  33  35
ENDBRANCH  13  29
TORSDOF 4
