REMARK  Name = ZINC38975818
REMARK  5 active torsions:
REMARK  status: ('A' for Active; 'I' for Inactive)
REMARK    1  A    between atoms: C_5  and  C_7
REMARK    2  A    between atoms: N_13  and  N_14
REMARK    3  A    between atoms: C_15  and  C_16
REMARK    4  A    between atoms: C_19  and  O_23
REMARK    5  A    between atoms: C_21  and  O_22
REMARK                            x       y       z     vdW  Elec       q    Type
REMARK                         _______ _______ _______ _____ _____    ______ ____
ROOT
ATOM      1  C   UNL     1       1.229  -2.201  -0.032  0.00  0.00    +0.266 C 
ATOM      2  N   UNL     1       2.323  -2.702   0.814  0.00  0.00    -0.189 NA
ATOM      3  N   UNL     1       1.827  -3.360   1.732  0.00  0.00    -0.219 N 
ATOM      4  C   UNL     1       0.470  -3.419   1.682  0.00  0.00    +0.174 C 
ATOM      5  S   UNL     1      -0.518  -4.250   2.807  0.00  0.00    -0.015 S 
ATOM      6  N   UNL     1       0.011  -2.725   0.613  0.00  0.00    -0.172 N 
ATOM      7  H   UNL     1       2.354  -3.794   2.421  0.00  0.00    +0.176 HD
ENDROOT
BRANCH   1  12
ATOM      8  C   UNL     1       0.001   1.369  -0.043  0.00  0.00    +0.001 A 
ATOM      9  C   UNL     1       1.191   2.072  -0.062  0.00  0.00    +0.003 A 
ATOM     10  C   UNL     1       2.395   1.394  -0.071  0.00  0.00    +0.039 A 
ATOM     11  C   UNL     1       2.408   0.009  -0.061  0.00  0.00    +0.130 A 
ATOM     12  C   UNL     1       1.216  -0.694  -0.042  0.00  0.00    +0.033 A 
ATOM     13  C   UNL     1       0.013  -0.013  -0.033  0.00  0.00    +0.010 A 
ATOM     14  F   UNL     1       3.585  -0.655  -0.071  0.00  0.00    -0.205 F 
ENDBRANCH   1  12
BRANCH   6  15
ATOM     15  N   UNL     1      -1.319  -2.544   0.210  0.00  0.00    -0.183 NA
ATOM     16  C   UNL     1      -2.275  -3.169   0.828  0.00  0.00    +0.142 C 
BRANCH  16  17
ATOM     17  C   UNL     1      -3.660  -3.067   0.336  0.00  0.00    +0.036 A 
ATOM     18  C   UNL     1      -4.692  -3.733   1.002  0.00  0.00    +0.016 A 
ATOM     19  C   UNL     1      -5.985  -3.635   0.539  0.00  0.00    +0.046 A 
ATOM     20  C   UNL     1      -6.268  -2.875  -0.590  0.00  0.00    +0.120 A 
ATOM     21  C   UNL     1      -5.251  -2.210  -1.258  0.00  0.00    +0.091 A 
ATOM     22  C   UNL     1      -3.948  -2.296  -0.799  0.00  0.00    +0.129 A 
BRANCH  22  23
ATOM     23  O   UNL     1      -2.952  -1.640  -1.448  0.00  0.00    -0.506 OA
ATOM     24  H   UNL     1      -2.533  -2.157  -2.150  0.00  0.00    +0.292 HD
ENDBRANCH  22  23
BRANCH  20  25
ATOM     25  O   UNL     1      -7.546  -2.783  -1.041  0.00  0.00    -0.507 OA
ATOM     26  H   UNL     1      -8.046  -2.047  -0.661  0.00  0.00    +0.292 HD
ENDBRANCH  20  25
ENDBRANCH  16  17
ENDBRANCH   6  15
TORSDOF 5
