REMARK  Name = ZINC49623809
REMARK  7 active torsions:
REMARK  status: ('A' for Active; 'I' for Inactive)
REMARK    1  A    between atoms: C_4  and  C_18
REMARK    2  A    between atoms: C_5  and  C_7
REMARK    3  A    between atoms: C_7  and  S_8
REMARK    4  A    between atoms: S_8  and  C_9
REMARK    5  A    between atoms: C_15  and  N_17
REMARK    6  A    between atoms: C_19  and  C_20
REMARK    7  A    between atoms: C_20  and  O_21
REMARK                            x       y       z     vdW  Elec       q    Type
REMARK                         _______ _______ _______ _____ _____    ______ ____
ROOT
ATOM      1  C   UNL     1       1.223  -2.188  -0.022  0.00  0.00    +0.113 C 
ENDROOT
BRANCH   1   6
ATOM      2  C   UNL     1      -0.017   1.379   0.010  0.00  0.00    +0.000 A 
ATOM      3  C   UNL     1       1.169   2.093   0.002  0.00  0.00    +0.001 A 
ATOM      4  C   UNL     1       2.377   1.429  -0.013  0.00  0.00    +0.017 A 
ATOM      5  C   UNL     1       2.403   0.033  -0.021  0.00  0.00    +0.029 A 
ATOM      6  C   UNL     1       1.205  -0.681  -0.013  0.00  0.00    -0.022 A 
ATOM      7  C   UNL     1       0.002  -0.004   0.002  0.00  0.00    +0.005 A 
BRANCH   5   8
ATOM      8  C   UNL     1       3.655  -0.663  -0.037  0.00  0.00    -0.064 C 
ATOM      9  C   UNL     1       4.681  -1.233  -0.050  0.00  0.00    -0.069 C 
BRANCH   9  10
ATOM     10  C   UNL     1       5.967  -1.948  -0.067  0.00  0.00    +0.244 C 
BRANCH  10  11
ATOM     11  O   UNL     1       5.729  -3.357  -0.072  0.00  0.00    -0.383 OA
ATOM     12  H   UNL     1       6.534  -3.893  -0.083  0.00  0.00    +0.211 HD
ENDBRANCH  10  11
ENDBRANCH   9  10
ENDBRANCH   5   8
ENDBRANCH   1   6
BRANCH   1  13
ATOM     13  S   UNL     1       1.247  -2.802   1.685  0.00  0.00    -0.083 S 
BRANCH  13  14
ATOM     14  C   UNL     1       1.267  -4.555   1.506  0.00  0.00    +0.171 A 
ATOM     15  N   UNL     1       1.282  -5.339   2.620  0.00  0.00    -0.302 N 
ATOM     16  H   UNL     1       1.282  -4.930   3.500  0.00  0.00    +0.171 HD
ATOM     17  C   UNL     1       1.298  -6.683   2.503  0.00  0.00    +0.254 A 
ATOM     18  O   UNL     1       1.311  -7.393   3.496  0.00  0.00    -0.268 OA
ATOM     19  C   UNL     1       1.298  -7.249   1.224  0.00  0.00    +0.113 A 
ATOM     20  C   UNL     1       1.282  -6.406   0.121  0.00  0.00    +0.124 A 
ATOM     21  N   UNL     1       1.262  -5.081   0.299  0.00  0.00    -0.209 NA
BRANCH  20  22
ATOM     22  N   UNL     1       1.282  -6.935  -1.154  0.00  0.00    -0.343 N 
ATOM     23  H   UNL     1       1.293  -7.896  -1.281  0.00  0.00    +0.144 HD
ATOM     24  H   UNL     1       1.272  -6.344  -1.924  0.00  0.00    +0.144 HD
ENDBRANCH  20  22
ENDBRANCH  13  14
ENDBRANCH   1  13
TORSDOF 7
