REMARK  Name = ZINC05477934
REMARK  7 active torsions:
REMARK  status: ('A' for Active; 'I' for Inactive)
REMARK    1  A    between atoms: C_1  and  C_2
REMARK    2  A    between atoms: C_2  and  CA_3
REMARK    3  A    between atoms: CA_3  and  C_5
REMARK    4  A    between atoms: CA_3  and  N_7
REMARK    5  A    between atoms: C_5  and  O_6
REMARK    6  A    between atoms: C_24  and  C_26
REMARK    7  A    between atoms: C_24  and  C_27
REMARK                            x       y       z     vdW  Elec       q    Type
REMARK                         _______ _______ _______ _____ _____    ______ ____
ROOT
ATOM      1  N   UNL     1       3.925   5.999   0.001  0.00  0.00    -0.323 N 
ATOM      2  C   UNL     1       4.228   4.646  -0.012  0.00  0.00    +0.137 A 
ATOM      3  C   UNL     1       3.220   3.692  -0.008  0.00  0.00    +0.080 A 
ATOM      4  C   UNL     1       3.523   2.325  -0.021  0.00  0.00    +0.093 A 
ATOM      5  C   UNL     1       2.368   1.409  -0.015  0.00  0.00    +0.035 A 
ATOM      6  C   UNL     1       2.390  -0.008  -0.026  0.00  0.00    -0.024 A 
ATOM      7  C   UNL     1       1.218  -0.697  -0.015  0.00  0.00    +0.020 A 
ATOM      8  C   UNL     1       0.002  -0.004   0.002  0.00  0.00    +0.105 A 
ATOM      9  C   UNL     1       1.101   2.017   0.002  0.00  0.00    +0.089 A 
ATOM     10  S   UNL     1       1.450   3.758   0.012  0.00  0.00    -0.066 S 
ATOM     11  N   UNL     1      -1.193  -0.710   0.012  0.00  0.00    -0.316 N 
ATOM     12  C   UNL     1      -1.313  -1.536   1.240  0.00  0.00    +0.106 C 
ATOM     13  C   UNL     1      -2.836  -1.804   1.340  0.00  0.00    +0.020 C 
ATOM     14  C   UNL     1      -3.453  -0.468   0.865  0.00  0.00    +0.020 C 
ATOM     15  C   UNL     1      -2.352   0.210   0.030  0.00  0.00    +0.106 C 
ATOM     16  C   UNL     1       1.191  -2.204  -0.016  0.00  0.00    +0.199 C 
ATOM     17  O   UNL     1       2.464  -2.720  -0.403  0.00  0.00    -0.369 OA
ATOM     18  C   UNL     1       3.549  -2.169   0.353  0.00  0.00    +0.068 C 
ATOM     19  C   UNL     1       3.724  -0.704  -0.052  0.00  0.00    +0.070 C 
ATOM     20  C   UNL     1       3.234  -2.257   1.847  0.00  0.00    +0.041 C 
ATOM     21  C   UNL     1       4.834  -2.944   0.050  0.00  0.00    +0.041 C 
ATOM     22  N   UNL     1       4.838   2.009  -0.038  0.00  0.00    -0.234 NA
ATOM     23  C   UNL     1       5.762   2.936  -0.042  0.00  0.00    +0.224 A 
ATOM     24  N   UNL     1       5.493   4.229  -0.029  0.00  0.00    -0.220 NA
ATOM     25  H   UNL     1       3.000   6.290   0.013  0.00  0.00    +0.148 HD
ATOM     26  N   UNL     1      -0.083   1.356   0.010  0.00  0.00    -0.337 N 
ATOM     27  H   UNL     1      -0.984   1.848   0.021  0.00  0.00    +0.168 HD
ENDROOT
BRANCH   1  28
ATOM     28  CA  UNL     1       5.004   6.991  -0.004  0.00  0.00    +0.097 C 
BRANCH  28  30
ATOM     29  C   UNL     1       4.174   8.059   2.096  0.00  0.00    +0.006 C 
ATOM     30  C   UNL     1       4.502   8.294   0.620  0.00  0.00    +0.021 C 
ENDBRANCH  28  30
BRANCH  28  31
ATOM     31  C   UNL     1       5.449   7.254  -1.444  0.00  0.00    +0.178 C 
BRANCH  31  32
ATOM     32  O   UNL     1       4.378   7.858  -2.171  0.00  0.00    -0.393 OA
ATOM     33  H   UNL     1       4.590   8.053  -3.094  0.00  0.00    +0.209 HD
ENDBRANCH  31  32
ENDBRANCH  28  31
ENDBRANCH   1  28
TORSDOF 4
