REMARK  Name = ZINC06320904
REMARK  9 active torsions:
REMARK  status: ('A' for Active; 'I' for Inactive)
REMARK    1  A    between atoms: C_1  and  C_2
REMARK    2  A    between atoms: C_6  and  C_15
REMARK    3  A    between atoms: C_13  and  C_14
REMARK    4  A    between atoms: C_15  and  N_64
REMARK    5  A    between atoms: C_16  and  C_17
REMARK    6  A    between atoms: C_16  and  N_64
REMARK    7  A    between atoms: N_21  and  C_22
REMARK    8  A    between atoms: C_27  and  C_28
REMARK    9  A    between atoms: C_27  and  N_64
REMARK                            x       y       z     vdW  Elec       q    Type
REMARK                         _______ _______ _______ _____ _____    ______ ____
ROOT
ATOM      1  N   UNL     1       3.188   3.454  -0.488  0.00  0.00    +0.389 N 
ATOM      2  H   UNL     1       3.855   2.806  -0.924  0.00  0.00    -0.081 HD
ENDROOT
BRANCH   1   3
ATOM      3  C   UNL     1       3.572   3.660   0.924  0.00  0.00    -0.037 C 
BRANCH   3   9
ATOM      4  C   UNL     1       9.486   8.186   1.324  0.00  0.00    +0.044 C 
ATOM      5  C   UNL     1       8.893   6.803   1.250  0.00  0.00    -0.047 A 
ATOM      6  C   UNL     1       7.536   6.651   1.190  0.00  0.00    +0.013 A 
ATOM      7  C   UNL     1       6.985   5.368   1.121  0.00  0.00    -0.001 A 
ATOM      8  C   UNL     1       5.536   5.168   1.051  0.00  0.00    +0.017 A 
ATOM      9  C   UNL     1       5.059   3.901   0.991  0.00  0.00    +0.001 A 
ATOM     10  C   UNL     1       5.949   2.805   0.987  0.00  0.00    +0.251 A 
ATOM     11  O   UNL     1       5.499   1.674   0.928  0.00  0.00    -0.268 OA
ATOM     12  N   UNL     1       7.281   2.978   1.045  0.00  0.00    -0.322 N 
ATOM     13  H   UNL     1       7.864   2.204   1.040  0.00  0.00    +0.169 HD
ATOM     14  C   UNL     1       7.830   4.241   1.113  0.00  0.00    +0.049 A 
ATOM     15  C   UNL     1       9.207   4.421   1.174  0.00  0.00    +0.030 A 
ATOM     16  C   UNL     1       9.729   5.695   1.242  0.00  0.00    -0.046 A 
ATOM     17  C   UNL     1      11.222   5.887   1.308  0.00  0.00    +0.044 C 
ENDBRANCH   3   9
ENDBRANCH   1   3
BRANCH   1  18
ATOM     18  C   UNL     1       3.225   4.741  -1.214  0.00  0.00    +0.001 C 
BRANCH  18  19
ATOM     19  C   UNL     1       3.047   4.473  -2.687  0.00  0.00    +0.135 A 
ATOM     20  N   UNL     1       1.914   4.442  -3.345  0.00  0.00    -0.115 NA
ATOM     21  N   UNL     1       2.178   4.184  -4.579  0.00  0.00    -0.023 NA
ATOM     22  N   UNL     1       3.450   4.049  -4.725  0.00  0.00    -0.044 NA
ATOM     23  N   UNL     1       4.021   4.226  -3.582  0.00  0.00    -0.228 N 
BRANCH  23  24
ATOM     24  C   UNL     1       5.459   4.165  -3.309  0.00  0.00    +0.111 C 
ATOM     25  C   UNL     1       6.209   5.180  -4.196  0.00  0.00    +0.027 C 
ATOM     26  C   UNL     1       7.528   4.458  -4.568  0.00  0.00    +0.002 C 
ATOM     27  C   UNL     1       7.070   2.992  -4.769  0.00  0.00    +0.002 C 
ATOM     28  C   UNL     1       6.007   2.774  -3.673  0.00  0.00    +0.027 C 
ENDBRANCH  23  24
ENDBRANCH  18  19
ENDBRANCH   1  18
BRANCH   1  29
ATOM     29  C   UNL     1       1.832   2.871  -0.562  0.00  0.00    -0.046 C 
BRANCH  29  30
ATOM     30  C   UNL     1       1.907   1.400  -0.149  0.00  0.00    +0.102 C 
ATOM     31  C   UNL     1       0.507   0.739  -0.228  0.00  0.00    +0.032 C 
ATOM     32  C   UNL     1       0.865  -0.756  -0.416  0.00  0.00    +0.030 C 
ATOM     33  C   UNL     1       2.309  -0.734  -0.954  0.00  0.00    +0.160 C 
ATOM     34  O   UNL     1       2.690   0.644  -1.097  0.00  0.00    -0.378 OA
ENDBRANCH  29  30
ENDBRANCH   1  29
TORSDOF 7
