REMARK  Name = ZINC24225467
REMARK  8 active torsions:
REMARK  status: ('A' for Active; 'I' for Inactive)
REMARK    1  A    between atoms: C_1  and  C_2
REMARK    2  A    between atoms: C_2  and  C_4
REMARK    3  A    between atoms: C_2  and  S_18
REMARK    4  A    between atoms: C_4  and  C_6
REMARK    5  A    between atoms: C_6  and  C_16
REMARK    6  A    between atoms: S_18  and  C_19
REMARK    7  A    between atoms: C_22  and  C_27
REMARK    8  A    between atoms: N_23  and  C_24
REMARK                            x       y       z     vdW  Elec       q    Type
REMARK                         _______ _______ _______ _____ _____    ______ ____
ROOT
ATOM      1  C   UNL     1       2.505   5.215   2.411  0.00  0.00    +0.028 C 
ATOM      2  C   UNL     1       1.567   5.604   1.266  0.00  0.00    +0.123 C 
ENDROOT
BRANCH   2   3
ATOM      3  C   UNL     1       0.773   6.822   1.659  0.00  0.00    +0.189 C 
ATOM      4  O   UNL     1      -0.337   6.696   2.139  0.00  0.00    -0.290 OA
BRANCH   3   5
ATOM      5  C   UNL     1       1.315   8.105   1.471  0.00  0.00    +0.131 C 
ATOM      6  C   UNL     1       0.573   9.242   1.838  0.00  0.00    +0.114 C 
ATOM      7  N   UNL     1      -0.674   9.229   2.375  0.00  0.00    -0.300 N 
ATOM      8  C   UNL     1      -1.066  10.543   2.601  0.00  0.00    +0.054 A 
ATOM      9  C   UNL     1      -2.219  11.112   3.125  0.00  0.00    +0.025 A 
ATOM     10  C   UNL     1      -2.325  12.485   3.223  0.00  0.00    +0.002 A 
ATOM     11  C   UNL     1      -1.286  13.298   2.801  0.00  0.00    +0.002 A 
ATOM     12  C   UNL     1      -0.136  12.742   2.278  0.00  0.00    +0.025 A 
ATOM     13  C   UNL     1      -0.019  11.363   2.175  0.00  0.00    +0.054 A 
ATOM     14  N   UNL     1       0.989  10.529   1.705  0.00  0.00    -0.300 N 
ATOM     15  H   UNL     1      -1.185   8.271   2.555  0.00  0.00    +0.153 HD
ATOM     16  H   UNL     1       1.980  10.745   1.281  0.00  0.00    +0.153 HD
BRANCH   5  17
ATOM     17  C   UNL     1       2.622   8.254   0.906  0.00  0.00    +0.106 C 
ATOM     18  N   UNL     1       3.659   8.372   0.458  0.00  0.00    -0.191 NA
ENDBRANCH   5  17
ENDBRANCH   3   5
ENDBRANCH   2   3
BRANCH   2  19
ATOM     19  S   UNL     1       0.437   4.232   0.921  0.00  0.00    -0.075 S 
BRANCH  19  20
ATOM     20  C   UNL     1       1.587   3.023   0.356  0.00  0.00    +0.193 A 
ATOM     21  N   UNL     1       2.889   3.174   0.251  0.00  0.00    -0.122 NA
ATOM     22  N   UNL     1       3.424   2.093  -0.194  0.00  0.00    -0.128 NA
ATOM     23  C   UNL     1       2.498   1.185  -0.396  0.00  0.00    +0.168 A 
ATOM     24  N   UNL     1       1.292   1.754  -0.055  0.00  0.00    -0.299 N 
BRANCH  23  25
ATOM     25  C   UNL     1       2.710  -0.189  -0.897  0.00  0.00    +0.054 A 
ATOM     26  C   UNL     1       1.903  -0.696  -1.917  0.00  0.00    +0.014 A 
ATOM     27  C   UNL     1       2.106  -1.979  -2.381  0.00  0.00    +0.001 A 
ATOM     28  C   UNL     1       3.108  -2.765  -1.839  0.00  0.00    +0.003 A 
ATOM     29  C   UNL     1       3.912  -2.271  -0.828  0.00  0.00    +0.039 A 
ATOM     30  C   UNL     1       3.723  -0.986  -0.356  0.00  0.00    +0.134 A 
ATOM     31  F   UNL     1       4.512  -0.502   0.628  0.00  0.00    -0.205 F 
ENDBRANCH  23  25
BRANCH  24  32
ATOM     32  C   UNL     1      -0.031   1.128  -0.115  0.00  0.00    +0.091 C 
ATOM     33  C   UNL     1      -1.162   1.790   0.675  0.00  0.00    +0.027 C 
ATOM     34  C   UNL     1      -1.137   1.883  -0.853  0.00  0.00    +0.027 C 
ENDBRANCH  24  32
ENDBRANCH  19  20
ENDBRANCH   2  19
TORSDOF 7
