REMARK  Name = ZINC39836344
REMARK  8 active torsions:
REMARK  status: ('A' for Active; 'I' for Inactive)
REMARK    1  A    between atoms: C_1  and  C_2
REMARK    2  A    between atoms: C_9  and  N_22
REMARK    3  A    between atoms: C_10  and  C_11
REMARK    4  A    between atoms: N_13  and  C_14
REMARK    5  A    between atoms: C_23  and  C_25
REMARK    6  A    between atoms: C_25  and  C_27
REMARK    7  A    between atoms: C_25  and  O_28
REMARK    8  A    between atoms: O_28  and  C_29
REMARK                            x       y       z     vdW  Elec       q    Type
REMARK                         _______ _______ _______ _____ _____    ______ ____
ROOT
ATOM      1  C   UNL     1       1.575   1.792  -0.147  0.00  0.00    +0.008 C 
ATOM      2  C   UNL     1       1.323   0.283  -0.124  0.00  0.00    -0.009 C 
ATOM      3  C   UNL     1       1.927  -0.357  -1.377  0.00  0.00    +0.008 C 
ATOM      4  C   UNL     1       1.472  -1.814  -1.489  0.00  0.00    +0.037 C 
ATOM      5  C   UNL     1       1.763  -2.518  -0.171  0.00  0.00    -0.023 A 
ATOM      6  C   UNL     1       1.986  -1.820   0.963  0.00  0.00    -0.004 A 
ATOM      7  S   UNL     1       2.272  -3.053   2.199  0.00  0.00    -0.077 S 
ATOM      8  C   UNL     1       2.104  -4.439   1.266  0.00  0.00    +0.085 A 
ATOM      9  C   UNL     1       1.827  -3.959  -0.005  0.00  0.00    +0.069 A 
ATOM     10  C   UNL     1       1.984  -0.330   1.119  0.00  0.00    +0.046 C 
ENDROOT
BRANCH   9  11
ATOM     11  C   UNL     1       1.608  -4.869  -1.133  0.00  0.00    +0.247 C 
ATOM     12  O   UNL     1       2.549  -5.226  -1.819  0.00  0.00    -0.270 OA
ATOM     13  N   UNL     1       0.366  -5.311  -1.412  0.00  0.00    -0.307 N 
ATOM     14  H   UNL     1      -0.384  -5.027  -0.865  0.00  0.00    +0.149 HD
BRANCH  13  15
ATOM     15  C   UNL     1       0.147  -6.220  -2.539  0.00  0.00    +0.096 C 
ATOM     16  C   UNL     1      -0.048  -5.408  -3.831  0.00  0.00    +0.046 C 
ATOM     17  C   UNL     1      -0.592  -6.325  -4.953  0.00  0.00    +0.168 C 
ATOM     18  S   UNL     1      -1.514  -7.609  -4.014  0.00  0.00    -0.029 S 
ATOM     19  O   UNL     1      -0.903  -8.873  -4.237  0.00  0.00    -0.174 OA
ATOM     20  O   UNL     1      -2.905  -7.452  -4.259  0.00  0.00    -0.174 OA
ATOM     21  C   UNL     1      -1.141  -7.058  -2.296  0.00  0.00    +0.188 C 
ENDBRANCH  13  15
ENDBRANCH   9  11
BRANCH   8  22
ATOM     22  N   UNL     1       2.217  -5.759   1.673  0.00  0.00    -0.276 N 
ATOM     23  C   UNL     1       2.494  -6.046   2.961  0.00  0.00    +0.258 C 
ATOM     24  O   UNL     1       2.644  -5.149   3.763  0.00  0.00    -0.271 OA
ATOM     25  H   UNL     1       2.098  -6.476   1.031  0.00  0.00    +0.155 HD
BRANCH  23  26
ATOM     26  C   UNL     1       2.617  -7.481   3.403  0.00  0.00    +0.256 C 
ATOM     27  C   UNL     1       3.822  -8.126   2.715  0.00  0.00    +0.062 C 
BRANCH  26  28
ATOM     28  O   UNL     1       2.796  -7.529   4.820  0.00  0.00    -0.478 OA
BRANCH  28  29
ATOM     29  C   UNL     1       2.416  -8.671   5.452  0.00  0.00    +0.140 A 
ATOM     30  C   UNL     1       1.987  -9.764   4.713  0.00  0.00    +0.047 A 
ATOM     31  C   UNL     1       1.601 -10.924   5.357  0.00  0.00    +0.004 A 
ATOM     32  C   UNL     1       1.641 -10.996   6.737  0.00  0.00    +0.002 A 
ATOM     33  C   UNL     1       2.068  -9.909   7.477  0.00  0.00    +0.023 A 
ATOM     34  C   UNL     1       2.461  -8.748   6.837  0.00  0.00    +0.083 A 
ATOM     35 CL   UNL     1       3.004  -7.385   7.765  0.00  0.00    -0.080 Cl
ENDBRANCH  28  29
ENDBRANCH  26  28
ENDBRANCH  23  26
ENDBRANCH   8  22
TORSDOF 6
