REMARK  Name = ZINC43619503
REMARK  6 active torsions:
REMARK  status: ('A' for Active; 'I' for Inactive)
REMARK    1  A    between atoms: C_8  and  N_10
REMARK    2  A    between atoms: C_15  and  C_24
REMARK    3  A    between atoms: C_27  and  O_30
REMARK    4  A    between atoms: O_30  and  C_31
REMARK    5  A    between atoms: C_31  and  C_32
REMARK    6  A    between atoms: C_32  and  O_33
REMARK                            x       y       z     vdW  Elec       q    Type
REMARK                         _______ _______ _______ _____ _____    ______ ____
ROOT
ATOM      1  N   UNL     1       3.626  -3.404  -0.305  0.00  0.00    -0.299 N 
ATOM      2  C   UNL     1       4.228  -4.567   0.354  0.00  0.00    +0.110 C 
ATOM      3  C   UNL     1       4.432  -5.627  -0.744  0.00  0.00    +0.003 C 
ATOM      4  C   UNL     1       3.162  -6.505  -0.859  0.00  0.00    -0.007 C 
ATOM      5  C   UNL     1       3.111  -6.782  -2.384  0.00  0.00    -0.036 C 
ATOM      6  N   UNL     1       3.562  -5.524  -3.016  0.00  0.00    +0.394 N 
ATOM      7  C   UNL     1       4.398  -4.774  -2.036  0.00  0.00    +0.018 C 
ATOM      8  C   UNL     1       3.743  -3.483  -1.643  0.00  0.00    +0.206 C 
ATOM      9  O   UNL     1       3.372  -2.630  -2.421  0.00  0.00    -0.277 OA
ATOM     10  C   UNL     1       5.803  -4.582  -2.611  0.00  0.00    -0.004 C 
ATOM     11  C   UNL     1       5.582  -4.762  -4.138  0.00  0.00    -0.019 C 
ATOM     12  C   UNL     1       4.431  -5.845  -4.171  0.00  0.00    -0.077 C 
ATOM     13  H   UNL     1       2.769  -4.976  -3.314  0.00  0.00    -0.079 HD
ENDROOT
BRANCH   1  21
ATOM     14  C   UNL     1      -0.017   1.377   0.010  0.00  0.00    +0.000 A 
ATOM     15  C   UNL     1       1.172   2.083   0.002  0.00  0.00    +0.000 A 
ATOM     16  C   UNL     1       2.376   1.406  -0.013  0.00  0.00    +0.004 A 
ATOM     17  C   UNL     1       2.396   0.021  -0.021  0.00  0.00    -0.042 A 
ATOM     18  C   UNL     1       1.208  -0.685  -0.013  0.00  0.00    -0.042 A 
ATOM     19  C   UNL     1       0.002  -0.004   0.002  0.00  0.00    +0.004 A 
ATOM     20  C   UNL     1       1.496  -2.171  -0.023  0.00  0.00    +0.058 C 
ATOM     21  C   UNL     1       2.974  -2.299   0.402  0.00  0.00    +0.085 C 
ATOM     22  C   UNL     1       3.564  -0.942  -0.037  0.00  0.00    +0.058 C 
ENDBRANCH   1  21
BRANCH   5  23
ATOM     23  C   UNL     1       1.703  -7.109  -2.810  0.00  0.00    -0.061 A 
ATOM     24  C   UNL     1       0.782  -6.093  -2.986  0.00  0.00    +0.005 A 
ATOM     25  C   UNL     1      -0.510  -6.391  -3.376  0.00  0.00    +0.046 A 
ATOM     26  C   UNL     1      -0.882  -7.710  -3.592  0.00  0.00    +0.121 A 
ATOM     27  C   UNL     1       0.044  -8.727  -3.415  0.00  0.00    +0.046 A 
ATOM     28  C   UNL     1       1.336  -8.424  -3.030  0.00  0.00    +0.005 A 
BRANCH  26  29
ATOM     29  O   UNL     1      -2.152  -8.005  -3.975  0.00  0.00    -0.490 OA
BRANCH  29  30
ATOM     30  C   UNL     1      -2.464  -9.384  -4.179  0.00  0.00    +0.256 C 
BRANCH  30  31
ATOM     31  C   UNL     1      -3.928  -9.518  -4.603  0.00  0.00    +0.196 C 
BRANCH  31  32
ATOM     32  O   UNL     1      -4.114  -8.897  -5.877  0.00  0.00    -0.392 OA
ATOM     33  H   UNL     1      -5.020  -8.944  -6.209  0.00  0.00    +0.210 HD
ENDBRANCH  31  32
ENDBRANCH  30  31
ENDBRANCH  29  30
ENDBRANCH  26  29
ENDBRANCH   5  23
TORSDOF 6
