REMARK  Name = ZINC40117369
REMARK  6 active torsions:
REMARK  status: ('A' for Active; 'I' for Inactive)
REMARK    1  A    between atoms: C_1  and  C_2
REMARK    2  A    between atoms: N_11  and  C_15
REMARK    3  A    between atoms: C_15  and  C_16
REMARK    4  A    between atoms: N_18  and  C_19
REMARK    5  A    between atoms: C_19  and  C_21
REMARK    6  A    between atoms: C_19  and  C_28
REMARK                            x       y       z     vdW  Elec       q    Type
REMARK                         _______ _______ _______ _____ _____    ______ ____
ROOT
ATOM      1  C   UNL     1       1.290   0.547   5.489  0.00  0.00    +0.231 C 
ATOM      2  O   UNL     1       1.784  -0.547   5.312  0.00  0.00    -0.274 OA
ATOM      3  N   UNL     1       1.120   1.015   6.741  0.00  0.00    -0.307 N 
ATOM      4  H   UNL     1       0.793   1.917   6.881  0.00  0.00    +0.149 HD
ENDROOT
BRANCH   1   5
ATOM      5  C   UNL     1       0.868   1.382   4.308  0.00  0.00    +0.213 C 
BRANCH   5  15
ATOM      6  C   UNL     1       0.077   1.232  -0.052  0.00  0.00    +0.010 C 
ATOM      7  C   UNL     1       0.262  -0.287  -0.030  0.00  0.00    +0.018 C 
ATOM      8  C   UNL     1      -1.109  -0.968  -0.049  0.00  0.00    +0.006 C 
ATOM      9  C   UNL     1      -0.924  -2.486  -0.006  0.00  0.00    +0.000 C 
ATOM     10  C   UNL     1      -0.191  -2.875   1.279  0.00  0.00    +0.003 C 
ATOM     11  C   UNL     1       1.184  -2.202   1.304  0.00  0.00    +0.035 C 
ATOM     12  C   UNL     1       1.013  -0.688   1.235  0.00  0.00    +0.115 C 
ATOM     13  C   UNL     1       0.291  -0.181   2.462  0.00  0.00    +0.247 C 
ATOM     14  O   UNL     1      -0.830  -0.468   2.825  0.00  0.00    -0.273 OA
ATOM     15  N   UNL     1       1.156   0.657   3.068  0.00  0.00    -0.215 N 
ATOM     16  C   UNL     1       2.311   0.745   2.397  0.00  0.00    +0.310 C 
ATOM     17  O   UNL     1       3.245   1.439   2.747  0.00  0.00    -0.252 OA
ATOM     18  N   UNL     1       2.320  -0.021   1.289  0.00  0.00    -0.285 N 
ATOM     19  H   UNL     1       3.047  -0.115   0.654  0.00  0.00    +0.151 HD
ENDBRANCH   5  15
ENDBRANCH   1   5
BRANCH   3  20
ATOM     20  C   UNL     1       1.428   0.160   7.891  0.00  0.00    +0.106 C 
BRANCH  20  21
ATOM     21  C   UNL     1       2.895   0.269   8.218  0.00  0.00    -0.027 A 
ATOM     22  C   UNL     1       3.528   1.497   8.156  0.00  0.00    +0.008 A 
ATOM     23  C   UNL     1       4.873   1.598   8.457  0.00  0.00    +0.038 A 
ATOM     24  C   UNL     1       5.587   0.469   8.819  0.00  0.00    +0.123 A 
ATOM     25  C   UNL     1       4.953  -0.760   8.881  0.00  0.00    +0.038 A 
ATOM     26  C   UNL     1       3.607  -0.858   8.585  0.00  0.00    +0.008 A 
ATOM     27  F   UNL     1       6.902   0.567   9.113  0.00  0.00    -0.205 F 
ENDBRANCH  20  21
BRANCH  20  28
ATOM     28  C   UNL     1       0.602   0.611   9.097  0.00  0.00    +0.014 C 
ATOM     29  C   UNL     1       0.893  -0.301  10.307  0.00  0.00    +0.006 C 
ATOM     30  C   UNL     1      -0.478  -0.445  11.013  0.00  0.00    +0.000 C 
ATOM     31  C   UNL     1      -1.468  -0.525   9.824  0.00  0.00    +0.000 C 
ATOM     32  C   UNL     1      -0.899   0.469   8.790  0.00  0.00    +0.006 C 
ENDBRANCH  20  28
ENDBRANCH   3  20
TORSDOF 5
