REMARK  Name = ZINC02417636
REMARK  7 active torsions:
REMARK  status: ('A' for Active; 'I' for Inactive)
REMARK    1  A    between atoms: C_1  and  O_2
REMARK    2  A    between atoms: O_2  and  C_3
REMARK    3  A    between atoms: C_3  and  C_4
REMARK    4  A    between atoms: C_4  and  N_5
REMARK    5  A    between atoms: C_6  and  N_26
REMARK    6  A    between atoms: C_7  and  S_18
REMARK    7  A    between atoms: S_18  and  C_21
REMARK                            x       y       z     vdW  Elec       q    Type
REMARK                         _______ _______ _______ _____ _____    ______ ____
ROOT
ATOM      1  N   UNL     1      -2.484  -2.740   0.011  0.00  0.00    -0.309 N 
ATOM      2  C   UNL     1      -3.198  -3.075   1.134  0.00  0.00    +0.126 A 
ATOM      3  C   UNL     1      -4.390  -3.623   0.797  0.00  0.00    +0.159 A 
ATOM      4  C   UNL     1      -4.474  -3.656  -0.615  0.00  0.00    +0.112 A 
ATOM      5  C   UNL     1      -3.221  -3.070  -1.107  0.00  0.00    +0.161 A 
ATOM      6  N   UNL     1      -3.016  -2.963  -2.400  0.00  0.00    -0.226 NA
ATOM      7  C   UNL     1      -3.951  -3.386  -3.261  0.00  0.00    +0.089 A 
ATOM      8  C   UNL     1      -3.740  -3.276  -4.647  0.00  0.00    +0.030 A 
ATOM      9  C   UNL     1      -4.694  -3.708  -5.515  0.00  0.00    +0.002 A 
ATOM     10  C   UNL     1      -5.886  -4.263  -5.051  0.00  0.00    +0.002 A 
ATOM     11  C   UNL     1      -6.127  -4.386  -3.718  0.00  0.00    +0.028 A 
ATOM     12  C   UNL     1      -5.163  -3.950  -2.789  0.00  0.00    +0.066 A 
ATOM     13  N   UNL     1      -5.388  -4.073  -1.476  0.00  0.00    -0.349 N 
ATOM     14  H   UNL     1      -6.219  -4.458  -1.157  0.00  0.00    +0.166 HD
ENDROOT
BRANCH   3  15
ATOM     15  S   UNL     1      -5.620  -4.195   1.921  0.00  0.00    +0.036 S 
ATOM     16  O   UNL     1      -6.395  -5.157   1.219  0.00  0.00    -0.164 OA
ATOM     17  O   UNL     1      -4.950  -4.498   3.138  0.00  0.00    -0.164 OA
BRANCH  15  18
ATOM     18  C   UNL     1      -6.689  -2.836   2.260  0.00  0.00    +0.131 A 
ATOM     19  C   UNL     1      -7.821  -2.460   1.617  0.00  0.00    +0.035 A 
ATOM     20  C   UNL     1      -8.508  -1.346   2.063  0.00  0.00    +0.009 A 
ATOM     21  C   UNL     1      -8.028  -0.663   3.131  0.00  0.00    +0.047 A 
ATOM     22  S   UNL     1      -6.567  -1.603   3.545  0.00  0.00    -0.078 S 
ENDBRANCH  15  18
ENDBRANCH   3  15
BRANCH   2  23
ATOM     23  N   UNL     1      -2.761  -2.878   2.432  0.00  0.00    -0.343 N 
ATOM     24  H   UNL     1      -1.893  -2.478   2.596  0.00  0.00    +0.144 HD
ATOM     25  H   UNL     1      -3.323  -3.141   3.178  0.00  0.00    +0.144 HD
ENDBRANCH   2  23
BRANCH   1  26
ATOM     26  C   UNL     1      -1.154  -2.126   0.002  0.00  0.00    +0.153 C 
BRANCH  26  27
ATOM     27  C   UNL     1      -1.295  -0.603   0.011  0.00  0.00    +0.181 C 
BRANCH  27  29
ATOM     28  C   UNL     1      -0.017   1.425   0.010  0.00  0.00    +0.194 C 
ATOM     29  O   UNL     1       0.002  -0.004   0.002  0.00  0.00    -0.381 OA
ENDBRANCH  27  29
ENDBRANCH  26  27
ENDBRANCH   1  26
TORSDOF 6
