REMARK  Name = ZINC13640638
REMARK  12 active torsions:
REMARK  status: ('A' for Active; 'I' for Inactive)
REMARK    1  A    between atoms: C_1  and  O_2
REMARK    2  A    between atoms: O_2  and  C_3
REMARK    3  A    between atoms: C_5  and  C_13
REMARK    4  A    between atoms: C_7  and  O_11
REMARK    5  A    between atoms: C_8  and  O_9
REMARK    6  A    between atoms: O_9  and  C_10
REMARK    7  A    between atoms: O_11  and  C_12
REMARK    8  A    between atoms: C_24  and  S_29
REMARK    9  A    between atoms: S_29  and  N_32
REMARK   10  A    between atoms: N_32  and  C_33
REMARK   11  A    between atoms: C_33  and  C_34
REMARK   12  A    between atoms: C_34  and  C_35
REMARK                            x       y       z     vdW  Elec       q    Type
REMARK                         _______ _______ _______ _____ _____    ______ ____
ROOT
ATOM      1  C   UNL     1       0.121   1.815   2.423  0.00  0.00    +0.105 C 
ATOM      2  C   UNL     1      -0.800   1.616   1.230  0.00  0.00    +0.029 C 
ATOM      3  C   UNL     1      -0.013   1.086   0.008  0.00  0.00    +0.033 C 
ATOM      4  C   UNL     1      -0.808   1.619  -1.170  0.00  0.00    -0.030 C 
ATOM      5  C   UNL     1      -1.527   2.652  -0.807  0.00  0.00    -0.023 C 
ATOM      6  C   UNL     1      -1.310   2.958   0.668  0.00  0.00    +0.049 C 
ATOM      7  C   UNL     1      -0.283   4.055   0.755  0.00  0.00    -0.018 A 
ATOM      8  C   UNL     1      -0.568   5.266   0.138  0.00  0.00    +0.034 A 
ATOM      9  C   UNL     1       0.339   6.305   0.182  0.00  0.00    +0.106 A 
ATOM     10  C   UNL     1       1.545   6.150   0.842  0.00  0.00    +0.030 A 
ATOM     11  C   UNL     1       1.837   4.951   1.460  0.00  0.00    +0.025 A 
ATOM     12  C   UNL     1       0.922   3.906   1.417  0.00  0.00    +0.031 A 
ATOM     13  N   UNL     1       1.232   2.701   2.058  0.00  0.00    -0.336 N 
ATOM     14  H   UNL     1       2.151   2.460   2.254  0.00  0.00    +0.147 HD
ENDROOT
BRANCH   1  17
ATOM     15  C   UNL     1      -1.859   2.198   5.619  0.00  0.00    +0.165 A 
ATOM     16  C   UNL     1      -1.137   1.635   4.577  0.00  0.00    +0.055 A 
ATOM     17  C   UNL     1      -0.663   2.431   3.552  0.00  0.00    -0.020 A 
ATOM     18  C   UNL     1      -0.901   3.793   3.563  0.00  0.00    +0.055 A 
ATOM     19  C   UNL     1      -1.627   4.363   4.598  0.00  0.00    +0.165 A 
ATOM     20  C   UNL     1      -2.105   3.566   5.631  0.00  0.00    +0.204 A 
BRANCH  15  22
ATOM     21  C   UNL     1      -2.033   0.017   6.550  0.00  0.00    +0.277 C 
ATOM     22  O   UNL     1      -2.324   1.414   6.628  0.00  0.00    -0.491 OA
ENDBRANCH  15  22
BRANCH  20  23
ATOM     23  O   UNL     1      -2.813   4.123   6.651  0.00  0.00    -0.488 OA
ATOM     24  C   UNL     1      -2.071   4.577   7.784  0.00  0.00    +0.277 C 
ENDBRANCH  20  23
BRANCH  19  25
ATOM     25  O   UNL     1      -1.866   5.702   4.605  0.00  0.00    -0.491 OA
ATOM     26  C   UNL     1      -1.344   6.460   3.511  0.00  0.00    +0.277 C 
ENDBRANCH  19  25
ENDBRANCH   1  17
BRANCH   9  27
ATOM     27  S   UNL     1      -0.040   7.835  -0.605  0.00  0.00    +0.058 S 
ATOM     28  O   UNL     1       1.202   8.466  -0.886  0.00  0.00    -0.153 OA
ATOM     29  O   UNL     1      -0.994   7.545  -1.618  0.00  0.00    -0.153 OA
BRANCH  27  30
ATOM     30  N   UNL     1      -0.810   8.783   0.512  0.00  0.00    -0.190 NA
ATOM     31  H   UNL     1      -1.736   9.040   0.376  0.00  0.00    +0.148 HD
BRANCH  30  32
ATOM     32  C   UNL     1      -0.094   9.236   1.708  0.00  0.00    +0.110 C 
BRANCH  32  33
ATOM     33  C   UNL     1      -0.874  10.372   2.371  0.00  0.00    +0.052 C 
BRANCH  33  34
ATOM     34  C   UNL     1      -0.137  10.837   3.600  0.00  0.00    -0.046 A 
ATOM     35  C   UNL     1      -0.403  10.257   4.826  0.00  0.00    +0.003 A 
ATOM     36  C   UNL     1       0.276  10.680   5.953  0.00  0.00    +0.000 A 
ATOM     37  C   UNL     1       1.214  11.691   5.856  0.00  0.00    +0.000 A 
ATOM     38  C   UNL     1       1.476  12.275   4.630  0.00  0.00    +0.000 A 
ATOM     39  C   UNL     1       0.800  11.848   3.503  0.00  0.00    +0.003 A 
ENDBRANCH  33  34
ENDBRANCH  32  33
ENDBRANCH  30  32
ENDBRANCH  27  30
ENDBRANCH   9  27
TORSDOF 9
