REMARK  Name = ZINC22574510
REMARK  8 active torsions:
REMARK  status: ('A' for Active; 'I' for Inactive)
REMARK    1  A    between atoms: C_1  and  C_2
REMARK    2  A    between atoms: C_11  and  N_34
REMARK    3  A    between atoms: C_13  and  S_15
REMARK    4  A    between atoms: S_15  and  C_16
REMARK    5  A    between atoms: C_16  and  C_17
REMARK    6  A    between atoms: N_19  and  N_20
REMARK    7  A    between atoms: C_23  and  C_27
REMARK    8  A    between atoms: C_23  and  C_28
REMARK                            x       y       z     vdW  Elec       q    Type
REMARK                         _______ _______ _______ _____ _____    ______ ____
ROOT
ATOM      1  C   UNL     1      -1.375   1.956  -0.556  0.00  0.00    +0.174 C 
ENDROOT
BRANCH   1   2
ATOM      2  C   UNL     1      -0.076   1.224  -0.780  0.00  0.00    +0.240 C 
ATOM      3  O   UNL     1      -0.063   0.012  -0.824  0.00  0.00    -0.273 OA
ATOM      4  N   UNL     1       1.069   1.917  -0.938  0.00  0.00    -0.223 N 
ATOM      5  H   UNL     1       1.057   3.016  -0.898  0.00  0.00    +0.174 HD
BRANCH   4   6
ATOM      6  N   UNL     1       2.275   1.237  -1.152  0.00  0.00    -0.137 N 
ATOM      7  C   UNL     1       2.898   1.159  -2.344  0.00  0.00    +0.267 C 
ATOM      8  O   UNL     1       2.534   1.643  -3.394  0.00  0.00    -0.271 OA
ATOM      9  C   UNL     1       4.149   0.337  -2.099  0.00  0.00    +0.137 C 
ATOM     10  N   UNL     1       4.078   0.019  -0.663  0.00  0.00    -0.280 N 
ATOM     11  C   UNL     1       2.953   0.591  -0.197  0.00  0.00    +0.327 C 
ATOM     12  O   UNL     1       2.592   0.525   0.962  0.00  0.00    -0.251 OA
ATOM     13  C   UNL     1       5.402   1.160  -2.408  0.00  0.00    +0.047 C 
ATOM     14  H   UNL     1       4.869  -0.585  -0.194  0.00  0.00    +0.152 HD
BRANCH   9  15
ATOM     15  C   UNL     1       4.124  -0.924  -2.924  0.00  0.00    -0.015 A 
ATOM     16  C   UNL     1       3.465  -0.943  -4.139  0.00  0.00    +0.006 A 
ATOM     17  C   UNL     1       3.447  -2.098  -4.897  0.00  0.00    +0.000 A 
ATOM     18  C   UNL     1       4.080  -3.238  -4.437  0.00  0.00    +0.000 A 
ATOM     19  C   UNL     1       4.735  -3.220  -3.220  0.00  0.00    +0.000 A 
ATOM     20  C   UNL     1       4.757  -2.063  -2.463  0.00  0.00    +0.006 A 
ENDBRANCH   9  15
ENDBRANCH   4   6
ENDBRANCH   1   2
BRANCH   1  21
ATOM     21  S   UNL     1      -2.722   0.758  -0.391  0.00  0.00    -0.077 S 
BRANCH  21  33
ATOM     22  C   UNL     1     -11.154   6.337   1.187  0.00  0.00    +0.008 C 
ATOM     23  C   UNL     1      -9.783   5.661   1.245  0.00  0.00    -0.009 C 
ATOM     24  C   UNL     1      -8.825   6.358   0.275  0.00  0.00    +0.008 C 
ATOM     25  C   UNL     1      -7.398   5.859   0.505  0.00  0.00    +0.037 C 
ATOM     26  C   UNL     1      -7.395   4.334   0.451  0.00  0.00    -0.025 A 
ATOM     27  C   UNL     1      -8.539   3.637   0.603  0.00  0.00    -0.004 A 
ATOM     28  S   UNL     1      -8.064   1.934   0.469  0.00  0.00    -0.073 S 
ATOM     29  C   UNL     1      -6.324   2.161   0.210  0.00  0.00    +0.115 A 
ATOM     30  C   UNL     1      -6.169   3.562   0.235  0.00  0.00    +0.051 A 
ATOM     31  C   UNL     1      -4.841   4.036   0.048  0.00  0.00    +0.129 A 
ATOM     32  N   UNL     1      -3.862   3.164  -0.128  0.00  0.00    -0.207 NA
ATOM     33  C   UNL     1      -4.079   1.855  -0.145  0.00  0.00    +0.191 A 
ATOM     34  N   UNL     1      -5.296   1.356   0.024  0.00  0.00    -0.214 NA
ATOM     35  C   UNL     1      -9.913   4.187   0.834  0.00  0.00    +0.046 C 
BRANCH  31  36
ATOM     36  N   UNL     1      -4.576   5.393   0.054  0.00  0.00    -0.343 N 
ATOM     37  H   UNL     1      -3.547   5.753  -0.092  0.00  0.00    +0.144 HD
ATOM     38  H   UNL     1      -5.394   6.113   0.204  0.00  0.00    +0.144 HD
ENDBRANCH  31  36
ENDBRANCH  21  33
ENDBRANCH   1  21
TORSDOF 6
