REMARK  Name = ZINC19940705
REMARK  8 active torsions:
REMARK  status: ('A' for Active; 'I' for Inactive)
REMARK    1  A    between atoms: C_1  and  C_2
REMARK    2  A    between atoms: C_2  and  C_3
REMARK    3  A    between atoms: C_10  and  C_15
REMARK    4  A    between atoms: C_15  and  C_17
REMARK    5  A    between atoms: C_15  and  N_28
REMARK    6  A    between atoms: N_21  and  C_22
REMARK    7  A    between atoms: N_31  and  C_34
REMARK    8  A    between atoms: C_34  and  C_35
REMARK                            x       y       z     vdW  Elec       q    Type
REMARK                         _______ _______ _______ _____ _____    ______ ____
ROOT
ATOM      1  C   UNL     1       1.029  -2.556   4.935  0.00  0.00    +0.162 C 
ENDROOT
BRANCH   1   9
ATOM      2  C   UNL     1       6.452  -4.142   7.457  0.00  0.00    -0.047 A 
ATOM      3  C   UNL     1       6.974  -2.857   7.526  0.00  0.00    +0.005 A 
ATOM      4  C   UNL     1       6.243  -1.777   7.081  0.00  0.00    +0.026 A 
ATOM      5  C   UNL     1       4.969  -1.974   6.558  0.00  0.00    +0.049 A 
ATOM      6  C   UNL     1       4.444  -3.278   6.490  0.00  0.00    -0.001 A 
ATOM      7  C   UNL     1       5.204  -4.359   6.947  0.00  0.00    +0.013 A 
ATOM      8  C   UNL     1       3.102  -3.474   5.937  0.00  0.00    +0.021 A 
ATOM      9  C   UNL     1       2.412  -2.389   5.509  0.00  0.00    +0.042 A 
ATOM     10  C   UNL     1       2.987  -1.102   5.595  0.00  0.00    +0.254 A 
ATOM     11  O   UNL     1       2.352  -0.140   5.200  0.00  0.00    -0.268 OA
ATOM     12  N   UNL     1       4.216  -0.911   6.106  0.00  0.00    -0.322 N 
ATOM     13  H   UNL     1       4.619   0.111   6.160  0.00  0.00    +0.169 HD
BRANCH   2  15
ATOM     14  C   UNL     1       8.114  -5.862   6.799  0.00  0.00    +0.009 C 
ATOM     15  C   UNL     1       7.271  -5.308   7.950  0.00  0.00    +0.032 C 
ENDBRANCH   2  15
ENDBRANCH   1   9
BRANCH   1  16
ATOM     16  N   UNL     1       0.969  -1.923   3.611  0.00  0.00    -0.286 NA
ATOM     17  C   UNL     1       1.954  -2.518   2.697  0.00  0.00    +0.101 C 
ATOM     18  C   UNL     1       1.914  -1.780   1.357  0.00  0.00    +0.100 C 
ATOM     19  N   UNL     1       0.559  -1.865   0.794  0.00  0.00    -0.296 NA
ATOM     20  C   UNL     1      -0.426  -1.270   1.708  0.00  0.00    +0.100 C 
ATOM     21  C   UNL     1      -0.386  -2.008   3.048  0.00  0.00    +0.101 C 
BRANCH  19  22
ATOM     22  C   UNL     1       0.499  -1.231  -0.530  0.00  0.00    +0.119 C 
BRANCH  22  23
ATOM     23  C   UNL     1      -0.824  -1.548  -1.178  0.00  0.00    -0.033 A 
ATOM     24  C   UNL     1      -0.953  -2.673  -1.972  0.00  0.00    +0.005 A 
ATOM     25  C   UNL     1      -2.168  -2.967  -2.563  0.00  0.00    +0.000 A 
ATOM     26  C   UNL     1      -3.251  -2.130  -2.369  0.00  0.00    +0.000 A 
ATOM     27  C   UNL     1      -3.121  -1.002  -1.580  0.00  0.00    +0.000 A 
ATOM     28  C   UNL     1      -1.907  -0.712  -0.985  0.00  0.00    +0.005 A 
ENDBRANCH  22  23
ENDBRANCH  19  22
ENDBRANCH   1  16
BRANCH   1  29
ATOM     29  C   UNL     1       0.023  -1.905   5.849  0.00  0.00    +0.173 A 
ATOM     30  N   UNL     1      -0.194  -0.620   5.986  0.00  0.00    -0.111 NA
ATOM     31  N   UNL     1      -1.129  -0.465   6.859  0.00  0.00    -0.023 NA
ATOM     32  N   UNL     1      -1.513  -1.618   7.283  0.00  0.00    -0.044 NA
ATOM     33  N   UNL     1      -0.830  -2.532   6.681  0.00  0.00    -0.224 N 
BRANCH  33  34
ATOM     34  C   UNL     1      -0.958  -3.979   6.869  0.00  0.00    +0.111 C 
ATOM     35  C   UNL     1      -2.379  -4.417   6.509  0.00  0.00    +0.027 C 
ATOM     36  C   UNL     1      -2.511  -5.929   6.706  0.00  0.00    +0.002 C 
ATOM     37  C   UNL     1      -2.223  -6.280   8.167  0.00  0.00    +0.000 C 
ATOM     38  C   UNL     1      -0.802  -5.842   8.526  0.00  0.00    +0.002 C 
ATOM     39  C   UNL     1      -0.669  -4.331   8.330  0.00  0.00    +0.027 C 
ENDBRANCH  33  34
ENDBRANCH   1  29
TORSDOF 7
