REMARK  Name = ZINC22111799
REMARK  7 active torsions:
REMARK  status: ('A' for Active; 'I' for Inactive)
REMARK    1  A    between atoms: C_1  and  C_2
REMARK    2  A    between atoms: C_7  and  C_13
REMARK    3  A    between atoms: C_13  and  S_14
REMARK    4  A    between atoms: S_14  and  C_15
REMARK    5  A    between atoms: C_16  and  C_24
REMARK    6  A    between atoms: C_18  and  C_22
REMARK    7  A    between atoms: C_19  and  N_21
REMARK                            x       y       z     vdW  Elec       q    Type
REMARK                         _______ _______ _______ _____ _____    ______ ____
ROOT
ATOM      1  S   UNL     1      -1.551  -6.892   0.665  0.00  0.00    -0.098 S 
ENDROOT
BRANCH   1   2
ATOM      2  C   UNL     1      -1.365  -8.644   0.669  0.00  0.00    +0.117 A 
ATOM      3  C   UNL     1      -2.468  -9.462   0.353  0.00  0.00    +0.085 A 
ATOM      4  C   UNL     1      -2.309 -10.850   0.360  0.00  0.00    +0.043 A 
ATOM      5  C   UNL     1      -1.053 -11.371   0.682  0.00  0.00    +0.092 A 
ATOM      6  C   UNL     1      -0.000 -10.486   0.987  0.00  0.00    +0.135 A 
ATOM      7  N   UNL     1      -0.188  -9.176   0.965  0.00  0.00    -0.224 NA
BRANCH   6   8
ATOM      8  N   UNL     1       1.244 -10.990   1.307  0.00  0.00    -0.342 N 
ATOM      9  H   UNL     1       1.389 -11.949   1.321  0.00  0.00    +0.144 HD
ATOM     10  H   UNL     1       1.973 -10.386   1.518  0.00  0.00    +0.144 HD
ENDBRANCH   6   8
BRANCH   5  11
ATOM     11  C   UNL     1      -0.839 -12.787   0.704  0.00  0.00    +0.103 C 
ATOM     12  N   UNL     1      -0.669 -13.910   0.720  0.00  0.00    -0.191 NA
ENDBRANCH   5  11
BRANCH   3  13
ATOM     13  C   UNL     1      -3.735  -8.879   0.030  0.00  0.00    +0.102 C 
ATOM     14  N   UNL     1      -4.740  -8.416  -0.226  0.00  0.00    -0.191 NA
ENDBRANCH   3  13
ENDBRANCH   1   2
BRANCH   1  15
ATOM     15  C   UNL     1       0.095  -6.274   1.112  0.00  0.00    +0.131 C 
BRANCH  15  22
ATOM     16  C   UNL     1      -0.018   1.503   0.010  0.00  0.00    +0.045 C 
ATOM     17  C   UNL     1       0.002  -0.004   0.002  0.00  0.00    -0.034 A 
ATOM     18  C   UNL     1       0.006  -0.697  -1.217  0.00  0.00    +0.008 A 
ATOM     19  C   UNL     1       0.025  -2.059  -1.216  0.00  0.00    +0.047 A 
ATOM     20  C   UNL     1       0.040  -2.750   0.010  0.00  0.00    +0.141 A 
ATOM     21  N   UNL     1       0.059  -4.082   0.013  0.00  0.00    -0.233 NA
ATOM     22  C   UNL     1       0.074  -4.768   1.145  0.00  0.00    +0.059 A 
ATOM     23  C   UNL     1       0.071  -4.104   2.356  0.00  0.00    +0.094 A 
ATOM     24  C   UNL     1       0.051  -2.704   2.361  0.00  0.00    +0.259 A 
ATOM     25  O   UNL     1       0.048  -2.088   3.415  0.00  0.00    -0.267 OA
ATOM     26  N   UNL     1       0.037  -2.046   1.182  0.00  0.00    -0.268 N 
ATOM     27  C   UNL     1       0.022  -0.685   1.170  0.00  0.00    +0.099 A 
ENDBRANCH  15  22
ENDBRANCH   1  15
TORSDOF 6
