REMARK  Name = ZINC35918629
REMARK  11 active torsions:
REMARK  status: ('A' for Active; 'I' for Inactive)
REMARK    1  A    between atoms: C_1  and  O_2
REMARK    2  A    between atoms: O_2  and  C_3
REMARK    3  A    between atoms: C_3  and  C_4
REMARK    4  A    between atoms: N_6  and  C_7
REMARK    5  A    between atoms: N_6  and  C_33
REMARK    6  A    between atoms: C_7  and  C_8
REMARK    7  A    between atoms: N_11  and  C_23
REMARK    8  A    between atoms: C_13  and  C_15
REMARK    9  A    between atoms: C_19  and  O_21
REMARK   10  A    between atoms: O_21  and  C_22
REMARK   11  A    between atoms: C_23  and  C_24
REMARK                            x       y       z     vdW  Elec       q    Type
REMARK                         _______ _______ _______ _____ _____    ______ ____
ROOT
ATOM      1  C   UNL     1      -0.126  -4.700  -2.691  0.00  0.00    -0.005 C 
ATOM      2  C   UNL     1       0.033  -4.407  -4.198  0.00  0.00    -0.073 C 
ATOM      3  N   UNL     1       0.510  -5.688  -4.780  0.00  0.00    +0.383 N 
ATOM      4  C   UNL     1      -0.265  -6.729  -4.057  0.00  0.00    -0.070 C 
ATOM      5  C   UNL     1      -0.324  -6.227  -2.596  0.00  0.00    +0.005 C 
ATOM      6  H   UNL     1       1.498  -5.805  -4.614  0.00  0.00    -0.081 HD
ENDROOT
BRANCH   5   7
ATOM      7  C   UNL     1      -1.664  -6.544  -1.985  0.00  0.00    -0.042 A 
ATOM      8  C   UNL     1      -2.824  -6.112  -2.601  0.00  0.00    +0.004 A 
ATOM      9  C   UNL     1      -4.056  -6.402  -2.043  0.00  0.00    +0.004 A 
ATOM     10  C   UNL     1      -4.130  -7.123  -0.867  0.00  0.00    +0.045 A 
ATOM     11  C   UNL     1      -2.968  -7.558  -0.247  0.00  0.00    +0.120 A 
ATOM     12  C   UNL     1      -1.734  -7.271  -0.812  0.00  0.00    +0.049 A 
BRANCH  11  13
ATOM     13  O   UNL     1      -3.039  -8.268   0.910  0.00  0.00    -0.495 OA
ATOM     14  C   UNL     1      -4.343  -8.531   1.431  0.00  0.00    +0.277 C 
ENDBRANCH  11  13
ENDBRANCH   5   7
BRANCH   1  15
ATOM     15  C   UNL     1       1.134  -4.279  -1.932  0.00  0.00    +0.110 C 
BRANCH  15  18
ATOM     16  C   UNL     1       0.696  -2.076  -0.989  0.00  0.00    +0.242 C 
ATOM     17  O   UNL     1       0.720  -0.866  -1.060  0.00  0.00    -0.273 OA
ATOM     18  N   UNL     1       1.258  -2.820  -1.962  0.00  0.00    -0.296 N 
BRANCH  18  19
ATOM     19  C   UNL     1       1.992  -2.169  -3.050  0.00  0.00    +0.076 C 
ATOM     20  C   UNL     1       3.166  -1.377  -2.470  0.00  0.00    +0.022 C 
ATOM     21  C   UNL     1       3.933  -0.698  -3.606  0.00  0.00    +0.002 C 
ATOM     22  C   UNL     1       2.997   0.253  -4.356  0.00  0.00    +0.000 C 
ATOM     23  C   UNL     1       1.823  -0.539  -4.936  0.00  0.00    +0.002 C 
ATOM     24  C   UNL     1       1.056  -1.219  -3.800  0.00  0.00    +0.022 C 
ENDBRANCH  18  19
BRANCH  16  25
ATOM     25  C   UNL     1       0.037  -2.748   0.189  0.00  0.00    +0.255 C 
BRANCH  25  27
ATOM     26  C   UNL     1      -1.200  -2.292   2.191  0.00  0.00    +0.194 C 
ATOM     27  O   UNL     1      -0.546  -1.758   1.038  0.00  0.00    -0.374 OA
ENDBRANCH  25  27
ENDBRANCH  16  25
ENDBRANCH  15  18
ENDBRANCH   1  15
BRANCH   3  28
ATOM     28  C   UNL     1       0.219  -5.738  -6.220  0.00  0.00    -0.043 C 
BRANCH  28  29
ATOM     29  C   UNL     1       0.819  -6.988  -6.810  0.00  0.00    -0.060 A 
ATOM     30  C   UNL     1       2.111  -6.967  -7.301  0.00  0.00    +0.005 A 
ATOM     31  C   UNL     1       2.666  -8.111  -7.843  0.00  0.00    +0.050 A 
ATOM     32  C   UNL     1       1.927  -9.282  -7.896  0.00  0.00    +0.166 A 
ATOM     33  C   UNL     1       0.625  -9.303  -7.402  0.00  0.00    +0.166 A 
ATOM     34  C   UNL     1       0.078  -8.154  -6.854  0.00  0.00    +0.051 A 
ATOM     35  O   UNL     1       0.116 -10.559  -7.567  0.00  0.00    -0.453 OA
ATOM     36  C   UNL     1       0.970 -11.195  -8.536  0.00  0.00    +0.466 C 
ATOM     37  O   UNL     1       2.233 -10.525  -8.372  0.00  0.00    -0.453 OA
ENDBRANCH  28  29
ENDBRANCH   3  28
TORSDOF 9
