REMARK  Name = ZINC09714364
REMARK  7 active torsions:
REMARK  status: ('A' for Active; 'I' for Inactive)
REMARK    1  A    between atoms: C_1  and  C_2
REMARK    2  A    between atoms: C_5  and  C_35
REMARK    3  A    between atoms: C_6  and  C_8
REMARK    4  A    between atoms: C_8  and  N_64
REMARK    5  A    between atoms: N_18  and  C_19
REMARK    6  A    between atoms: C_19  and  C_20
REMARK    7  A    between atoms: N_33  and  C_34
REMARK                            x       y       z     vdW  Elec       q    Type
REMARK                         _______ _______ _______ _____ _____    ______ ____
ROOT
ATOM      1  C   UNL     1      -0.276   1.127   0.180  0.00  0.00    -0.059 C 
ATOM      2  C   UNL     1      -0.984   1.628  -1.081  0.00  0.00    +0.089 C 
ATOM      3  N   UNL     1      -0.867   3.091  -1.157  0.00  0.00    -0.304 N 
ATOM      4  C   UNL     1      -1.466   3.727   0.024  0.00  0.00    +0.089 C 
ATOM      5  C   UNL     1      -0.757   3.227   1.284  0.00  0.00    -0.059 C 
ATOM      6  C   UNL     1      -1.432   3.571  -2.317  0.00  0.00    +0.201 A 
ATOM      7  N   UNL     1      -2.279   2.912  -3.080  0.00  0.00    -0.196 NA
ATOM      8  C   UNL     1      -2.634   3.665  -4.122  0.00  0.00    +0.170 A 
ATOM      9  C   UNL     1      -1.960   4.877  -4.013  0.00  0.00    +0.153 A 
ATOM     10  N   UNL     1      -1.198   4.797  -2.855  0.00  0.00    -0.302 N 
ATOM     11  C   UNL     1      -2.155   5.862  -4.998  0.00  0.00    +0.280 A 
ATOM     12  O   UNL     1      -1.575   6.931  -4.922  0.00  0.00    -0.265 OA
ATOM     13  N   UNL     1      -2.990   5.611  -6.027  0.00  0.00    -0.273 N 
ATOM     14  H   UNL     1      -3.131   6.309  -6.728  0.00  0.00    +0.173 HD
ATOM     15  C   UNL     1      -3.636   4.436  -6.123  0.00  0.00    +0.331 A 
ATOM     16  O   UNL     1      -4.382   4.245  -7.065  0.00  0.00    -0.246 OA
ATOM     17  N   UNL     1      -3.479   3.466  -5.202  0.00  0.00    -0.280 N 
ATOM     18  C   UNL     1      -4.202   2.200  -5.343  0.00  0.00    +0.155 C 
ATOM     19  N   UNL     1      -0.902   1.757   1.361  0.00  0.00    +0.384 N 
ATOM     20  H   UNL     1      -1.901   1.521   1.375  0.00  0.00    -0.081 HD
ENDROOT
BRANCH  19  21
ATOM     21  C   UNL     1      -0.271   1.251   2.599  0.00  0.00    -0.043 C 
BRANCH  21  27
ATOM     22  C   UNL     1       0.590   4.912   5.900  0.00  0.00    +0.044 C 
ATOM     23  C   UNL     1      -0.314   3.842   5.345  0.00  0.00    -0.050 A 
ATOM     24  C   UNL     1      -1.560   3.630   5.905  0.00  0.00    +0.003 A 
ATOM     25  C   UNL     1      -2.388   2.648   5.395  0.00  0.00    +0.004 A 
ATOM     26  C   UNL     1      -1.971   1.878   4.325  0.00  0.00    -0.049 A 
ATOM     27  C   UNL     1      -0.726   2.090   3.765  0.00  0.00    -0.061 A 
ATOM     28  C   UNL     1       0.105   3.069   4.278  0.00  0.00    +0.005 A 
ATOM     29  C   UNL     1      -2.874   0.807   3.770  0.00  0.00    +0.044 C 
ENDBRANCH  21  27
ENDBRANCH  19  21
BRANCH  10  30
ATOM     30  C   UNL     1      -0.314   5.834  -2.317  0.00  0.00    +0.162 C 
BRANCH  30  31
ATOM     31  C   UNL     1       1.024   5.760  -3.008  0.00  0.00    -0.009 A 
ATOM     32  C   UNL     1       1.322   6.639  -4.032  0.00  0.00    +0.007 A 
ATOM     33  C   UNL     1       2.549   6.572  -4.666  0.00  0.00    +0.000 A 
ATOM     34  C   UNL     1       3.478   5.626  -4.275  0.00  0.00    +0.001 A 
ATOM     35  C   UNL     1       3.181   4.747  -3.251  0.00  0.00    +0.020 A 
ATOM     36  C   UNL     1       1.955   4.817  -2.613  0.00  0.00    +0.046 A 
ATOM     37 CL   UNL     1       1.584   3.718  -1.321  0.00  0.00    -0.083 Cl
ENDBRANCH  30  31
ENDBRANCH  10  30
TORSDOF 4
