REMARK  Name = ZINC09224081
REMARK  6 active torsions:
REMARK  status: ('A' for Active; 'I' for Inactive)
REMARK    1  A    between atoms: C_1  and  N_2
REMARK    2  A    between atoms: N_7  and  C_10
REMARK    3  A    between atoms: N_11  and  C_14
REMARK    4  A    between atoms: C_14  and  C_15
REMARK    5  A    between atoms: C_18  and  C_28
REMARK    6  A    between atoms: C_21  and  C_23
REMARK                            x       y       z     vdW  Elec       q    Type
REMARK                         _______ _______ _______ _____ _____    ______ ____
ROOT
ATOM      1  C   UNL     1      -0.742   1.585  -1.213  0.00  0.00    +0.255 C 
ATOM      2  O   UNL     1      -1.736   2.268  -1.088  0.00  0.00    -0.272 OA
ATOM      3  N   UNL     1      -0.288   1.272  -2.443  0.00  0.00    -0.183 N 
ATOM      4  C   UNL     1      -0.902   1.692  -3.713  0.00  0.00    +0.144 C 
ATOM      5  C   UNL     1       0.013   1.063  -4.783  0.00  0.00    +0.090 C 
ATOM      6  C   UNL     1       1.069   0.339  -3.980  0.00  0.00    +0.104 C 
ATOM      7  N   UNL     1       0.841   0.504  -2.720  0.00  0.00    -0.178 NA
ENDROOT
BRANCH   6   8
ATOM      8  C   UNL     1       2.184  -0.428  -4.544  0.00  0.00    +0.150 A 
ATOM      9  C   UNL     1       3.145  -1.087  -3.834  0.00  0.00    +0.051 A 
ATOM     10  C   UNL     1       4.007  -1.681  -4.774  0.00  0.00    +0.042 A 
ATOM     11  C   UNL     1       3.539  -1.362  -5.998  0.00  0.00    +0.196 A 
ATOM     12  O   UNL     1       2.436  -0.610  -5.856  0.00  0.00    -0.462 OA
ENDBRANCH   6   8
BRANCH   4  13
ATOM     13  C   UNL     1      -0.901   3.194  -3.831  0.00  0.00    +0.013 A 
ATOM     14  C   UNL     1      -1.854   4.011  -4.342  0.00  0.00    +0.013 A 
ATOM     15  C   UNL     1      -1.636   5.376  -4.346  0.00  0.00    +0.008 A 
ATOM     16  C   UNL     1      -0.474   5.857  -3.840  0.00  0.00    +0.045 A 
ATOM     17  S   UNL     1       0.354   4.361  -3.328  0.00  0.00    -0.100 S 
ENDBRANCH   4  13
BRANCH   1  18
ATOM     18  C   UNL     1      -0.013   1.086   0.008  0.00  0.00    +0.221 C 
BRANCH  18  29
ATOM     19  C   UNL     1      -3.487   2.203   4.912  0.00  0.00    +0.155 C 
ATOM     20  N   UNL     1      -3.139   1.382   3.749  0.00  0.00    -0.280 N 
ATOM     21  C   UNL     1      -2.084   1.752   2.931  0.00  0.00    +0.168 A 
ATOM     22  C   UNL     1      -1.774   0.957   1.835  0.00  0.00    +0.152 A 
ATOM     23  C   UNL     1      -2.541  -0.202   1.588  0.00  0.00    +0.282 A 
ATOM     24  O   UNL     1      -2.289  -0.915   0.633  0.00  0.00    -0.265 OA
ATOM     25  N   UNL     1      -3.557  -0.510   2.421  0.00  0.00    -0.262 N 
ATOM     26  C   UNL     1      -3.846   0.268   3.478  0.00  0.00    +0.333 A 
ATOM     27  O   UNL     1      -4.768  -0.041   4.207  0.00  0.00    -0.246 OA
ATOM     28  C   UNL     1      -4.356  -1.712   2.170  0.00  0.00    +0.157 C 
ATOM     29  N   UNL     1      -0.698   1.558   1.213  0.00  0.00    -0.316 N 
ATOM     30  C   UNL     1      -0.395   2.659   1.929  0.00  0.00    +0.202 A 
ATOM     31  N   UNL     1      -1.220   2.771   2.938  0.00  0.00    -0.218 NA
ENDBRANCH  18  29
ENDBRANCH   1  18
TORSDOF 4
