REMARK  Name = ZINC40805329
REMARK  3 active torsions:
REMARK  status: ('A' for Active; 'I' for Inactive)
REMARK    1  A    between atoms: C_1  and  C_2
REMARK    2  A    between atoms: C_11  and  C_13
REMARK    3  A    between atoms: C_11  and  C_14
REMARK                            x       y       z     vdW  Elec       q    Type
REMARK                         _______ _______ _______ _____ _____    ______ ____
ROOT
ATOM      1  C   UNL     1      -0.018   1.503   0.010  0.00  0.00    +0.044 C 
ATOM      2  C   UNL     1       0.002  -0.004   0.002  0.00  0.00    -0.048 A 
ATOM      3  C   UNL     1       0.006  -0.687  -1.200  0.00  0.00    +0.007 A 
ATOM      4  C   UNL     1       0.019  -2.070  -1.216  0.00  0.00    +0.048 A 
ATOM      5  C   UNL     1       0.031  -2.773  -0.024  0.00  0.00    +0.144 A 
ATOM      6  C   UNL     1       0.038  -2.085   1.188  0.00  0.00    +0.076 A 
ATOM      7  C   UNL     1       0.023  -0.700   1.197  0.00  0.00    +0.030 A 
ATOM      8  N   UNL     1       0.086  -2.805   2.389  0.00  0.00    -0.279 N 
ATOM      9  C   UNL     1       0.342  -4.129   2.355  0.00  0.00    +0.270 C 
ATOM     10  O   UNL     1       0.279  -4.788   3.371  0.00  0.00    -0.271 OA
ATOM     11  C   UNL     1       0.706  -4.787   1.048  0.00  0.00    +0.258 C 
ATOM     12  O   UNL     1       0.025  -4.133  -0.026  0.00  0.00    -0.465 OA
ATOM     13  C   UNL     1       2.217  -4.684   0.830  0.00  0.00    +0.076 C 
ATOM     14  H   UNL     1      -0.063  -2.356   3.236  0.00  0.00    +0.155 HD
ENDROOT
BRANCH  11  15
ATOM     15  C   UNL     1       0.304  -6.238   1.087  0.00  0.00    +0.271 C 
ATOM     16  O   UNL     1       0.207  -6.812   2.151  0.00  0.00    -0.270 OA
ATOM     17  N   UNL     1       0.052  -6.899  -0.060  0.00  0.00    -0.264 N 
ATOM     18  C   UNL     1      -0.321  -8.243  -0.024  0.00  0.00    +0.168 A 
ATOM     19  C   UNL     1      -0.478  -9.031   1.138  0.00  0.00    +0.088 A 
ATOM     20  C   UNL     1      -0.843 -10.268   0.757  0.00  0.00    +0.232 A 
ATOM     21  O   UNL     1      -0.921 -10.288  -0.582  0.00  0.00    -0.361 OA
ATOM     22  N   UNL     1      -0.592  -8.995  -1.059  0.00  0.00    -0.063 NA
ATOM     23  H   UNL     1       0.129  -6.440  -0.911  0.00  0.00    +0.156 HD
ENDBRANCH  11  15
TORSDOF 1
