REMARK  Name = ZINC10251741
REMARK  7 active torsions:
REMARK  status: ('A' for Active; 'I' for Inactive)
REMARK    1  A    between atoms: C_1  and  C_2
REMARK    2  A    between atoms: C_5  and  N_27
REMARK    3  A    between atoms: C_7  and  S_8
REMARK    4  A    between atoms: S_8  and  N_11
REMARK    5  A    between atoms: N_11  and  C_12
REMARK    6  A    between atoms: C_15  and  C_18
REMARK    7  A    between atoms: C_21  and  C_26
REMARK                            x       y       z     vdW  Elec       q    Type
REMARK                         _______ _______ _______ _____ _____    ______ ____
ROOT
ATOM      1  N   UNL     1      -5.958   1.304   1.407  0.00  0.00    -0.216 N 
ATOM      2  H   UNL     1      -6.091   0.581   2.040  0.00  0.00    +0.174 HD
ENDROOT
BRANCH   1   3
ATOM      3  C   UNL     1      -6.441   2.583   1.695  0.00  0.00    +0.048 A 
ATOM      4  C   UNL     1      -5.626   3.692   1.499  0.00  0.00    +0.025 A 
ATOM      5  C   UNL     1      -6.102   4.956   1.777  0.00  0.00    +0.012 A 
ATOM      6  C   UNL     1      -7.398   5.119   2.266  0.00  0.00    +0.002 A 
ATOM      7  C   UNL     1      -8.211   4.005   2.467  0.00  0.00    +0.012 A 
ATOM      8  C   UNL     1      -7.732   2.744   2.182  0.00  0.00    +0.025 A 
BRANCH   6   9
ATOM      9  C   UNL     1      -7.910   6.478   2.572  0.00  0.00    +0.090 A 
ATOM     10  C   UNL     1      -7.225   7.638   2.428  0.00  0.00    +0.121 A 
ATOM     11  N   UNL     1      -8.065   8.674   2.821  0.00  0.00    -0.297 N 
ATOM     12  C   UNL     1      -8.020  10.048   2.925  0.00  0.00    +0.029 A 
ATOM     13  C   UNL     1      -9.072  10.733   3.371  0.00  0.00    +0.070 A 
ATOM     14  S   UNL     1     -10.252   9.432   3.690  0.00  0.00    -0.057 S 
ATOM     15  C   UNL     1      -9.233   8.062   3.196  0.00  0.00    +0.178 A 
ATOM     16  N   UNL     1      -9.137   6.773   3.048  0.00  0.00    -0.221 NA
ATOM     17  C   UNL     1      -6.766  10.783   2.530  0.00  0.00    +0.064 C 
ENDBRANCH   6   9
ENDBRANCH   1   3
BRANCH   1  18
ATOM     18  S   UNL     1      -5.158   1.021  -0.015  0.00  0.00    +0.073 S 
ATOM     19  O   UNL     1      -5.937   1.616  -1.044  0.00  0.00    -0.150 OA
ATOM     20  O   UNL     1      -4.814  -0.358  -0.021  0.00  0.00    -0.150 OA
BRANCH  18  27
ATOM     21  C   UNL     1      -2.943   0.470   1.970  0.00  0.00    +0.046 C 
ATOM     22  C   UNL     1      -2.688   1.592   0.997  0.00  0.00    -0.024 A 
ATOM     23  C   UNL     1      -1.499   2.296   1.049  0.00  0.00    +0.007 A 
ATOM     24  C   UNL     1      -1.263   3.322   0.154  0.00  0.00    +0.033 A 
ATOM     25  C   UNL     1      -2.220   3.651  -0.788  0.00  0.00    +0.128 A 
ATOM     26  C   UNL     1      -3.409   2.948  -0.840  0.00  0.00    +0.061 A 
ATOM     27  C   UNL     1      -3.643   1.918   0.052  0.00  0.00    +0.114 A 
BRANCH  25  28
ATOM     28  N   UNL     1      -1.970   4.753  -1.743  0.00  0.00    +0.056 N 
ATOM     29  O   UNL     1      -2.811   5.041  -2.576  0.00  0.00    -0.126 OA
ATOM     30  O   UNL     1      -0.925   5.377  -1.694  0.00  0.00    -0.126 OA
ENDBRANCH  25  28
ENDBRANCH  18  27
ENDBRANCH   1  18
TORSDOF 5
