REMARK  Name = ZINC17043620
REMARK  3 active torsions:
REMARK  status: ('A' for Active; 'I' for Inactive)
REMARK    1  A    between atoms: C_4  and  N_7
REMARK    2  A    between atoms: N_9  and  C_23
REMARK    3  A    between atoms: C_13  and  C_16
REMARK                            x       y       z     vdW  Elec       q    Type
REMARK                         _______ _______ _______ _____ _____    ______ ____
ROOT
ATOM      1  N   UNL     1       0.352  -1.028   1.421  0.00  0.00    -0.225 NA
ATOM      2  C   UNL     1       0.553  -0.188   0.433  0.00  0.00    +0.168 C 
ATOM      3  N   UNL     1       0.908  -0.642  -0.823  0.00  0.00    -0.219 N 
ATOM      4  C   UNL     1       1.446   0.121  -1.766  0.00  0.00    +0.227 C 
ATOM      5  O   UNL     1       1.779  -0.440  -2.788  0.00  0.00    -0.275 OA
ATOM      6  C   UNL     1       1.685   1.593  -1.708  0.00  0.00    +0.116 C 
ATOM      7  C   UNL     1       1.827   2.096  -0.272  0.00  0.00    +0.093 C 
ATOM      8  S   UNL     1       0.374   1.555   0.674  0.00  0.00    -0.081 S 
ENDROOT
BRANCH   7   9
ATOM      9  C   UNL     1       1.902   3.601  -0.268  0.00  0.00    -0.031 A 
ATOM     10  C   UNL     1       0.868   4.346  -0.803  0.00  0.00    +0.005 A 
ATOM     11  C   UNL     1       0.933   5.727  -0.796  0.00  0.00    +0.003 A 
ATOM     12  C   UNL     1       2.038   6.364  -0.263  0.00  0.00    +0.038 A 
ATOM     13  C   UNL     1       3.077   5.619   0.268  0.00  0.00    +0.124 A 
ATOM     14  C   UNL     1       3.008   4.236   0.264  0.00  0.00    +0.043 A 
ATOM     15  F   UNL     1       4.158   6.240   0.788  0.00  0.00    -0.205 F 
ENDBRANCH   7   9
BRANCH   1  19
ATOM     16  C   UNL     1      -0.711   0.390   5.160  0.00  0.00    +0.000 A 
ATOM     17  C   UNL     1      -1.378  -0.696   4.620  0.00  0.00    +0.002 A 
ATOM     18  C   UNL     1      -1.029  -1.173   3.374  0.00  0.00    +0.028 A 
ATOM     19  C   UNL     1       0.000  -0.559   2.658  0.00  0.00    +0.067 A 
ATOM     20  C   UNL     1       0.672   0.533   3.211  0.00  0.00    +0.028 A 
ATOM     21  C   UNL     1       0.309   1.004   4.456  0.00  0.00    +0.002 A 
ENDBRANCH   1  19
BRANCH   3  22
ATOM     22  C   UNL     1       0.688  -1.994  -1.119  0.00  0.00    +0.043 A 
ATOM     23  C   UNL     1       1.683  -2.931  -0.873  0.00  0.00    +0.024 A 
ATOM     24  C   UNL     1       1.461  -4.264  -1.161  0.00  0.00    +0.002 A 
ATOM     25  C   UNL     1       0.253  -4.664  -1.702  0.00  0.00    +0.000 A 
ATOM     26  C   UNL     1      -0.738  -3.732  -1.953  0.00  0.00    +0.002 A 
ATOM     27  C   UNL     1      -0.524  -2.399  -1.663  0.00  0.00    +0.024 A 
ENDBRANCH   3  22
TORSDOF 3
