REMARK  Name = ZINC15972399
REMARK  4 active torsions:
REMARK  status: ('A' for Active; 'I' for Inactive)
REMARK    1  A    between atoms: C_8  and  C_27
REMARK    2  A    between atoms: C_10  and  C_18
REMARK    3  A    between atoms: C_22  and  N_24
REMARK    4  A    between atoms: C_27  and  C_29
REMARK                            x       y       z     vdW  Elec       q    Type
REMARK                         _______ _______ _______ _____ _____    ______ ____
ROOT
ATOM      1  C   UNL     1       0.097   1.375  -0.095  0.00  0.00    +0.000 A 
ATOM      2  C   UNL     1       1.306   2.046  -0.120  0.00  0.00    +0.002 A 
ATOM      3  C   UNL     1       2.493   1.344  -0.117  0.00  0.00    +0.023 A 
ATOM      4  C   UNL     1       2.484  -0.049  -0.090  0.00  0.00    +0.039 A 
ATOM      5  C   UNL     1       1.262  -0.713  -0.066  0.00  0.00    +0.004 A 
ATOM      6  C   UNL     1       0.079  -0.009  -0.069  0.00  0.00    +0.008 A 
ATOM      7  C   UNL     1       1.589  -2.181  -0.040  0.00  0.00    +0.137 C 
ATOM      8  C   UNL     1       1.021  -2.852   1.216  0.00  0.00    +0.106 C 
ATOM      9  C   UNL     1       0.713  -4.296   0.771  0.00  0.00    +0.049 C 
ATOM     10  C   UNL     1       0.690  -4.264  -0.766  0.00  0.00    +0.066 C 
ATOM     11  N   UNL     1       1.015  -2.884  -1.190  0.00  0.00    -0.281 NA
ATOM     12  C   UNL     1       1.965  -2.940  -2.313  0.00  0.00    +0.086 C 
ATOM     13  C   UNL     1       2.207  -4.431  -2.631  0.00  0.00    +0.017 C 
ATOM     14  C   UNL     1       1.846  -5.149  -1.294  0.00  0.00    +0.021 C 
ATOM     15  C   UNL     1       3.095  -2.241  -0.051  0.00  0.00    +0.243 C 
ATOM     16  O   UNL     1       3.779  -3.242  -0.036  0.00  0.00    -0.273 OA
ATOM     17  N   UNL     1       3.534  -0.969  -0.082  0.00  0.00    -0.283 N 
ATOM     18  H   UNL     1       4.471  -0.720  -0.097  0.00  0.00    +0.155 HD
ENDROOT
BRANCH   9  19
ATOM     19  C   UNL     1      -0.628  -4.729   1.304  0.00  0.00    -0.040 A 
ATOM     20  C   UNL     1      -1.767  -4.018   0.972  0.00  0.00    +0.004 A 
ATOM     21  C   UNL     1      -2.997  -4.416   1.461  0.00  0.00    +0.002 A 
ATOM     22  C   UNL     1      -3.089  -5.525   2.281  0.00  0.00    +0.033 A 
ATOM     23  C   UNL     1      -1.951  -6.237   2.611  0.00  0.00    +0.126 A 
ATOM     24  C   UNL     1      -0.721  -5.841   2.119  0.00  0.00    +0.036 A 
BRANCH  23  25
ATOM     25  N   UNL     1      -2.050  -7.424   3.490  0.00  0.00    +0.056 N 
ATOM     26  O   UNL     1      -3.126  -7.772   3.918  0.00  0.00    -0.126 OA
ATOM     27  O   UNL     1      -1.055  -8.047   3.779  0.00  0.00    -0.126 OA
ENDBRANCH  23  25
ENDBRANCH   9  19
BRANCH   8  28
ATOM     28  C   UNL     1       2.041  -2.845   2.325  0.00  0.00    +0.204 C 
ATOM     29  O   UNL     1       2.783  -3.796   2.473  0.00  0.00    -0.288 OA
BRANCH  28  30
ATOM     30  C   UNL     1       2.136  -1.733   3.192  0.00  0.00    +0.170 A 
ATOM     31  C   UNL     1       3.023  -1.592   4.240  0.00  0.00    +0.053 A 
ATOM     32  C   UNL     1       2.760  -0.343   4.818  0.00  0.00    +0.042 A 
ATOM     33  C   UNL     1       1.747   0.218   4.119  0.00  0.00    +0.196 A 
ATOM     34  O   UNL     1       1.379  -0.617   3.139  0.00  0.00    -0.460 OA
ENDBRANCH  28  30
ENDBRANCH   8  28
TORSDOF 4
