REMARK  Name = ZINC41401380
REMARK  11 active torsions:
REMARK  status: ('A' for Active; 'I' for Inactive)
REMARK    1  A    between atoms: C_1  and  C_2
REMARK    2  A    between atoms: N_5  and  C_8
REMARK    3  A    between atoms: C_8  and  C_10
REMARK    4  A    between atoms: C_8  and  C_26
REMARK    5  A    between atoms: C_10  and  N_11
REMARK    6  A    between atoms: C_12  and  C_14
REMARK    7  A    between atoms: C_14  and  C_15
REMARK    8  A    between atoms: C_15  and  C_17
REMARK    9  A    between atoms: C_15  and  N_22
REMARK   10  A    between atoms: C_26  and  C_27
REMARK   11  A    between atoms: C_26  and  C_28
REMARK                            x       y       z     vdW  Elec       q    Type
REMARK                         _______ _______ _______ _____ _____    ______ ____
ROOT
ATOM      1  N   UNL     1       1.881  -3.914   2.386  0.00  0.00    -0.317 N 
ATOM      2  C   UNL     1       2.393  -4.255   3.586  0.00  0.00    +0.215 C 
ATOM      3  O   UNL     1       3.409  -4.916   3.646  0.00  0.00    -0.276 OA
ATOM      4  H   UNL     1       1.069  -3.386   2.338  0.00  0.00    +0.149 HD
ENDROOT
BRANCH   1   5
ATOM      5  C   UNL     1       2.551  -4.341   1.156  0.00  0.00    +0.089 C 
BRANCH   5   6
ATOM      6  C   UNL     1       1.883  -3.673  -0.047  0.00  0.00    -0.049 C 
BRANCH   6  11
ATOM      7  C   UNL     1       3.543   1.676   1.026  0.00  0.00    +0.007 C 
ATOM      8  C   UNL     1       3.296   0.170   1.132  0.00  0.00    -0.018 C 
ATOM      9  C   UNL     1       1.789  -0.104   1.110  0.00  0.00    -0.016 C 
ATOM     10  C   UNL     1       1.551  -1.615   1.136  0.00  0.00    -0.078 C 
ATOM     11  N   UNL     1       2.180  -2.234  -0.036  0.00  0.00    +0.383 N 
ATOM     12  C   UNL     1       3.634  -2.037   0.016  0.00  0.00    -0.078 C 
ATOM     13  C   UNL     1       3.952  -0.542  -0.054  0.00  0.00    -0.016 C 
ATOM     14  H   UNL     1       1.814  -1.811  -0.876  0.00  0.00    -0.081 HD
ENDBRANCH   6  11
BRANCH   6  15
ATOM     15  C   UNL     1       2.418  -4.294  -1.339  0.00  0.00    -0.029 C 
ATOM     16  C   UNL     1       2.003  -5.765  -1.407  0.00  0.00    +0.005 C 
ATOM     17  C   UNL     1       1.842  -3.546  -2.542  0.00  0.00    +0.005 C 
ENDBRANCH   6  15
ENDBRANCH   5   6
ENDBRANCH   1   5
BRANCH   2  18
ATOM     18  C   UNL     1       1.704  -3.816   4.852  0.00  0.00    +0.123 C 
BRANCH  18  19
ATOM     19  C   UNL     1       2.484  -4.332   6.062  0.00  0.00    +0.120 C 
BRANCH  19  20
ATOM     20  N   UNL     1       2.439  -5.796   6.085  0.00  0.00    -0.292 N 
ATOM     21  C   UNL     1       3.413  -6.491   6.705  0.00  0.00    +0.298 C 
ATOM     22  O   UNL     1       4.329  -5.902   7.247  0.00  0.00    -0.253 OA
ATOM     23  N   UNL     1       3.373  -7.838   6.726  0.00  0.00    -0.313 N 
ATOM     24  H   UNL     1       1.709  -6.266   5.653  0.00  0.00    +0.151 HD
ATOM     25  H   UNL     1       2.642  -8.307   6.294  0.00  0.00    +0.146 HD
ATOM     26  H   UNL     1       4.074  -8.338   7.172  0.00  0.00    +0.146 HD
ENDBRANCH  19  20
BRANCH  19  27
ATOM     27  C   UNL     1       1.865  -3.792   7.326  0.00  0.00    +0.010 A 
ATOM     28  C   UNL     1       2.260  -2.743   8.089  0.00  0.00    +0.013 A 
ATOM     29  C   UNL     1       1.531  -2.424   9.219  0.00  0.00    +0.008 A 
ATOM     30  C   UNL     1       0.443  -3.169   9.531  0.00  0.00    +0.045 A 
ATOM     31  S   UNL     1       0.418  -4.361   8.202  0.00  0.00    -0.100 S 
ENDBRANCH  19  27
ENDBRANCH  18  19
ENDBRANCH   2  18
TORSDOF 8
