REMARK  Name = ZINC11756765
REMARK  7 active torsions:
REMARK  status: ('A' for Active; 'I' for Inactive)
REMARK    1  A    between atoms: C_7  and  N_12
REMARK    2  A    between atoms: N_12  and  C_13
REMARK    3  A    between atoms: C_15  and  O_28
REMARK    4  A    between atoms: C_17  and  O_27
REMARK    5  A    between atoms: C_19  and  C_25
REMARK    6  A    between atoms: C_22  and  O_24
REMARK    7  A    between atoms: C_25  and  O_26
REMARK                            x       y       z     vdW  Elec       q    Type
REMARK                         _______ _______ _______ _____ _____    ______ ____
ROOT
ATOM      1  C   UNL     1       2.541   3.716   0.084  0.00  0.00    +0.159 C 
ATOM      2  C   UNL     1       1.146   3.087   0.016  0.00  0.00    +0.170 C 
ATOM      3  C   UNL     1       1.286   1.562  -0.002  0.00  0.00    +0.176 C 
ATOM      4  C   UNL     1       2.065   1.115   1.238  0.00  0.00    +0.178 C 
ATOM      5  O   UNL     1       3.340   1.760   1.257  0.00  0.00    -0.341 OA
ATOM      6  C   UNL     1       3.271   3.186   1.321  0.00  0.00    +0.270 C 
ENDROOT
BRANCH   1   7
ATOM      7  N   UNL     1       2.418   5.173   0.176  0.00  0.00    -0.318 N 
ATOM      8  H   UNL     1       1.610   5.570   0.537  0.00  0.00    +0.148 HD
BRANCH   7  15
ATOM      9  C   UNL     1       2.179   9.392   0.390  0.00  0.00    +0.001 A 
ATOM     10  C   UNL     1       3.255  10.155  -0.057  0.00  0.00    +0.002 A 
ATOM     11  C   UNL     1       4.375   9.563  -0.559  0.00  0.00    +0.028 A 
ATOM     12  C   UNL     1       4.448   8.165  -0.627  0.00  0.00    +0.077 A 
ATOM     13  C   UNL     1       3.350   7.391  -0.177  0.00  0.00    +0.040 A 
ATOM     14  C   UNL     1       2.217   8.030   0.338  0.00  0.00    +0.013 A 
ATOM     15  C   UNL     1       3.451   5.980  -0.252  0.00  0.00    +0.132 A 
ATOM     16  N   UNL     1       4.564   5.456  -0.749  0.00  0.00    -0.202 NA
ATOM     17  C   UNL     1       5.563   6.221  -1.163  0.00  0.00    +0.225 A 
ATOM     18  N   UNL     1       5.527   7.532  -1.113  0.00  0.00    -0.217 NA
ATOM     19 CL   UNL     1       6.984   5.454  -1.801  0.00  0.00    -0.041 Cl
ENDBRANCH   7  15
ENDBRANCH   1   7
BRANCH   6  20
ATOM     20  O   UNL     1       2.561   3.576   2.498  0.00  0.00    -0.365 OA
ATOM     21  H   UNL     1       2.968   3.273   3.321  0.00  0.00    +0.213 HD
ENDBRANCH   6  20
BRANCH   3  22
ATOM     22  O   UNL     1      -0.011   0.963   0.007  0.00  0.00    -0.387 OA
ATOM     23  H   UNL     1       0.002  -0.004   0.002  0.00  0.00    +0.210 HD
ENDBRANCH   3  22
BRANCH   2  24
ATOM     24  O   UNL     1       0.485   3.520  -1.175  0.00  0.00    -0.387 OA
ATOM     25  H   UNL     1      -0.403   3.154  -1.286  0.00  0.00    +0.210 HD
ENDBRANCH   2  24
BRANCH   4  26
ATOM     26  C   UNL     1       2.261  -0.402   1.198  0.00  0.00    +0.190 C 
BRANCH  26  27
ATOM     27  O   UNL     1       2.885  -0.835   2.409  0.00  0.00    -0.392 OA
ATOM     28  H   UNL     1       3.040  -1.788   2.453  0.00  0.00    +0.210 HD
ENDBRANCH  26  27
ENDBRANCH   4  26
TORSDOF 7
