REMARK  Name = ZINC39677284
REMARK  8 active torsions:
REMARK  status: ('A' for Active; 'I' for Inactive)
REMARK    1  A    between atoms: C_1  and  C_2
REMARK    2  A    between atoms: C_2  and  N_3
REMARK    3  A    between atoms: C_4  and  C_10
REMARK    4  A    between atoms: C_6  and  C_8
REMARK    5  A    between atoms: C_14  and  C_23
REMARK    6  A    between atoms: N_25  and  C_26
REMARK    7  A    between atoms: C_26  and  C_27
REMARK    8  A    between atoms: C_28  and  C_32
REMARK                            x       y       z     vdW  Elec       q    Type
REMARK                         _______ _______ _______ _____ _____    ______ ____
ROOT
ATOM      1  C   UNL     1      -1.431  -0.452  -2.905  0.00  0.00    +0.266 C 
ATOM      2  O   UNL     1      -1.781  -0.778  -4.023  0.00  0.00    -0.268 OA
ATOM      3  N   UNL     1      -2.321   0.093  -2.053  0.00  0.00    -0.295 N 
ATOM      4  C   UNL     1      -2.112   0.457  -0.631  0.00  0.00    +0.121 C 
ATOM      5  C   UNL     1      -2.872   1.790  -0.454  0.00  0.00    +0.100 C 
ATOM      6  C   UNL     1      -3.933   1.789  -1.567  0.00  0.00    -0.004 C 
ATOM      7  C   UNL     1      -3.728   0.470  -2.327  0.00  0.00    +0.115 C 
ATOM      8  C   UNL     1      -3.716   2.971  -2.506  0.00  0.00    -0.010 C 
ATOM      9  C   UNL     1      -4.817   2.981  -3.570  0.00  0.00    -0.082 C 
ATOM     10  N   UNL     1      -6.128   3.082  -2.919  0.00  0.00    +0.379 N 
ATOM     11  C   UNL     1      -6.369   1.895  -2.089  0.00  0.00    -0.082 C 
ATOM     12  C   UNL     1      -5.333   1.839  -0.962  0.00  0.00    -0.010 C 
ATOM     13  H   UNL     1      -6.152   3.907  -2.338  0.00  0.00    -0.086 HD
ATOM     14  H   UNL     1      -6.848   3.150  -3.623  0.00  0.00    -0.086 HD
ENDROOT
BRANCH   1  16
ATOM     15  N   UNL     1       0.958   0.287  -2.466  0.00  0.00    -0.258 N 
ATOM     16  C   UNL     1      -0.036  -0.651  -2.484  0.00  0.00    +0.138 A 
ATOM     17  C   UNL     1       0.534  -1.827  -2.025  0.00  0.00    +0.071 A 
ATOM     18  C   UNL     1       1.868  -1.510  -1.754  0.00  0.00    +0.075 A 
ATOM     19  N   UNL     1       2.047  -0.246  -2.043  0.00  0.00    -0.175 NA
ATOM     20  C   UNL     1       2.916  -2.457  -1.228  0.00  0.00    +0.069 C 
ATOM     21 BR   UNL     1      -0.313  -3.504  -1.809  0.00  0.00    -0.046 Br
BRANCH  15  23
ATOM     22  C   UNL     1       0.995   1.800  -4.388  0.00  0.00    +0.029 C 
ATOM     23  C   UNL     1       0.806   1.686  -2.874  0.00  0.00    +0.141 C 
ENDBRANCH  15  23
ENDBRANCH   1  16
BRANCH   5  24
ATOM     24  C   UNL     1      -3.530   1.843   0.901  0.00  0.00    +0.218 C 
ATOM     25  O   UNL     1      -3.836   0.816   1.467  0.00  0.00    -0.275 OA
ATOM     26  N   UNL     1      -3.776   3.033   1.485  0.00  0.00    -0.310 N 
ATOM     27  H   UNL     1      -3.601   3.856   1.002  0.00  0.00    +0.149 HD
BRANCH  26  28
ATOM     28  C   UNL     1      -4.310   3.084   2.848  0.00  0.00    +0.147 C 
BRANCH  28  29
ATOM     29  C   UNL     1      -4.495   4.521   3.262  0.00  0.00    +0.010 A 
ATOM     30  C   UNL     1      -5.582   5.318   3.118  0.00  0.00    -0.039 A 
ATOM     31  C   UNL     1      -5.525   6.620   3.579  0.00  0.00    +0.011 A 
ATOM     32  C   UNL     1      -4.383   7.061   4.161  0.00  0.00    +0.046 A 
ATOM     33  S   UNL     1      -3.341   5.614   4.076  0.00  0.00    -0.100 S 
ATOM     34  C   UNL     1      -6.834   4.792   2.465  0.00  0.00    +0.044 C 
ENDBRANCH  28  29
ENDBRANCH  26  28
ENDBRANCH   5  24
TORSDOF 5
