REMARK  Name = ZINC35707724
REMARK  14 active torsions:
REMARK  status: ('A' for Active; 'I' for Inactive)
REMARK    1  A    between atoms: C_1  and  C_2
REMARK    2  A    between atoms: C_2  and  C_3
REMARK    3  A    between atoms: C_3  and  C_4
REMARK    4  A    between atoms: C_4  and  C_5
REMARK    5  A    between atoms: C_8  and  C_11
REMARK    6  A    between atoms: N_13  and  C_14
REMARK    7  A    between atoms: C_14  and  C_16
REMARK    8  A    between atoms: C_14  and  C_17
REMARK    9  A    between atoms: C_20  and  S_31
REMARK   10  A    between atoms: N_21  and  C_22
REMARK   11  A    between atoms: C_25  and  N_28
REMARK   12  A    between atoms: S_31  and  C_32
REMARK   13  A    between atoms: C_32  and  C_33
REMARK   14  A    between atoms: C_38  and  C_39
REMARK                            x       y       z     vdW  Elec       q    Type
REMARK                         _______ _______ _______ _____ _____    ______ ____
ROOT
ATOM      1  C   UNL     1       6.897  -4.156  -7.132  0.00  0.00    +0.159 A 
ATOM      2  N   UNL     1       7.694  -4.259  -6.106  0.00  0.00    -0.131 NA
ATOM      3  N   UNL     1       8.862  -3.814  -6.405  0.00  0.00    -0.122 NA
ATOM      4  C   UNL     1       8.876  -3.398  -7.650  0.00  0.00    +0.196 A 
ATOM      5  N   UNL     1       7.623  -3.609  -8.157  0.00  0.00    -0.273 N 
ENDROOT
BRANCH   5   6
ATOM      6  C   UNL     1       7.174  -3.322  -9.454  0.00  0.00    +0.050 A 
ATOM      7  C   UNL     1       6.780  -4.351 -10.298  0.00  0.00    +0.028 A 
ATOM      8  C   UNL     1       6.338  -4.065 -11.575  0.00  0.00    +0.035 A 
ATOM      9  C   UNL     1       6.288  -2.755 -12.013  0.00  0.00    +0.126 A 
ATOM     10  C   UNL     1       6.679  -1.727 -11.175  0.00  0.00    +0.035 A 
ATOM     11  C   UNL     1       7.117  -2.006  -9.895  0.00  0.00    +0.028 A 
BRANCH   9  12
ATOM     12  N   UNL     1       5.814  -2.451 -13.382  0.00  0.00    +0.056 N 
ATOM     13  O   UNL     1       5.472  -3.349 -14.116  0.00  0.00    -0.126 OA
ATOM     14  O   UNL     1       5.770  -1.306 -13.767  0.00  0.00    -0.126 OA
ENDBRANCH   9  12
ENDBRANCH   5   6
BRANCH   1  15
ATOM     15  C   UNL     1       5.449  -4.569  -7.184  0.00  0.00    +0.139 C 
ATOM     16  C   UNL     1       5.355  -6.094  -7.258  0.00  0.00    +0.036 C 
BRANCH  15  19
ATOM     17  C   UNL     1       3.432  -3.884  -6.000  0.00  0.00    +0.245 C 
ATOM     18  O   UNL     1       2.801  -4.085  -7.019  0.00  0.00    -0.270 OA
ATOM     19  N   UNL     1       4.763  -4.096  -5.979  0.00  0.00    -0.302 N 
ATOM     20  H   UNL     1       5.267  -3.935  -5.165  0.00  0.00    +0.150 HD
BRANCH  17  24
ATOM     21  C   UNL     1       1.444  -2.513  -2.505  0.00  0.00    -0.047 A 
ATOM     22  C   UNL     1       0.723  -2.741  -3.663  0.00  0.00    +0.004 A 
ATOM     23  C   UNL     1       1.362  -3.186  -4.802  0.00  0.00    +0.013 A 
ATOM     24  C   UNL     1       2.740  -3.406  -4.783  0.00  0.00    +0.037 A 
ATOM     25  C   UNL     1       3.462  -3.175  -3.612  0.00  0.00    +0.013 A 
ATOM     26  C   UNL     1       2.812  -2.724  -2.482  0.00  0.00    +0.004 A 
BRANCH  21  27
ATOM     27  C   UNL     1       0.739  -2.027  -1.265  0.00  0.00    +0.035 C 
BRANCH  27  28
ATOM     28  C   UNL     1       0.718  -0.497  -1.257  0.00  0.00    +0.004 C 
BRANCH  28  30
ATOM     29  C   UNL     1      -0.019   1.526   0.010  0.00  0.00    +0.004 C 
ATOM     30  C   UNL     1       0.002  -0.004   0.002  0.00  0.00    -0.003 C 
ENDBRANCH  28  30
ENDBRANCH  27  28
ENDBRANCH  21  27
ENDBRANCH  17  24
ENDBRANCH  15  19
ENDBRANCH   1  15
BRANCH   4  31
ATOM     31  S   UNL     1      10.251  -2.707  -8.509  0.00  0.00    -0.081 S 
BRANCH  31  32
ATOM     32  C   UNL     1      11.586  -2.718  -7.280  0.00  0.00    +0.112 C 
BRANCH  32  33
ATOM     33  C   UNL     1      12.837  -2.145  -7.893  0.00  0.00    -0.034 A 
ATOM     34  C   UNL     1      13.733  -2.975  -8.541  0.00  0.00    +0.005 A 
ATOM     35  C   UNL     1      14.881  -2.450  -9.103  0.00  0.00    +0.000 A 
ATOM     36  C   UNL     1      15.133  -1.093  -9.018  0.00  0.00    +0.000 A 
ATOM     37  C   UNL     1      14.238  -0.263  -8.371  0.00  0.00    +0.003 A 
ATOM     38  C   UNL     1      13.087  -0.788  -7.812  0.00  0.00    -0.046 A 
ATOM     39  C   UNL     1      12.108   0.118  -7.111  0.00  0.00    +0.044 C 
ENDBRANCH  32  33
ENDBRANCH  31  32
ENDBRANCH   4  31
TORSDOF 11
