REMARK  Name = ZINC06190887
REMARK  8 active torsions:
REMARK  status: ('A' for Active; 'I' for Inactive)
REMARK    1  A    between atoms: C_1  and  C_2
REMARK    2  A    between atoms: C_2  and  C_3
REMARK    3  A    between atoms: C_2  and  C_4
REMARK    4  A    between atoms: C_7  and  C_10
REMARK    5  A    between atoms: N_19  and  C_32
REMARK    6  A    between atoms: C_32  and  C_33
REMARK    7  A    between atoms: C_33  and  O_34
REMARK    8  A    between atoms: O_34  and  C_35
REMARK                            x       y       z     vdW  Elec       q    Type
REMARK                         _______ _______ _______ _____ _____    ______ ____
ROOT
ATOM      1  C   UNL     1      -4.920   2.350   0.059  0.00  0.00    +0.093 C 
ATOM      2  C   UNL     1      -5.327   0.935   0.383  0.00  0.00    +0.067 A 
ATOM      3  C   UNL     1      -6.671   0.680   0.725  0.00  0.00    +0.260 A 
ATOM      4  O   UNL     1      -7.476   1.594   0.761  0.00  0.00    -0.267 OA
ATOM      5  N   UNL     1      -7.062  -0.577   1.009  0.00  0.00    -0.275 N 
ATOM      6  H   UNL     1      -8.015  -0.757   1.252  0.00  0.00    +0.173 HD
ATOM      7  C   UNL     1      -6.179  -1.591   0.971  0.00  0.00    +0.331 A 
ATOM      8  O   UNL     1      -6.551  -2.720   1.229  0.00  0.00    -0.246 OA
ATOM      9  N   UNL     1      -4.892  -1.374   0.650  0.00  0.00    -0.279 N 
ATOM     10  C   UNL     1      -4.448  -0.103   0.354  0.00  0.00    +0.116 A 
ATOM     11  N   UNL     1      -3.117   0.069   0.038  0.00  0.00    -0.299 N 
ATOM     12  C   UNL     1      -2.603   1.346   0.036  0.00  0.00    +0.048 C 
ATOM     13  C   UNL     1      -3.417   2.450   0.048  0.00  0.00    +0.034 C 
ATOM     14  C   UNL     1      -2.627   3.622   0.045  0.00  0.00    +0.193 C 
ATOM     15  O   UNL     1      -3.039   4.766   0.054  0.00  0.00    -0.287 OA
ATOM     16  C   UNL     1      -1.209   3.202   0.030  0.00  0.00    +0.031 A 
ATOM     17  C   UNL     1      -1.203   1.784   0.017  0.00  0.00    +0.007 A 
ATOM     18  C   UNL     1      -0.013   1.076   0.008  0.00  0.00    +0.010 A 
ATOM     19  C   UNL     1       1.169   1.823   0.001  0.00  0.00    +0.001 A 
ATOM     20  C   UNL     1       1.160   3.197   0.007  0.00  0.00    +0.001 A 
ATOM     21  C   UNL     1      -0.033   3.927   0.022  0.00  0.00    +0.012 A 
ATOM     22  H   UNL     1      -2.556  -0.692  -0.177  0.00  0.00    +0.154 HD
ENDROOT
BRANCH   1  26
ATOM     23  C   UNL     1      -6.447   3.426  -3.783  0.00  0.00    -0.045 A 
ATOM     24  C   UNL     1      -6.822   4.146  -2.664  0.00  0.00    +0.004 A 
ATOM     25  C   UNL     1      -6.328   3.797  -1.421  0.00  0.00    +0.005 A 
ATOM     26  C   UNL     1      -5.459   2.729  -1.296  0.00  0.00    -0.035 A 
ATOM     27  C   UNL     1      -5.080   2.013  -2.416  0.00  0.00    +0.005 A 
ATOM     28  C   UNL     1      -5.578   2.358  -3.659  0.00  0.00    +0.004 A 
BRANCH  23  30
ATOM     29  C   UNL     1      -5.822   4.165  -6.066  0.00  0.00    +0.012 C 
ATOM     30  C   UNL     1      -6.985   3.807  -5.138  0.00  0.00    +0.013 C 
ATOM     31  C   UNL     1      -7.762   2.628  -5.727  0.00  0.00    +0.012 C 
ENDBRANCH  23  30
ENDBRANCH   1  26
BRANCH   9  32
ATOM     32  C   UNL     1      -3.953  -2.497   0.615  0.00  0.00    +0.156 C 
BRANCH  32  33
ATOM     33  C   UNL     1      -3.315  -2.673   1.994  0.00  0.00    +0.181 C 
BRANCH  33  34
ATOM     34  O   UNL     1      -4.320  -3.050   2.939  0.00  0.00    -0.381 OA
ATOM     35  C   UNL     1      -3.827  -3.240   4.266  0.00  0.00    +0.194 C 
ENDBRANCH  33  34
ENDBRANCH  32  33
ENDBRANCH   9  32
TORSDOF 5
