REMARK  Name = ZINC40014701
REMARK  17 active torsions:
REMARK  status: ('A' for Active; 'I' for Inactive)
REMARK    1  A    between atoms: C_1  and  C_2
REMARK    2  A    between atoms: C_2  and  C_3
REMARK    3  A    between atoms: C_3  and  C_4
REMARK    4  A    between atoms: C_4  and  N_5
REMARK    5  A    between atoms: N_5  and  C_6
REMARK    6  A    between atoms: N_5  and  C_10
REMARK    7  A    between atoms: C_6  and  C_7
REMARK    8  A    between atoms: C_7  and  C_8
REMARK    9  A    between atoms: C_8  and  C_9
REMARK   10  A    between atoms: C_10  and  C_11
REMARK   11  A    between atoms: C_11  and  C_12
REMARK   12  A    between atoms: C_12  and  N_13
REMARK   13  A    between atoms: C_14  and  C_30
REMARK   14  A    between atoms: C_34  and  O_36
REMARK   15  A    between atoms: O_36  and  C_37
REMARK   16  A    between atoms: C_37  and  C_38
REMARK   17  A    between atoms: C_38  and  C_39
REMARK                            x       y       z     vdW  Elec       q    Type
REMARK                         _______ _______ _______ _____ _____    ______ ____
ROOT
ATOM      1  N   UNL     1      -1.577  -6.024   3.382  0.00  0.00    -0.284 N 
ATOM      2  C   UNL     1      -0.151  -6.317   3.598  0.00  0.00    +0.145 C 
ATOM      3  C   UNL     1       0.008  -6.503   5.072  0.00  0.00    +0.072 A 
ATOM      4  C   UNL     1       1.187  -6.821   5.884  0.00  0.00    +0.199 A 
ATOM      5  O   UNL     1       2.322  -6.819   5.442  0.00  0.00    -0.287 OA
ATOM      6  C   UNL     1       0.865  -7.146   7.297  0.00  0.00    +0.066 A 
ATOM      7  C   UNL     1       1.846  -7.662   8.143  0.00  0.00    +0.035 A 
ATOM      8  C   UNL     1       1.528  -7.963   9.450  0.00  0.00    +0.042 A 
ATOM      9  C   UNL     1       0.237  -7.754   9.918  0.00  0.00    +0.023 A 
ATOM     10  C   UNL     1      -0.739  -7.245   9.091  0.00  0.00    +0.048 A 
ATOM     11  C   UNL     1      -0.441  -6.929   7.765  0.00  0.00    +0.140 A 
ATOM     12  O   UNL     1      -1.416  -6.421   6.978  0.00  0.00    -0.450 OA
ATOM     13  C   UNL     1      -1.218  -6.326   5.648  0.00  0.00    +0.199 A 
ATOM     14  C   UNL     1      -2.191  -6.027   4.583  0.00  0.00    +0.283 C 
ATOM     15  O   UNL     1      -3.374  -5.817   4.760  0.00  0.00    -0.267 OA
ATOM     16 CL   UNL     1       2.742  -8.604  10.513  0.00  0.00    -0.084 Cl
ENDROOT
BRANCH   2  17
ATOM     17  C   UNL     1       0.694  -5.163   3.124  0.00  0.00    -0.019 A 
ATOM     18  C   UNL     1       0.286  -3.864   3.362  0.00  0.00    +0.006 A 
ATOM     19  C   UNL     1       1.059  -2.803   2.928  0.00  0.00    +0.004 A 
ATOM     20  C   UNL     1       2.242  -3.039   2.255  0.00  0.00    +0.045 A 
ATOM     21  C   UNL     1       2.655  -4.342   2.015  0.00  0.00    +0.121 A 
ATOM     22  C   UNL     1       1.880  -5.404   2.457  0.00  0.00    +0.051 A 
BRANCH  21  23
ATOM     23  O   UNL     1       3.818  -4.576   1.354  0.00  0.00    -0.492 OA
BRANCH  23  24
ATOM     24  C   UNL     1       4.567  -3.434   0.934  0.00  0.00    +0.229 C 
BRANCH  24  25
ATOM     25  C   UNL     1       5.836  -3.894   0.212  0.00  0.00    +0.038 C 
ATOM     26  C   UNL     1       6.638  -2.671  -0.238  0.00  0.00    +0.007 C 
ENDBRANCH  24  25
ENDBRANCH  23  24
ENDBRANCH  21  23
ENDBRANCH   2  17
BRANCH   1  27
ATOM     27  C   UNL     1      -2.217  -5.769   2.089  0.00  0.00    +0.107 C 
BRANCH  27  28
ATOM     28  C   UNL     1      -2.166  -4.271   1.782  0.00  0.00    +0.000 C 
BRANCH  28  29
ATOM     29  C   UNL     1      -2.834  -4.003   0.432  0.00  0.00    -0.077 C 
BRANCH  29  30
ATOM     30  N   UNL     1      -2.785  -2.565   0.138  0.00  0.00    +0.380 N 
ATOM     31  H   UNL     1      -3.201  -2.051   0.901  0.00  0.00    -0.082 HD
BRANCH  30  32
ATOM     32  C   UNL     1      -1.387  -2.147  -0.030  0.00  0.00    -0.079 C 
BRANCH  32  33
ATOM     33  C   UNL     1      -1.326  -0.627  -0.195  0.00  0.00    -0.019 C 
BRANCH  33  35
ATOM     34  C   UNL     1       0.197   1.343  -0.402  0.00  0.00    +0.004 C 
ATOM     35  C   UNL     1       0.136  -0.177  -0.237  0.00  0.00    -0.005 C 
ENDBRANCH  33  35
ENDBRANCH  32  33
ENDBRANCH  30  32
BRANCH  30  36
ATOM     36  C   UNL     1      -3.530  -2.292  -1.098  0.00  0.00    -0.079 C 
BRANCH  36  37
ATOM     37  C   UNL     1      -5.014  -2.593  -0.876  0.00  0.00    -0.019 C 
BRANCH  37  38
ATOM     38  C   UNL     1      -5.809  -2.184  -2.119  0.00  0.00    -0.005 C 
ATOM     39  C   UNL     1      -7.293  -2.484  -1.897  0.00  0.00    +0.004 C 
ENDBRANCH  37  38
ENDBRANCH  36  37
ENDBRANCH  30  36
ENDBRANCH  29  30
ENDBRANCH  28  29
ENDBRANCH  27  28
ENDBRANCH   1  27
TORSDOF 14
