REMARK  Name = ZINC35490029
REMARK  8 active torsions:
REMARK  status: ('A' for Active; 'I' for Inactive)
REMARK    1  A    between atoms: C_1  and  C_2
REMARK    2  A    between atoms: C_2  and  O_3
REMARK    3  A    between atoms: O_3  and  C_4
REMARK    4  A    between atoms: C_7  and  C_12
REMARK    5  A    between atoms: C_9  and  O_10
REMARK    6  A    between atoms: O_10  and  C_11
REMARK    7  A    between atoms: C_19  and  C_34
REMARK    8  A    between atoms: C_20  and  C_33
REMARK                            x       y       z     vdW  Elec       q    Type
REMARK                         _______ _______ _______ _____ _____    ______ ____
ROOT
ATOM      1  C   UNL     1      -1.996  -6.097  -0.011  0.00  0.00    +0.152 C 
ATOM      2  C   UNL     1      -1.782  -6.646   1.361  0.00  0.00    +0.072 A 
ATOM      3  C   UNL     1      -2.482  -6.392   2.624  0.00  0.00    +0.199 A 
ATOM      4  O   UNL     1      -3.524  -5.764   2.695  0.00  0.00    -0.287 OA
ATOM      5  C   UNL     1      -1.800  -6.972   3.809  0.00  0.00    +0.065 A 
ATOM      6  C   UNL     1      -2.228  -6.652   5.097  0.00  0.00    +0.019 A 
ATOM      7  C   UNL     1      -1.587  -7.190   6.178  0.00  0.00    -0.047 A 
ATOM      8  C   UNL     1      -0.514  -8.052   5.996  0.00  0.00    -0.044 A 
ATOM      9  C   UNL     1      -0.079  -8.380   4.731  0.00  0.00    +0.050 A 
ATOM     10  C   UNL     1      -0.718  -7.845   3.612  0.00  0.00    +0.140 A 
ATOM     11  O   UNL     1      -0.281  -8.189   2.379  0.00  0.00    -0.450 OA
ATOM     12  C   UNL     1      -0.728  -7.514   1.302  0.00  0.00    +0.199 A 
ATOM     13  C   UNL     1      -0.234  -7.547  -0.085  0.00  0.00    +0.289 C 
ATOM     14  O   UNL     1       0.700  -8.220  -0.475  0.00  0.00    -0.266 OA
ATOM     15  N   UNL     1      -0.970  -6.723  -0.861  0.00  0.00    -0.230 N 
ATOM     16  C   UNL     1      -0.792  -6.504  -2.220  0.00  0.00    +0.191 A 
ATOM     17  N   UNL     1      -1.459  -5.716  -3.053  0.00  0.00    -0.126 NA
ATOM     18  N   UNL     1      -1.161  -5.635  -4.275  0.00  0.00    -0.148 NA
ATOM     19  C   UNL     1      -0.170  -6.327  -4.803  0.00  0.00    +0.183 A 
ATOM     20  S   UNL     1       0.409  -7.201  -3.352  0.00  0.00    -0.038 S 
ATOM     21  C   UNL     1       0.184  -8.636   7.197  0.00  0.00    +0.044 C 
ATOM     22  C   UNL     1      -2.047  -6.848   7.571  0.00  0.00    +0.044 C 
ENDROOT
BRANCH   1  26
ATOM     23  C   UNL     1      -1.498  -1.849   0.006  0.00  0.00    +0.162 A 
ATOM     24  C   UNL     1      -0.389  -2.680  -0.003  0.00  0.00    +0.050 A 
ATOM     25  C   UNL     1      -0.553  -4.052  -0.008  0.00  0.00    +0.009 A 
ATOM     26  C   UNL     1      -1.823  -4.600  -0.005  0.00  0.00    -0.018 A 
ATOM     27  C   UNL     1      -2.934  -3.777   0.004  0.00  0.00    +0.055 A 
ATOM     28  C   UNL     1      -2.776  -2.400   0.016  0.00  0.00    +0.162 A 
BRANCH  28  29
ATOM     29  O   UNL     1      -3.868  -1.589   0.030  0.00  0.00    -0.491 OA
ATOM     30  C   UNL     1      -5.148  -2.225   0.039  0.00  0.00    +0.277 C 
ENDBRANCH  28  29
BRANCH  23  31
ATOM     31  O   UNL     1      -1.339  -0.499   0.012  0.00  0.00    -0.489 OA
BRANCH  31  33
ATOM     32  C   UNL     1      -0.019   1.526   0.010  0.00  0.00    +0.048 C 
ATOM     33  C   UNL     1       0.002  -0.004   0.002  0.00  0.00    +0.226 C 
ENDBRANCH  31  33
ENDBRANCH  23  31
ENDBRANCH   1  26
TORSDOF 4
