REMARK  Name = ZINC12500208
REMARK  8 active torsions:
REMARK  status: ('A' for Active; 'I' for Inactive)
REMARK    1  A    between atoms: C_1  and  C_2
REMARK    2  A    between atoms: N_5  and  S_8
REMARK    3  A    between atoms: S_8  and  C_11
REMARK    4  A    between atoms: C_14  and  N_17
REMARK    5  A    between atoms: N_17  and  C_18
REMARK    6  A    between atoms: C_18  and  N_20
REMARK    7  A    between atoms: C_21  and  C_23
REMARK    8  A    between atoms: C_27  and  N_29
REMARK                            x       y       z     vdW  Elec       q    Type
REMARK                         _______ _______ _______ _____ _____    ______ ____
ROOT
ATOM      1  N   UNL     1       1.238  -2.079  -0.021  0.00  0.00    -0.297 N 
ATOM      2  H   UNL     1       1.740  -2.559   0.656  0.00  0.00    +0.154 HD
ENDROOT
BRANCH   1   6
ATOM      3  C   UNL     1       1.143   2.085   0.022  0.00  0.00    +0.106 A 
ATOM      4  C   UNL     1      -0.012   1.372  -0.241  0.00  0.00    +0.030 A 
ATOM      5  C   UNL     1       0.016  -0.009  -0.256  0.00  0.00    +0.025 A 
ATOM      6  C   UNL     1       1.206  -0.681  -0.007  0.00  0.00    +0.033 A 
ATOM      7  C   UNL     1       2.364   0.039   0.257  0.00  0.00    +0.025 A 
ATOM      8  C   UNL     1       2.329   1.420   0.270  0.00  0.00    +0.030 A 
BRANCH   3   9
ATOM      9  S   UNL     1       1.103   3.847   0.039  0.00  0.00    +0.061 S 
ATOM     10  O   UNL     1       2.427   4.286  -0.229  0.00  0.00    -0.153 OA
ATOM     11  O   UNL     1      -0.005   4.236  -0.760  0.00  0.00    -0.153 OA
BRANCH   9  16
ATOM     12  C   UNL     1       0.084   7.463   4.370  0.00  0.00    +0.007 C 
ATOM     13  C   UNL     1       0.249   6.079   3.741  0.00  0.00    -0.012 C 
ATOM     14  C   UNL     1       1.659   5.949   3.159  0.00  0.00    +0.020 C 
ATOM     15  C   UNL     1       1.832   4.549   2.560  0.00  0.00    +0.110 C 
ATOM     16  N   UNL     1       0.755   4.313   1.590  0.00  0.00    -0.177 NA
ATOM     17  C   UNL     1      -0.637   4.505   2.019  0.00  0.00    +0.110 C 
ATOM     18  C   UNL     1      -0.783   5.899   2.626  0.00  0.00    +0.020 C 
ENDBRANCH   9  16
ENDBRANCH   3   9
ENDBRANCH   1   6
BRANCH   1  19
ATOM     19  C   UNL     1       0.570  -2.759  -0.974  0.00  0.00    +0.141 C 
ATOM     20  S   UNL     1      -0.200  -1.913  -2.248  0.00  0.00    -0.018 S 
BRANCH  19  21
ATOM     21  N   UNL     1       0.507  -4.104  -0.923  0.00  0.00    -0.264 N 
ATOM     22  C   UNL     1      -0.161  -4.784  -1.876  0.00  0.00    +0.250 C 
ATOM     23  O   UNL     1      -0.707  -4.184  -2.781  0.00  0.00    -0.270 OA
ATOM     24  H   UNL     1       0.943  -4.583  -0.201  0.00  0.00    +0.157 HD
BRANCH  22  25
ATOM     25  C   UNL     1      -0.229  -6.258  -1.821  0.00  0.00    +0.039 A 
ATOM     26  C   UNL     1       0.402  -6.951  -0.786  0.00  0.00    +0.014 A 
ATOM     27  C   UNL     1       0.330  -8.327  -0.737  0.00  0.00    +0.023 A 
ATOM     28  C   UNL     1      -0.357  -9.023  -1.718  0.00  0.00    +0.071 A 
ATOM     29  C   UNL     1      -0.980  -8.342  -2.750  0.00  0.00    +0.145 A 
ATOM     30  C   UNL     1      -0.920  -6.965  -2.807  0.00  0.00    +0.047 A 
ATOM     31 CL   UNL     1      -0.438 -10.756  -1.653  0.00  0.00    -0.081 Cl
BRANCH  29  32
ATOM     32  N   UNL     1      -1.712  -9.093  -3.795  0.00  0.00    +0.058 N 
ATOM     33  O   UNL     1      -2.261  -8.495  -4.703  0.00  0.00    -0.126 OA
ATOM     34  O   UNL     1      -1.766 -10.309  -3.746  0.00  0.00    -0.126 OA
ENDBRANCH  29  32
ENDBRANCH  22  25
ENDBRANCH  19  21
ENDBRANCH   1  19
TORSDOF 7
