REMARK  Name = ZINC20354947
REMARK  7 active torsions:
REMARK  status: ('A' for Active; 'I' for Inactive)
REMARK    1  A    between atoms: C_1  and  N_2
REMARK    2  A    between atoms: N_11  and  C_28
REMARK    3  A    between atoms: C_12  and  C_14
REMARK    4  A    between atoms: C_14  and  N_15
REMARK    5  A    between atoms: N_18  and  C_21
REMARK    6  A    between atoms: C_21  and  C_22
REMARK    7  A    between atoms: C_28  and  C_29
REMARK                            x       y       z     vdW  Elec       q    Type
REMARK                         _______ _______ _______ _____ _____    ______ ____
ROOT
ATOM      1  C   UNL     1      -0.163  -1.050  -1.367  0.00  0.00    +0.155 C 
ATOM      2  N   UNL     1       0.643  -0.377  -0.347  0.00  0.00    -0.280 N 
ATOM      3  C   UNL     1       0.488   0.983  -0.129  0.00  0.00    +0.168 A 
ATOM      4  C   UNL     1       1.265   1.598   0.845  0.00  0.00    +0.152 A 
ATOM      5  C   UNL     1       2.187   0.823   1.581  0.00  0.00    +0.280 A 
ATOM      6  O   UNL     1       2.879   1.340   2.440  0.00  0.00    -0.265 OA
ATOM      7  N   UNL     1       2.292  -0.497   1.323  0.00  0.00    -0.273 N 
ATOM      8  H   UNL     1       3.006  -1.113   1.889  0.00  0.00    +0.173 HD
ATOM      9  C   UNL     1       1.534  -1.080   0.377  0.00  0.00    +0.331 A 
ATOM     10  O   UNL     1       1.657  -2.272   0.171  0.00  0.00    -0.246 OA
ATOM     11  N   UNL     1       0.904   2.930   0.842  0.00  0.00    -0.319 N 
ATOM     12  C   UNL     1      -0.048   3.078  -0.100  0.00  0.00    +0.096 A 
ATOM     13  N   UNL     1      -0.285   1.925  -0.673  0.00  0.00    -0.216 NA
ENDROOT
BRANCH  12  14
ATOM     14  C   UNL     1      -0.732   4.376  -0.446  0.00  0.00    -0.003 C 
BRANCH  14  15
ATOM     15  N   UNL     1      -0.749   4.546  -1.905  0.00  0.00    +0.386 N 
ATOM     16  C   UNL     1       0.592   4.867  -2.414  0.00  0.00    -0.063 C 
ATOM     17  C   UNL     1       0.547   4.958  -3.941  0.00  0.00    +0.066 C 
ATOM     18  N   UNL     1      -0.424   5.986  -4.340  0.00  0.00    -0.302 NA
ATOM     19  C   UNL     1      -1.765   5.665  -3.831  0.00  0.00    +0.066 C 
ATOM     20  C   UNL     1      -1.720   5.575  -2.304  0.00  0.00    -0.063 C 
ATOM     21  H   UNL     1      -1.063   3.591  -2.352  0.00  0.00    -0.081 HD
BRANCH  18  22
ATOM     22  C   UNL     1      -0.442   6.157  -5.799  0.00  0.00    +0.119 C 
BRANCH  22  23
ATOM     23  C   UNL     1       0.973   6.239  -6.311  0.00  0.00    -0.033 A 
ATOM     24  C   UNL     1       1.601   7.466  -6.413  0.00  0.00    +0.005 A 
ATOM     25  C   UNL     1       2.901   7.541  -6.879  0.00  0.00    +0.000 A 
ATOM     26  C   UNL     1       3.568   6.390  -7.253  0.00  0.00    +0.000 A 
ATOM     27  C   UNL     1       2.938   5.164  -7.157  0.00  0.00    +0.000 A 
ATOM     28  C   UNL     1       1.641   5.088  -6.686  0.00  0.00    +0.005 A 
ENDBRANCH  22  23
ENDBRANCH  18  22
ENDBRANCH  14  15
ENDBRANCH  12  14
BRANCH  11  29
ATOM     29  C   UNL     1       1.451   3.984   1.700  0.00  0.00    +0.160 C 
BRANCH  29  30
ATOM     30  C   UNL     1       0.738   3.971   3.028  0.00  0.00    -0.009 A 
ATOM     31  C   UNL     1       1.195   3.161   4.051  0.00  0.00    +0.007 A 
ATOM     32  C   UNL     1       0.541   3.148   5.268  0.00  0.00    +0.000 A 
ATOM     33  C   UNL     1      -0.570   3.947   5.465  0.00  0.00    +0.001 A 
ATOM     34  C   UNL     1      -1.028   4.758   4.443  0.00  0.00    +0.020 A 
ATOM     35  C   UNL     1      -0.371   4.774   3.226  0.00  0.00    +0.046 A 
ATOM     36 CL   UNL     1      -0.941   5.797   1.945  0.00  0.00    -0.083 Cl
ENDBRANCH  29  30
ENDBRANCH  11  29
TORSDOF 6
