REMARK  Name = ZINC57487117
REMARK  6 active torsions:
REMARK  status: ('A' for Active; 'I' for Inactive)
REMARK    1  A    between atoms: C_3  and  C_16
REMARK    2  A    between atoms: N_4  and  C_6
REMARK    3  A    between atoms: C_6  and  C_7
REMARK    4  A    between atoms: N_9  and  C_10
REMARK    5  A    between atoms: C_10  and  C_11
REMARK    6  A    between atoms: C_18  and  C_21
REMARK                            x       y       z     vdW  Elec       q    Type
REMARK                         _______ _______ _______ _____ _____    ______ ____
ROOT
ATOM      1  C   UNL     1      -0.016   1.349   0.009  0.00  0.00    +0.020 A 
ATOM      2  C   UNL     1       1.311   1.795  -0.001  0.00  0.00    +0.033 A 
ATOM      3  C   UNL     1       2.112   0.686  -0.014  0.00  0.00    +0.108 A 
ATOM      4  N   UNL     1       1.296  -0.420  -0.013  0.00  0.00    -0.334 N 
ATOM      5  C   UNL     1       0.002  -0.004   0.002  0.00  0.00    +0.087 A 
ENDROOT
BRANCH   3   6
ATOM      6  C   UNL     1       3.580   0.679  -0.029  0.00  0.00    +0.275 A 
ATOM      7  N   UNL     1       4.358   1.741  -0.025  0.00  0.00    -0.186 NA
ATOM      8  C   UNL     1       5.645   1.364  -0.042  0.00  0.00    +0.203 A 
ATOM      9  N   UNL     1       5.704   0.054  -0.056  0.00  0.00    -0.056 NA
ATOM     10  O   UNL     1       4.365  -0.415  -0.042  0.00  0.00    -0.331 OA
BRANCH   8  11
ATOM     11  C   UNL     1       6.812   2.280  -0.044  0.00  0.00    +0.026 A 
ATOM     12  C   UNL     1       6.617   3.660  -0.022  0.00  0.00    +0.015 A 
ATOM     13  C   UNL     1       7.702   4.511  -0.025  0.00  0.00    +0.050 A 
ATOM     14  C   UNL     1       8.991   3.998  -0.049  0.00  0.00    +0.166 A 
ATOM     15  C   UNL     1       9.192   2.619  -0.071  0.00  0.00    +0.167 A 
ATOM     16  C   UNL     1       8.106   1.763  -0.062  0.00  0.00    +0.061 A 
ATOM     17  O   UNL     1      10.535   2.375  -0.092  0.00  0.00    -0.453 OA
ATOM     18  C   UNL     1      11.145   3.615  -0.496  0.00  0.00    +0.466 C 
ATOM     19  O   UNL     1      10.208   4.616  -0.057  0.00  0.00    -0.453 OA
ENDBRANCH   8  11
ENDBRANCH   3   6
BRANCH   4  20
ATOM     20  C   UNL     1       1.745  -1.814  -0.025  0.00  0.00    +0.217 C 
BRANCH  20  21
ATOM     21  C   UNL     1       2.031  -2.262   1.385  0.00  0.00    +0.233 C 
ATOM     22  O   UNL     1       1.875  -1.493   2.310  0.00  0.00    -0.274 OA
ATOM     23  N   UNL     1       2.461  -3.518   1.619  0.00  0.00    -0.307 N 
ATOM     24  H   UNL     1       2.586  -4.134   0.880  0.00  0.00    +0.149 HD
BRANCH  23  25
ATOM     25  C   UNL     1       2.739  -3.954   2.990  0.00  0.00    +0.178 C 
BRANCH  25  26
ATOM     26  C   UNL     1       3.201  -5.388   2.978  0.00  0.00    +0.122 A 
ATOM     27  C   UNL     1       4.477  -5.802   2.873  0.00  0.00    +0.046 A 
ATOM     28  C   UNL     1       4.452  -7.215   2.903  0.00  0.00    +0.041 A 
ATOM     29  C   UNL     1       3.163  -7.580   3.025  0.00  0.00    +0.195 A 
ATOM     30  O   UNL     1       2.411  -6.469   3.075  0.00  0.00    -0.466 OA
ENDBRANCH  25  26
ENDBRANCH  23  25
ENDBRANCH  20  21
ENDBRANCH   4  20
TORSDOF 6
