REMARK  Name = ZINC00181786
REMARK  4 active torsions:
REMARK  status: ('A' for Active; 'I' for Inactive)
REMARK    1  A    between atoms: C_10  and  C_12
REMARK    2  A    between atoms: C_12  and  N_13
REMARK    3  A    between atoms: C_14  and  C_16
REMARK    4  A    between atoms: C_20  and  N_22
REMARK                            x       y       z     vdW  Elec       q    Type
REMARK                         _______ _______ _______ _____ _____    ______ ____
ROOT
ATOM      1  N   UNL     1       2.474  -2.686   0.947  0.00  0.00    -0.309 N 
ATOM      2  C   UNL     1       2.632  -3.759   1.747  0.00  0.00    +0.244 C 
ATOM      3  O   UNL     1       1.732  -4.104   2.486  0.00  0.00    -0.270 OA
ATOM      4  H   UNL     1       3.192  -2.410   0.357  0.00  0.00    +0.149 HD
ENDROOT
BRANCH   2   5
ATOM      5  C   UNL     1       3.902  -4.516   1.724  0.00  0.00    +0.039 A 
ATOM      6  C   UNL     1       4.938  -4.123   0.876  0.00  0.00    +0.013 A 
ATOM      7  C   UNL     1       6.120  -4.834   0.859  0.00  0.00    +0.003 A 
ATOM      8  C   UNL     1       6.279  -5.936   1.681  0.00  0.00    +0.033 A 
ATOM      9  C   UNL     1       5.256  -6.331   2.525  0.00  0.00    +0.127 A 
ATOM     10  C   UNL     1       4.071  -5.625   2.555  0.00  0.00    +0.045 A 
BRANCH   9  11
ATOM     11  N   UNL     1       5.436  -7.510   3.401  0.00  0.00    +0.056 N 
ATOM     12  O   UNL     1       6.483  -8.131   3.379  0.00  0.00    -0.126 OA
ATOM     13  O   UNL     1       4.536  -7.859   4.144  0.00  0.00    -0.126 OA
ENDBRANCH   9  11
ENDBRANCH   2   5
BRANCH   1  14
ATOM     14  C   UNL     1       1.216  -1.935   0.970  0.00  0.00    +0.141 C 
BRANCH  14  24
ATOM     15  C   UNL     1      -2.416   1.346   0.040  0.00  0.00    +0.000 A 
ATOM     16  C   UNL     1      -2.397  -0.037   0.036  0.00  0.00    +0.000 A 
ATOM     17  C   UNL     1      -1.192  -0.709   0.017  0.00  0.00    +0.006 A 
ATOM     18  C   UNL     1       0.002  -0.004   0.002  0.00  0.00    -0.014 A 
ATOM     19  C   UNL     1      -0.017   1.375   0.010  0.00  0.00    -0.040 A 
ATOM     20  C   UNL     1      -1.228   2.049   0.031  0.00  0.00    +0.004 A 
ATOM     21  C   UNL     1       1.260   2.177   0.002  0.00  0.00    +0.063 C 
ATOM     22  C   UNL     1       2.427   1.288  -0.432  0.00  0.00    +0.165 C 
ATOM     23  O   UNL     1       2.385   0.078   0.333  0.00  0.00    -0.370 OA
ATOM     24  C   UNL     1       1.297  -0.774  -0.023  0.00  0.00    +0.165 C 
ENDBRANCH  14  24
ENDBRANCH   1  14
TORSDOF 4
