REMARK  Name = ZINC41585854
REMARK  5 active torsions:
REMARK  status: ('A' for Active; 'I' for Inactive)
REMARK    1  A    between atoms: C_1  and  C_2
REMARK    2  A    between atoms: C_4  and  O_33
REMARK    3  A    between atoms: C_5  and  C_20
REMARK    4  A    between atoms: C_11  and  C_12
REMARK    5  A    between atoms: C_20  and  N_21
REMARK                            x       y       z     vdW  Elec       q    Type
REMARK                         _______ _______ _______ _____ _____    ______ ____
ROOT
ATOM      1  C   UNL     1      -0.011   1.280  -0.392  0.00  0.00    +0.045 C 
ATOM      2  C   UNL     1       0.037  -0.226  -0.353  0.00  0.00    -0.033 A 
ATOM      3  C   UNL     1      -0.006  -0.942  -1.517  0.00  0.00    +0.050 A 
ATOM      4  C   UNL     1       0.038  -2.333  -1.484  0.00  0.00    +0.125 A 
ATOM      5  C   UNL     1       0.125  -3.007  -0.276  0.00  0.00    +0.051 A 
ATOM      6  C   UNL     1       0.170  -2.294   0.916  0.00  0.00    +0.148 A 
ATOM      7  C   UNL     1       0.131  -0.891   0.869  0.00  0.00    +0.071 A 
ATOM      8  C   UNL     1       0.202  -0.427   2.267  0.00  0.00    +0.232 C 
ATOM      9  O   UNL     1       0.191   0.722   2.672  0.00  0.00    -0.283 OA
ATOM     10  C   UNL     1       0.287  -1.663   3.062  0.00  0.00    +0.176 C 
ATOM     11  C   UNL     1       0.371  -1.742   4.413  0.00  0.00    +0.058 C 
ATOM     12  O   UNL     1       0.254  -2.706   2.200  0.00  0.00    -0.451 OA
ENDROOT
BRANCH  11  13
ATOM     13  C   UNL     1       0.338  -3.053   5.076  0.00  0.00    -0.021 A 
ATOM     14  C   UNL     1       0.288  -3.134   6.472  0.00  0.00    +0.009 A 
ATOM     15  C   UNL     1       0.257  -4.368   7.086  0.00  0.00    +0.016 A 
ATOM     16  C   UNL     1       0.274  -5.525   6.325  0.00  0.00    +0.018 A 
ATOM     17  C   UNL     1       0.323  -5.453   4.942  0.00  0.00    +0.016 A 
ATOM     18  C   UNL     1       0.349  -4.227   4.313  0.00  0.00    +0.009 A 
ATOM     19 BR   UNL     1       0.232  -7.213   7.178  0.00  0.00    -0.050 Br
ENDBRANCH  11  13
BRANCH   4  20
ATOM     20  O   UNL     1      -0.006  -3.035  -2.644  0.00  0.00    -0.506 OA
ATOM     21  H   UNL     1       0.863  -3.212  -3.030  0.00  0.00    +0.292 HD
ENDBRANCH   4  20
BRANCH   5  22
ATOM     22  C   UNL     1       0.171  -4.513  -0.255  0.00  0.00    +0.127 C 
BRANCH  22  23
ATOM     23  N   UNL     1       1.568  -4.962  -0.326  0.00  0.00    -0.295 NA
ATOM     24  C   UNL     1       2.309  -4.566   0.879  0.00  0.00    +0.103 C 
ATOM     25  C   UNL     1       3.795  -4.889   0.690  0.00  0.00    +0.122 C 
ATOM     26  N   UNL     1       3.921  -6.307   0.320  0.00  0.00    -0.314 N 
ATOM     27  C   UNL     1       3.103  -6.811  -0.794  0.00  0.00    +0.122 C 
ATOM     28  C   UNL     1       1.645  -6.412  -0.546  0.00  0.00    +0.103 C 
ATOM     29  C   UNL     1       4.790  -7.149   1.005  0.00  0.00    +0.099 A 
ATOM     30  C   UNL     1       4.991  -8.449   0.552  0.00  0.00    +0.042 A 
ATOM     31  C   UNL     1       5.858  -9.275   1.243  0.00  0.00    +0.005 A 
ATOM     32  C   UNL     1       6.498  -8.772   2.368  0.00  0.00    +0.018 A 
ATOM     33  C   UNL     1       6.252  -7.472   2.761  0.00  0.00    +0.084 A 
ATOM     34  N   UNL     1       5.423  -6.704   2.079  0.00  0.00    -0.350 N 
ATOM     35  H   UNL     1       5.271  -5.793   2.374  0.00  0.00    +0.166 HD
ENDBRANCH  22  23
ENDBRANCH   5  22
TORSDOF 4
