REMARK  Name = ZINC22536110
REMARK  15 active torsions:
REMARK  status: ('A' for Active; 'I' for Inactive)
REMARK    1  A    between atoms: C_1  and  C_2
REMARK    2  A    between atoms: C_4  and  C_37
REMARK    3  A    between atoms: C_5  and  S_9
REMARK    4  A    between atoms: C_6  and  C_8
REMARK    5  A    between atoms: S_9  and  N_12
REMARK    6  A    between atoms: N_12  and  C_13
REMARK    7  A    between atoms: N_12  and  C_21
REMARK    8  A    between atoms: C_13  and  C_14
REMARK    9  A    between atoms: C_21  and  C_22
REMARK   10  A    between atoms: N_24  and  C_25
REMARK   11  A    between atoms: C_25  and  C_27
REMARK   12  A    between atoms: C_25  and  C_28
REMARK   13  A    between atoms: C_30  and  C_36
REMARK   14  A    between atoms: C_31  and  C_35
REMARK   15  A    between atoms: C_33  and  C_34
REMARK                            x       y       z     vdW  Elec       q    Type
REMARK                         _______ _______ _______ _____ _____    ______ ____
ROOT
ATOM      1  N   UNL     1      -3.191   3.116  -0.826  0.00  0.00    -0.163 NA
ENDROOT
BRANCH   1   2
ATOM      2  S   UNL     1      -3.055   2.333   0.627  0.00  0.00    +0.062 S 
ATOM      3  O   UNL     1      -2.995   0.944   0.335  0.00  0.00    -0.153 OA
ATOM      4  O   UNL     1      -4.044   2.890   1.482  0.00  0.00    -0.153 OA
BRANCH   2   9
ATOM      5  C   UNL     1       2.298   3.836   2.970  0.00  0.00    +0.044 C 
ATOM      6  C   UNL     1       0.961   3.461   2.385  0.00  0.00    -0.050 A 
ATOM      7  C   UNL     1      -0.161   3.424   3.192  0.00  0.00    +0.008 A 
ATOM      8  C   UNL     1      -1.386   3.075   2.656  0.00  0.00    -0.024 A 
ATOM      9  C   UNL     1      -1.492   2.773   1.311  0.00  0.00    +0.111 A 
ATOM     10  C   UNL     1      -0.370   2.811   0.504  0.00  0.00    -0.024 A 
ATOM     11  C   UNL     1       0.856   3.155   1.041  0.00  0.00    +0.008 A 
ATOM     12  C   UNL     1      -0.484   2.477  -0.961  0.00  0.00    +0.046 C 
ATOM     13  C   UNL     1      -2.608   3.028   3.537  0.00  0.00    +0.046 C 
ENDBRANCH   2   9
ENDBRANCH   1   2
BRANCH   1  14
ATOM     14  C   UNL     1      -3.359   4.571  -0.862  0.00  0.00    +0.145 C 
BRANCH  14  15
ATOM     15  C   UNL     1      -2.008   5.231  -0.963  0.00  0.00    -0.032 A 
ATOM     16  C   UNL     1      -1.351   5.639   0.182  0.00  0.00    +0.006 A 
ATOM     17  C   UNL     1      -0.109   6.239   0.090  0.00  0.00    +0.020 A 
ATOM     18  C   UNL     1       0.471   6.441  -1.149  0.00  0.00    +0.041 A 
ATOM     19  C   UNL     1      -0.190   6.037  -2.296  0.00  0.00    +0.020 A 
ATOM     20  C   UNL     1      -1.429   5.432  -2.202  0.00  0.00    +0.006 A 
ATOM     21 CL   UNL     1       2.028   7.200  -1.266  0.00  0.00    -0.084 Cl
ENDBRANCH  14  15
ENDBRANCH   1  14
BRANCH   1  22
ATOM     22  C   UNL     1      -3.143   2.354  -2.076  0.00  0.00    +0.205 C 
BRANCH  22  23
ATOM     23  C   UNL     1      -4.534   2.231  -2.644  0.00  0.00    +0.229 C 
ATOM     24  O   UNL     1      -5.473   2.731  -2.061  0.00  0.00    -0.274 OA
ATOM     25  N   UNL     1      -4.734   1.566  -3.798  0.00  0.00    -0.308 N 
ATOM     26  H   UNL     1      -3.883   1.112  -4.327  0.00  0.00    +0.149 HD
BRANCH  25  27
ATOM     27  C   UNL     1      -6.086   1.446  -4.350  0.00  0.00    +0.100 C 
ATOM     28  C   UNL     1      -6.377   2.648  -5.251  0.00  0.00    +0.033 C 
BRANCH  27  29
ATOM     29  C   UNL     1      -6.190   0.177  -5.156  0.00  0.00    -0.024 A 
ATOM     30  C   UNL     1      -5.080  -0.314  -5.817  0.00  0.00    +0.009 A 
ATOM     31  C   UNL     1      -5.175  -1.479  -6.556  0.00  0.00    -0.047 A 
ATOM     32  C   UNL     1      -6.380  -2.152  -6.633  0.00  0.00    -0.047 A 
ATOM     33  C   UNL     1      -7.490  -1.661  -5.972  0.00  0.00    +0.007 A 
ATOM     34  C   UNL     1      -7.394  -0.499  -5.228  0.00  0.00    -0.045 A 
ATOM     35  C   UNL     1      -8.602   0.034  -4.502  0.00  0.00    +0.044 C 
ATOM     36  C   UNL     1      -6.484  -3.422  -7.438  0.00  0.00    +0.044 C 
ATOM     37  C   UNL     1      -3.965  -2.014  -7.277  0.00  0.00    +0.044 C 
ENDBRANCH  27  29
ENDBRANCH  25  27
ENDBRANCH  22  23
ENDBRANCH   1  22
TORSDOF 8
