REMARK  Name = ZINC29761933
REMARK  9 active torsions:
REMARK  status: ('A' for Active; 'I' for Inactive)
REMARK    1  A    between atoms: C_1  and  C_2
REMARK    2  A    between atoms: C_2  and  C_3
REMARK    3  A    between atoms: C_2  and  C_4
REMARK    4  A    between atoms: C_4  and  N_5
REMARK    5  A    between atoms: C_6  and  C_8
REMARK    6  A    between atoms: C_13  and  N_14
REMARK    7  A    between atoms: C_15  and  C_17
REMARK    8  A    between atoms: N_20  and  S_23
REMARK    9  A    between atoms: S_23  and  C_26
REMARK                            x       y       z     vdW  Elec       q    Type
REMARK                         _______ _______ _______ _____ _____    ______ ____
ROOT
ATOM      1  C   UNL     1       2.571   0.585   0.258  0.00  0.00    +0.078 C 
ATOM      2  C   UNL     1       2.524  -0.247   1.541  0.00  0.00    +0.030 C 
ATOM      3  C   UNL     1       3.806  -1.078   1.654  0.00  0.00    +0.110 C 
ATOM      4  N   UNL     1       4.963  -0.178   1.561  0.00  0.00    -0.177 NA
ATOM      5  C   UNL     1       5.060   0.731   0.411  0.00  0.00    +0.110 C 
ATOM      6  C   UNL     1       3.764   1.542   0.312  0.00  0.00    +0.030 C 
ENDROOT
BRANCH   1   8
ATOM      7  N   UNL     1       0.111   0.742   0.059  0.00  0.00    -0.285 N 
ATOM      8  C   UNL     1       1.297   1.378   0.126  0.00  0.00    +0.220 C 
ATOM      9  O   UNL     1       1.339   2.590   0.080  0.00  0.00    -0.275 OA
ATOM     10  H   UNL     1       0.077  -0.357   0.030  0.00  0.00    +0.155 HD
BRANCH   7  16
ATOM     11  C   UNL     1      -2.224   0.985   0.660  0.00  0.00    +0.058 A 
ATOM     12  C   UNL     1      -3.403   1.733   0.625  0.00  0.00    +0.015 A 
ATOM     13  C   UNL     1      -3.431   2.941  -0.039  0.00  0.00    +0.001 A 
ATOM     14  C   UNL     1      -2.294   3.420  -0.668  0.00  0.00    +0.002 A 
ATOM     15  C   UNL     1      -1.120   2.694  -0.637  0.00  0.00    +0.024 A 
ATOM     16  C   UNL     1      -1.073   1.476   0.027  0.00  0.00    +0.046 A 
BRANCH  11  18
ATOM     17  N   UNL     1      -3.321  -0.830   1.878  0.00  0.00    -0.311 N 
ATOM     18  C   UNL     1      -2.188  -0.311   1.364  0.00  0.00    +0.246 C 
ATOM     19  O   UNL     1      -1.137  -0.911   1.480  0.00  0.00    -0.270 OA
ATOM     20  H   UNL     1      -4.272  -0.287   1.773  0.00  0.00    +0.149 HD
BRANCH  17  21
ATOM     21  C   UNL     1      -3.286  -2.117   2.577  0.00  0.00    +0.107 C 
BRANCH  21  23
ATOM     22  C   UNL     1      -4.680  -3.873   3.678  0.00  0.00    +0.009 C 
ATOM     23  C   UNL     1      -4.693  -2.474   3.059  0.00  0.00    -0.000 C 
ATOM     24  C   UNL     1      -5.147  -1.456   4.107  0.00  0.00    +0.009 C 
ENDBRANCH  21  23
ENDBRANCH  17  21
ENDBRANCH  11  18
ENDBRANCH   7  16
ENDBRANCH   1   8
BRANCH   4  25
ATOM     25  S   UNL     1       6.136  -0.187   2.730  0.00  0.00    +0.061 S 
ATOM     26  O   UNL     1       6.082  -1.466   3.349  0.00  0.00    -0.153 OA
ATOM     27  O   UNL     1       7.318   0.317   2.124  0.00  0.00    -0.153 OA
BRANCH  25  28
ATOM     28  C   UNL     1       5.659   0.986   3.956  0.00  0.00    +0.106 A 
ATOM     29  C   UNL     1       6.069   2.302   3.853  0.00  0.00    +0.029 A 
ATOM     30  C   UNL     1       5.689   3.215   4.814  0.00  0.00    +0.006 A 
ATOM     31  C   UNL     1       4.907   2.821   5.892  0.00  0.00    -0.044 A 
ATOM     32  C   UNL     1       4.500   1.510   5.996  0.00  0.00    -0.042 A 
ATOM     33  C   UNL     1       4.880   0.593   5.024  0.00  0.00    +0.032 A 
ATOM     34  C   UNL     1       3.643   1.014   7.131  0.00  0.00    +0.035 C 
ATOM     35  C   UNL     1       3.677   1.997   8.299  0.00  0.00    +0.005 C 
ATOM     36  C   UNL     1       3.360   3.398   7.762  0.00  0.00    +0.005 C 
ATOM     37  C   UNL     1       4.540   3.866   6.913  0.00  0.00    +0.035 C 
ENDBRANCH  25  28
ENDBRANCH   4  25
TORSDOF 7
