REMARK  Name = ZINC40288358
REMARK  3 active torsions:
REMARK  status: ('A' for Active; 'I' for Inactive)
REMARK    1  A    between atoms: C_3  and  N_8
REMARK    2  A    between atoms: C_17  and  C_19
REMARK    3  A    between atoms: C_22  and  C_25
REMARK                            x       y       z     vdW  Elec       q    Type
REMARK                         _______ _______ _______ _____ _____    ______ ____
ROOT
ATOM      1  N   UNL     1       3.586   2.129  -0.021  0.00  0.00    -0.287 N 
ATOM      2  C   UNL     1       3.914   3.160  -0.856  0.00  0.00    +0.205 A 
ATOM      3  N   UNL     1       5.119   3.575  -0.559  0.00  0.00    -0.238 NA
ATOM      4  C   UNL     1       5.599   2.849   0.449  0.00  0.00    +0.089 A 
ATOM      5  C   UNL     1       4.649   1.937   0.804  0.00  0.00    +0.133 A 
ATOM      6  N   UNL     1       4.851   1.022   1.838  0.00  0.00    -0.270 N 
ATOM      7  C   UNL     1       5.893   1.229   2.673  0.00  0.00    +0.219 C 
ATOM      8  O   UNL     1       6.156   0.386   3.505  0.00  0.00    -0.275 OA
ATOM      9  C   UNL     1       6.735   2.471   2.605  0.00  0.00    +0.110 C 
ATOM     10  C   UNL     1       6.928   2.935   1.155  0.00  0.00    +0.080 C 
ATOM     11  H   UNL     1       4.262   0.260   1.953  0.00  0.00    +0.156 HD
ENDROOT
BRANCH   1  14
ATOM     12  C   UNL     1      -0.017   1.378   0.010  0.00  0.00    +0.005 A 
ATOM     13  C   UNL     1       1.169   2.087   0.002  0.00  0.00    +0.026 A 
ATOM     14  C   UNL     1       2.381   1.411  -0.013  0.00  0.00    +0.052 A 
ATOM     15  C   UNL     1       2.400   0.023  -0.021  0.00  0.00    +0.064 A 
ATOM     16  C   UNL     1       1.210  -0.682  -0.013  0.00  0.00    +0.125 A 
ATOM     17  C   UNL     1       0.002  -0.004   0.002  0.00  0.00    +0.038 A 
ATOM     18  F   UNL     1       1.226  -2.033  -0.021  0.00  0.00    -0.205 F 
ENDBRANCH   1  14
BRANCH  10  19
ATOM     19  C   UNL     1       7.931   2.053   0.456  0.00  0.00    -0.038 A 
ATOM     20  C   UNL     1       7.695   0.694   0.345  0.00  0.00    +0.005 A 
ATOM     21  C   UNL     1       8.608  -0.119  -0.293  0.00  0.00    +0.019 A 
ATOM     22  C   UNL     1       9.774   0.433  -0.828  0.00  0.00    +0.052 A 
ATOM     23  C   UNL     1      10.007   1.805  -0.713  0.00  0.00    +0.019 A 
ATOM     24  C   UNL     1       9.082   2.607  -0.076  0.00  0.00    +0.005 A 
BRANCH  22  25
ATOM     25  C   UNL     1      10.727  -0.405  -1.491  0.00  0.00    +0.099 C 
ATOM     26  N   UNL     1      11.484  -1.070  -2.017  0.00  0.00    -0.191 NA
ENDBRANCH  22  25
ENDBRANCH  10  19
TORSDOF 3
