REMARK  Name = ZINC39760016
REMARK  11 active torsions:
REMARK  status: ('A' for Active; 'I' for Inactive)
REMARK    1  A    between atoms: C_1  and  C_2
REMARK    2  A    between atoms: C_2  and  C_3
REMARK    3  A    between atoms: C_9  and  C_11
REMARK    4  A    between atoms: C_11  and  C_13
REMARK    5  A    between atoms: C_11  and  S_14
REMARK    6  A    between atoms: S_14  and  C_15
REMARK    7  A    between atoms: C_18  and  C_26
REMARK    8  A    between atoms: N_19  and  C_20
REMARK    9  A    between atoms: C_26  and  N_27
REMARK   10  A    between atoms: C_28  and  C_30
REMARK   11  A    between atoms: C_34  and  C_36
REMARK                            x       y       z     vdW  Elec       q    Type
REMARK                         _______ _______ _______ _____ _____    ______ ____
ROOT
ATOM      1  C   UNL     1      -9.552  -4.374  -0.023  0.00  0.00    +0.197 A 
ATOM      2  N   UNL     1      -9.978  -4.108   1.190  0.00  0.00    -0.122 NA
ATOM      3  N   UNL     1     -11.083  -4.725   1.411  0.00  0.00    -0.132 NA
ATOM      4  C   UNL     1     -11.429  -5.416   0.362  0.00  0.00    +0.156 A 
ATOM      5  N   UNL     1     -10.469  -5.214  -0.594  0.00  0.00    -0.273 N 
ENDROOT
BRANCH   5   6
ATOM      6  C   UNL     1     -10.432  -5.757  -1.886  0.00  0.00    +0.050 A 
ATOM      7  C   UNL     1     -11.400  -5.405  -2.816  0.00  0.00    +0.026 A 
ATOM      8  C   UNL     1     -11.361  -5.941  -4.089  0.00  0.00    +0.002 A 
ATOM      9  C   UNL     1     -10.359  -6.828  -4.436  0.00  0.00    +0.000 A 
ATOM     10  C   UNL     1      -9.394  -7.181  -3.511  0.00  0.00    +0.002 A 
ATOM     11  C   UNL     1      -9.424  -6.644  -2.239  0.00  0.00    +0.026 A 
ENDBRANCH   5   6
BRANCH   1  12
ATOM     12  S   UNL     1      -8.083  -3.760  -0.777  0.00  0.00    -0.073 S 
BRANCH  12  13
ATOM     13  C   UNL     1      -7.335  -2.716   0.505  0.00  0.00    +0.137 C 
ATOM     14  C   UNL     1      -8.250  -1.523   0.789  0.00  0.00    +0.029 C 
BRANCH  13  21
ATOM     15  C   UNL     1      -1.412  -0.526   0.013  0.00  0.00    +0.103 A 
ATOM     16  N   UNL     1      -2.212  -0.818  -0.993  0.00  0.00    -0.145 NA
ATOM     17  N   UNL     1      -3.375  -1.249  -0.747  0.00  0.00    -0.126 NA
ATOM     18  C   UNL     1      -3.811  -1.414   0.486  0.00  0.00    +0.188 A 
ATOM     19  S   UNL     1      -2.474  -0.930   1.392  0.00  0.00    -0.035 S 
ATOM     20  N   UNL     1      -5.048  -1.872   0.925  0.00  0.00    -0.262 N 
ATOM     21  C   UNL     1      -5.994  -2.219   0.030  0.00  0.00    +0.232 C 
ATOM     22  O   UNL     1      -5.766  -2.132  -1.158  0.00  0.00    -0.274 OA
ATOM     23  H   UNL     1      -5.231  -1.942   1.875  0.00  0.00    +0.157 HD
BRANCH  15  25
ATOM     24  C   UNL     1      -0.019   1.526   0.010  0.00  0.00    +0.011 C 
ATOM     25  C   UNL     1       0.002  -0.004   0.002  0.00  0.00    +0.061 C 
ENDBRANCH  15  25
ENDBRANCH  13  21
ENDBRANCH  12  13
ENDBRANCH   1  12
BRANCH   4  26
ATOM     26  C   UNL     1     -12.660  -6.275   0.224  0.00  0.00    +0.181 C 
BRANCH  26  27
ATOM     27  N   UNL     1     -13.762  -5.467  -0.305  0.00  0.00    -0.304 N 
ATOM     28  C   UNL     1     -14.969  -6.029  -0.513  0.00  0.00    +0.244 C 
ATOM     29  O   UNL     1     -15.145  -7.205  -0.261  0.00  0.00    -0.270 OA
ATOM     30  H   UNL     1     -13.622  -4.529  -0.506  0.00  0.00    +0.149 HD
BRANCH  28  31
ATOM     31  C   UNL     1     -16.081  -5.213  -1.047  0.00  0.00    +0.037 A 
ATOM     32  C   UNL     1     -15.882  -3.864  -1.343  0.00  0.00    +0.013 A 
ATOM     33  C   UNL     1     -16.923  -3.109  -1.842  0.00  0.00    +0.001 A 
ATOM     34  C   UNL     1     -18.164  -3.687  -2.049  0.00  0.00    +0.003 A 
ATOM     35  C   UNL     1     -18.368  -5.024  -1.757  0.00  0.00    -0.050 A 
ATOM     36  C   UNL     1     -17.333  -5.792  -1.263  0.00  0.00    +0.016 A 
ATOM     37  C   UNL     1     -19.722  -5.645  -1.985  0.00  0.00    +0.044 C 
ENDBRANCH  28  31
ENDBRANCH  26  27
ENDBRANCH   4  26
TORSDOF 8
