REMARK  Name = ZINC38818510
REMARK  5 active torsions:
REMARK  status: ('A' for Active; 'I' for Inactive)
REMARK    1  A    between atoms: C_1  and  C_2
REMARK    2  A    between atoms: C_2  and  C_4
REMARK    3  A    between atoms: C_2  and  N_18
REMARK    4  A    between atoms: N_6  and  N_7
REMARK    5  A    between atoms: C_8  and  C_9
REMARK                            x       y       z     vdW  Elec       q    Type
REMARK                         _______ _______ _______ _____ _____    ______ ____
ROOT
ATOM      1  C   UNL     1      -1.518  -0.281  -0.120  0.00  0.00    +0.253 C 
ATOM      2  O   UNL     1      -1.891  -1.020  -1.006  0.00  0.00    -0.272 OA
ATOM      3  N   UNL     1      -2.321  -0.036   0.935  0.00  0.00    -0.205 N 
ATOM      4  H   UNL     1      -2.023   0.555   1.644  0.00  0.00    +0.177 HD
ENDROOT
BRANCH   1   6
ATOM      5  C   UNL     1      -0.312   1.884  -0.196  0.00  0.00    +0.038 C 
ATOM      6  C   UNL     1      -0.157   0.362  -0.197  0.00  0.00    +0.162 C 
BRANCH   6   7
ATOM      7  N   UNL     1       0.514  -0.061  -1.429  0.00  0.00    -0.270 N 
ATOM      8  C   UNL     1       1.784  -0.781  -1.344  0.00  0.00    +0.214 C 
ATOM      9  N   UNL     1       1.900  -1.740  -2.449  0.00  0.00    -0.328 N 
ATOM     10  C   UNL     1       1.522  -1.340  -3.725  0.00  0.00    +0.040 A 
ATOM     11  C   UNL     1       2.100  -1.883  -4.861  0.00  0.00    +0.024 A 
ATOM     12  C   UNL     1       1.683  -1.461  -6.109  0.00  0.00    +0.002 A 
ATOM     13  C   UNL     1       0.692  -0.501  -6.233  0.00  0.00    +0.001 A 
ATOM     14  C   UNL     1       0.109   0.053  -5.112  0.00  0.00    +0.015 A 
ATOM     15  C   UNL     1       0.523  -0.358  -3.847  0.00  0.00    +0.058 A 
ATOM     16  C   UNL     1      -0.053   0.216  -2.620  0.00  0.00    +0.250 C 
ATOM     17  O   UNL     1      -1.030   0.938  -2.681  0.00  0.00    -0.270 OA
ATOM     18  H   UNL     1       2.235  -2.637  -2.291  0.00  0.00    +0.148 HD
ENDBRANCH   6   7
ENDBRANCH   1   6
BRANCH   3  19
ATOM     19  N   UNL     1      -3.586  -0.633   1.006  0.00  0.00    -0.188 NA
ATOM     20  C   UNL     1      -4.321  -0.484   2.079  0.00  0.00    +0.136 C 
BRANCH  20  21
ATOM     21  C   UNL     1      -3.867   0.322   3.133  0.00  0.00    +0.000 C 
ATOM     22  C   UNL     1      -4.515   0.573   4.340  0.00  0.00    +0.004 A 
ATOM     23  C   UNL     1      -5.750   0.137   4.870  0.00  0.00    +0.010 A 
ATOM     24  C   UNL     1      -6.137   0.551   6.102  0.00  0.00    +0.001 A 
ATOM     25  C   UNL     1      -5.343   1.407   6.871  0.00  0.00    +0.002 A 
ATOM     26  C   UNL     1      -4.148   1.865   6.428  0.00  0.00    +0.026 A 
ATOM     27  C   UNL     1      -3.674   1.475   5.147  0.00  0.00    +0.043 A 
ATOM     28  N   UNL     1      -2.568   1.776   4.498  0.00  0.00    -0.380 N 
ATOM     29  C   UNL     1      -2.569   1.095   3.200  0.00  0.00    +0.150 C 
ATOM     30  H   UNL     1      -1.863   2.353   4.829  0.00  0.00    +0.160 HD
ENDBRANCH  20  21
ENDBRANCH   3  19
TORSDOF 4
