REMARK  Name = ZINC14456794
REMARK  8 active torsions:
REMARK  status: ('A' for Active; 'I' for Inactive)
REMARK    1  A    between atoms: C_1  and  C_2
REMARK    2  A    between atoms: C_2  and  C_3
REMARK    3  A    between atoms: C_3  and  C_5
REMARK    4  A    between atoms: C_3  and  N_6
REMARK    5  A    between atoms: N_6  and  S_7
REMARK    6  A    between atoms: S_7  and  C_10
REMARK    7  A    between atoms: C_23  and  C_26
REMARK    8  A    between atoms: C_29  and  C_31
REMARK                            x       y       z     vdW  Elec       q    Type
REMARK                         _______ _______ _______ _____ _____    ______ ____
ROOT
ATOM      1  C   UNL     1      -3.456  -1.036  -1.052  0.00  0.00    +0.106 A 
ATOM      2  C   UNL     1      -3.238  -1.580  -2.305  0.00  0.00    +0.030 A 
ATOM      3  C   UNL     1      -1.959  -1.615  -2.822  0.00  0.00    +0.025 A 
ATOM      4  C   UNL     1      -0.896  -1.106  -2.085  0.00  0.00    +0.031 A 
ATOM      5  C   UNL     1      -1.110  -0.561  -0.828  0.00  0.00    -0.018 A 
ATOM      6  C   UNL     1      -2.401  -0.531  -0.320  0.00  0.00    +0.034 A 
ATOM      7  C   UNL     1       0.002  -0.004   0.002  0.00  0.00    +0.049 C 
ATOM      8  C   UNL     1      -0.018   1.506   0.010  0.00  0.00    -0.023 C 
ATOM      9  C   UNL     1       1.205   1.976   0.001  0.00  0.00    -0.030 C 
ATOM     10  C   UNL     1       2.210   0.841  -0.009  0.00  0.00    +0.033 C 
ATOM     11  C   UNL     1       1.391  -0.361  -0.562  0.00  0.00    +0.029 C 
ATOM     12  C   UNL     1       1.408  -0.242  -2.071  0.00  0.00    +0.111 C 
ATOM     13  N   UNL     1       0.394  -1.146  -2.624  0.00  0.00    -0.336 N 
ATOM     14  H   UNL     1       0.612  -1.756  -3.347  0.00  0.00    +0.147 HD
ENDROOT
BRANCH  12  15
ATOM     15  C   UNL     1       1.091   1.176  -2.469  0.00  0.00    +0.010 A 
ATOM     16  C   UNL     1       1.936   2.165  -2.851  0.00  0.00    +0.013 A 
ATOM     17  C   UNL     1       1.415   3.403  -3.178  0.00  0.00    +0.011 A 
ATOM     18  C   UNL     1       0.075   3.595  -3.096  0.00  0.00    -0.013 A 
ATOM     19  S   UNL     1      -0.495   1.993  -2.551  0.00  0.00    -0.097 S 
ATOM     20  C   UNL     1      -0.725   4.838  -3.390  0.00  0.00    +0.051 C 
ENDBRANCH  12  15
BRANCH   1  21
ATOM     21  S   UNL     1      -5.088  -0.988  -0.389  0.00  0.00    +0.059 S 
ATOM     22  O   UNL     1      -5.821  -2.017  -1.039  0.00  0.00    -0.153 OA
ATOM     23  O   UNL     1      -4.949  -0.928   1.024  0.00  0.00    -0.153 OA
BRANCH  21  24
ATOM     24  N   UNL     1      -5.766   0.447  -0.860  0.00  0.00    -0.187 NA
ATOM     25  H   UNL     1      -5.998   1.115  -0.196  0.00  0.00    +0.148 HD
BRANCH  24  26
ATOM     26  C   UNL     1      -6.017   0.707  -2.280  0.00  0.00    +0.073 C 
ATOM     27  C   UNL     1      -4.842   1.489  -2.870  0.00  0.00    +0.025 C 
BRANCH  26  29
ATOM     28  C   UNL     1      -8.494   0.695  -1.953  0.00  0.00    +0.005 C 
ATOM     29  C   UNL     1      -7.301   1.526  -2.429  0.00  0.00    +0.017 C 
ENDBRANCH  26  29
ENDBRANCH  24  26
ENDBRANCH  21  24
ENDBRANCH   1  21
TORSDOF 5
