REMARK  Name = ZINC09046165
REMARK  16 active torsions:
REMARK  status: ('A' for Active; 'I' for Inactive)
REMARK    1  A    between atoms: C_1  and  C_2
REMARK    2  A    between atoms: C_3  and  C_13
REMARK    3  A    between atoms: C_4  and  C_12
REMARK    4  A    between atoms: C_7  and  C_8
REMARK    5  A    between atoms: C_8  and  O_10
REMARK    6  A    between atoms: O_10  and  C_11
REMARK    7  A    between atoms: C_13  and  C_15
REMARK    8  A    between atoms: N_19  and  C_31
REMARK    9  A    between atoms: C_20  and  C_22
REMARK   10  A    between atoms: C_25  and  C_28
REMARK   11  A    between atoms: C_28  and  C_29
REMARK   12  A    between atoms: C_28  and  C_30
REMARK   13  A    between atoms: C_31  and  C_32
REMARK   14  A    between atoms: C_32  and  N_33
REMARK   15  A    between atoms: N_33  and  C_34
REMARK   16  A    between atoms: N_33  and  C_35
REMARK                            x       y       z     vdW  Elec       q    Type
REMARK                         _______ _______ _______ _____ _____    ______ ____
ROOT
ATOM      1  C   UNL     1       0.251  -2.260  -3.428  0.00  0.00    +0.076 C 
ATOM      2  C   UNL     1       0.366  -2.306  -4.775  0.00  0.00    +0.249 C 
ATOM      3  C   UNL     1      -0.092  -3.626  -5.257  0.00  0.00    +0.288 C 
ATOM      4  O   UNL     1      -0.111  -3.975  -6.421  0.00  0.00    -0.266 OA
ATOM      5  N   UNL     1      -0.486  -4.383  -4.218  0.00  0.00    -0.285 N 
ATOM      6  C   UNL     1      -0.300  -3.598  -2.992  0.00  0.00    +0.145 C 
ATOM      7  O   UNL     1       0.828  -1.303  -5.557  0.00  0.00    -0.282 OA
ENDROOT
BRANCH   6   8
ATOM      8  C   UNL     1       0.678  -4.287  -2.075  0.00  0.00    -0.022 A 
ATOM      9  C   UNL     1       1.861  -4.793  -2.581  0.00  0.00    +0.006 A 
ATOM     10  C   UNL     1       2.758  -5.424  -1.741  0.00  0.00    +0.004 A 
ATOM     11  C   UNL     1       2.473  -5.550  -0.394  0.00  0.00    -0.045 A 
ATOM     12  C   UNL     1       1.291  -5.043   0.112  0.00  0.00    +0.004 A 
ATOM     13  C   UNL     1       0.396  -4.407  -0.728  0.00  0.00    +0.006 A 
BRANCH  11  14
ATOM     14  C   UNL     1       3.451  -6.239   0.522  0.00  0.00    +0.013 C 
ATOM     15  C   UNL     1       3.903  -5.265   1.612  0.00  0.00    +0.012 C 
ATOM     16  C   UNL     1       2.776  -7.450   1.170  0.00  0.00    +0.012 C 
ENDBRANCH  11  14
ENDBRANCH   6   8
BRANCH   1  17
ATOM     17  C   UNL     1       0.599  -1.131  -2.558  0.00  0.00    +0.197 C 
ATOM     18  O   UNL     1       1.736  -1.011  -2.144  0.00  0.00    -0.287 OA
BRANCH  17  21
ATOM     19  C   UNL     1       1.073   1.509  -0.841  0.00  0.00    +0.047 C 
ATOM     20  C   UNL     1      -0.231   1.031  -1.426  0.00  0.00    -0.008 A 
ATOM     21  C   UNL     1      -0.430  -0.143  -2.187  0.00  0.00    +0.046 A 
ATOM     22  C   UNL     1      -1.773  -0.189  -2.517  0.00  0.00    +0.025 A 
ATOM     23  N   UNL     1      -2.376   0.890  -1.994  0.00  0.00    -0.352 N 
ATOM     24  H   UNL     1      -3.319   1.103  -2.076  0.00  0.00    +0.166 HD
ATOM     25  C   UNL     1      -1.443   1.647  -1.317  0.00  0.00    +0.128 A 
ATOM     26  C   UNL     1      -2.445  -1.268  -3.327  0.00  0.00    +0.064 C 
BRANCH  25  27
ATOM     27  C   UNL     1      -1.709   2.900  -0.603  0.00  0.00    +0.356 C 
ATOM     28  O   UNL     1      -0.802   3.484  -0.042  0.00  0.00    -0.243 OA
BRANCH  27  29
ATOM     29  O   UNL     1      -2.959   3.406  -0.570  0.00  0.00    -0.463 OA
ATOM     30  C   UNL     1      -3.145   4.630   0.143  0.00  0.00    +0.280 C 
ENDBRANCH  27  29
ENDBRANCH  25  27
ENDBRANCH  17  21
ENDBRANCH   1  17
BRANCH   5  31
ATOM     31  C   UNL     1      -1.004  -5.752  -4.295  0.00  0.00    +0.090 C 
BRANCH  31  32
ATOM     32  C   UNL     1       0.157  -6.743  -4.188  0.00  0.00    -0.060 C 
BRANCH  32  33
ATOM     33  N   UNL     1      -0.363  -8.115  -4.266  0.00  0.00    +0.377 N 
ATOM     34  C   UNL     1       0.759  -9.063  -4.284  0.00  0.00    -0.097 C 
ATOM     35  C   UNL     1      -1.212  -8.384  -3.097  0.00  0.00    -0.097 C 
ATOM     36  H   UNL     1      -0.907  -8.221  -5.109  0.00  0.00    -0.083 HD
ENDBRANCH  32  33
ENDBRANCH  31  32
ENDBRANCH   5  31
TORSDOF 9
