REMARK  Name = ZINC00109054
REMARK  5 active torsions:
REMARK  status: ('A' for Active; 'I' for Inactive)
REMARK    1  A    between atoms: C_1  and  C_2
REMARK    2  A    between atoms: C_2  and  C_14
REMARK    3  A    between atoms: C_5  and  C_7
REMARK    4  A    between atoms: C_8  and  S_12
REMARK    5  A    between atoms: S_12  and  C_13
REMARK                            x       y       z     vdW  Elec       q    Type
REMARK                         _______ _______ _______ _____ _____    ______ ____
ROOT
ATOM      1  C   UNL     1       6.994   0.379   0.998  0.00  0.00    +0.039 C 
ATOM      2  C   UNL     1       6.020  -0.181  -0.041  0.00  0.00    +0.094 C 
ATOM      3  C   UNL     1       5.547  -1.601   0.355  0.00  0.00    +0.260 C 
ATOM      4  O   UNL     1       4.162  -1.564  -0.047  0.00  0.00    -0.473 OA
ATOM      5  C   UNL     1       3.766  -0.273  -0.035  0.00  0.00    +0.226 C 
ATOM      6  N   UNL     1       4.754   0.578  -0.045  0.00  0.00    -0.240 NA
ATOM      7  C   UNL     1       6.654  -0.185  -1.433  0.00  0.00    +0.039 C 
ENDROOT
BRANCH   5   8
ATOM      8  C   UNL     1       2.360   0.133  -0.020  0.00  0.00    +0.087 A 
ATOM      9  C   UNL     1       1.217  -0.662  -0.013  0.00  0.00    +0.027 A 
ATOM     10  C   UNL     1       0.002  -0.004   0.002  0.00  0.00    +0.023 A 
ATOM     11  C   UNL     1      -0.016   1.350   0.009  0.00  0.00    +0.047 A 
ATOM     12  S   UNL     1       1.664   1.775  -0.004  0.00  0.00    -0.091 S 
BRANCH   9  13
ATOM     13  S   UNL     1       1.316  -2.421  -0.023  0.00  0.00    -0.127 S 
ATOM     14  C   UNL     1      -0.417  -2.958  -0.009  0.00  0.00    +0.090 C 
ENDBRANCH   9  13
ENDBRANCH   5   8
TORSDOF 2
