REMARK  Name = ZINC23128573
REMARK  11 active torsions:
REMARK  status: ('A' for Active; 'I' for Inactive)
REMARK    1  A    between atoms: C_1  and  O_2
REMARK    2  A    between atoms: O_2  and  C_3
REMARK    3  A    between atoms: C_3  and  C_5
REMARK    4  A    between atoms: C_9  and  S_10
REMARK    5  A    between atoms: S_10  and  N_13
REMARK    6  A    between atoms: N_13  and  C_14
REMARK    7  A    between atoms: C_14  and  C_15
REMARK    8  A    between atoms: C_15  and  C_16
REMARK    9  A    between atoms: N_23  and  C_26
REMARK   10  A    between atoms: C_26  and  C_27
REMARK   11  A    between atoms: C_30  and  O_33
REMARK                            x       y       z     vdW  Elec       q    Type
REMARK                         _______ _______ _______ _____ _____    ______ ____
ROOT
ATOM      1  C   UNL     1       3.041   5.025  -6.417  0.00  0.00    +0.096 A 
ATOM      2  C   UNL     1       3.879   3.907  -6.801  0.00  0.00    -0.019 A 
ATOM      3  C   UNL     1       3.434   2.690  -6.407  0.00  0.00    +0.010 A 
ATOM      4  S   UNL     1       1.933   3.026  -5.534  0.00  0.00    -0.071 S 
ATOM      5  C   UNL     1       1.900   4.752  -5.691  0.00  0.00    +0.157 A 
ATOM      6  C   UNL     1       4.093   1.374  -6.674  0.00  0.00    +0.127 C 
ATOM      7  N   UNL     1       5.103   1.571  -7.730  0.00  0.00    -0.293 NA
ATOM      8  C   UNL     1       5.961   2.724  -7.422  0.00  0.00    +0.090 C 
ATOM      9  C   UNL     1       5.175   4.026  -7.595  0.00  0.00    +0.052 C 
ENDROOT
BRANCH   5  10
ATOM     10  S   UNL     1       0.696   5.883  -5.080  0.00  0.00    +0.065 S 
ATOM     11  O   UNL     1       0.061   6.454  -6.215  0.00  0.00    -0.153 OA
ATOM     12  O   UNL     1       1.345   6.673  -4.093  0.00  0.00    -0.153 OA
BRANCH  10  13
ATOM     13  N   UNL     1      -0.456   4.993  -4.290  0.00  0.00    -0.189 NA
ATOM     14  H   UNL     1      -1.433   4.832  -4.770  0.00  0.00    +0.148 HD
BRANCH  13  15
ATOM     15  C   UNL     1      -0.104   4.251  -3.077  0.00  0.00    +0.110 C 
BRANCH  15  16
ATOM     16  C   UNL     1      -1.382   3.833  -2.347  0.00  0.00    +0.047 C 
BRANCH  16  17
ATOM     17  C   UNL     1      -1.020   3.070  -1.099  0.00  0.00    -0.072 C 
ATOM     18  C   UNL     1      -0.952   3.725   0.015  0.00  0.00    -0.028 C 
ATOM     19  C   UNL     1      -0.595   3.106   1.335  0.00  0.00    +0.027 C 
ATOM     20  C   UNL     1      -0.739   1.585   1.264  0.00  0.00    +0.004 C 
ATOM     21  C   UNL     1      -0.013   1.086   0.008  0.00  0.00    +0.005 C 
ATOM     22  C   UNL     1      -0.761   1.597  -1.225  0.00  0.00    +0.030 C 
ENDBRANCH  16  17
ENDBRANCH  15  16
ENDBRANCH  13  15
ENDBRANCH  10  13
ENDBRANCH   5  10
BRANCH   1  23
ATOM     23  C   UNL     1       3.397   6.404  -6.783  0.00  0.00    +0.342 C 
ATOM     24  O   UNL     1       4.091   7.070  -6.040  0.00  0.00    -0.245 OA
BRANCH  23  26
ATOM     25  C   UNL     1       3.346   8.294  -8.241  0.00  0.00    +0.280 C 
ATOM     26  O   UNL     1       2.955   6.928  -7.944  0.00  0.00    -0.464 OA
ENDBRANCH  23  26
ENDBRANCH   1  23
BRANCH   7  27
ATOM     27  C   UNL     1       5.905   0.355  -7.925  0.00  0.00    +0.120 C 
BRANCH  27  28
ATOM     28  C   UNL     1       5.030  -0.742  -8.475  0.00  0.00    -0.033 A 
ATOM     29  C   UNL     1       4.372  -1.598  -7.612  0.00  0.00    +0.008 A 
ATOM     30  C   UNL     1       3.565  -2.600  -8.113  0.00  0.00    +0.046 A 
ATOM     31  C   UNL     1       3.423  -2.754  -9.485  0.00  0.00    +0.117 A 
ATOM     32  C   UNL     1       4.089  -1.897 -10.349  0.00  0.00    +0.046 A 
ATOM     33  C   UNL     1       4.891  -0.893  -9.842  0.00  0.00    +0.008 A 
BRANCH  31  34
ATOM     34  O   UNL     1       2.634  -3.743  -9.981  0.00  0.00    -0.507 OA
ATOM     35  H   UNL     1       2.522  -3.864 -11.069  0.00  0.00    +0.292 HD
ENDBRANCH  31  34
ENDBRANCH  27  28
ENDBRANCH   7  27
TORSDOF 10
