REMARK  Name = ZINC00996725
REMARK  6 active torsions:
REMARK  status: ('A' for Active; 'I' for Inactive)
REMARK    1  A    between atoms: C_1  and  C_2
REMARK    2  A    between atoms: C_7  and  N_8
REMARK    3  A    between atoms: C_12  and  N_16
REMARK    4  A    between atoms: N_19  and  C_22
REMARK    5  A    between atoms: N_27  and  C_30
REMARK    6  A    between atoms: C_35  and  C_36
REMARK                            x       y       z     vdW  Elec       q    Type
REMARK                         _______ _______ _______ _____ _____    ______ ____
ROOT
ATOM      1  N   UNL     1      -2.053   1.815   1.229  0.00  0.00    +0.389 N 
ATOM      2  C   UNL     1      -1.257   2.060   2.440  0.00  0.00    -0.062 C 
ATOM      3  C   UNL     1      -2.140   1.863   3.675  0.00  0.00    +0.066 C 
ATOM      4  N   UNL     1      -2.684   0.498   3.673  0.00  0.00    -0.295 NA
ATOM      5  C   UNL     1      -3.479   0.253   2.461  0.00  0.00    +0.066 C 
ATOM      6  C   UNL     1      -2.597   0.450   1.227  0.00  0.00    -0.062 C 
ATOM      7  H   UNL     1      -2.899   2.518   1.230  0.00  0.00    -0.081 HD
ENDROOT
BRANCH   1  12
ATOM      8  N   UNL     1       1.066   1.998   0.003  0.00  0.00    -0.212 N 
ATOM      9  C   UNL     1       0.795   3.309   0.012  0.00  0.00    +0.225 C 
ATOM     10  O   UNL     1       1.620   4.197   0.008  0.00  0.00    -0.275 OA
ATOM     11  C   UNL     1      -0.705   3.507   0.027  0.00  0.00    +0.090 C 
ATOM     12  C   UNL     1      -1.260   2.068   0.019  0.00  0.00    +0.029 C 
ATOM     13  C   UNL     1      -0.014   1.208   0.009  0.00  0.00    +0.213 C 
ATOM     14  O   UNL     1       0.002  -0.004   0.002  0.00  0.00    -0.277 OA
BRANCH   8  21
ATOM     15  C   UNL     1       2.350   1.513   2.496  0.00  0.00    +0.045 C 
ATOM     16  C   UNL     1       3.037   1.244   1.182  0.00  0.00    -0.029 A 
ATOM     17  C   UNL     1       4.324   0.743   1.164  0.00  0.00    +0.005 A 
ATOM     18  C   UNL     1       4.957   0.501  -0.041  0.00  0.00    +0.000 A 
ATOM     19  C   UNL     1       4.301   0.755  -1.232  0.00  0.00    +0.002 A 
ATOM     20  C   UNL     1       3.012   1.251  -1.221  0.00  0.00    +0.024 A 
ATOM     21  C   UNL     1       2.374   1.494  -0.012  0.00  0.00    +0.047 A 
ENDBRANCH   8  21
ENDBRANCH   1  12
BRANCH   4  22
ATOM     22  C   UNL     1      -3.477   0.245   4.883  0.00  0.00    +0.153 C 
ATOM     23  C   UNL     1      -2.651   0.556   6.148  0.00  0.00    +0.125 C 
ATOM     24  C   UNL     1      -3.432   1.666   6.817  0.00  0.00    +0.228 C 
ATOM     25  O   UNL     1      -3.127   2.211   7.857  0.00  0.00    -0.275 OA
ATOM     26  N   UNL     1      -4.513   1.950   6.081  0.00  0.00    -0.209 N 
ATOM     27  C   UNL     1      -4.640   1.209   4.969  0.00  0.00    +0.244 C 
ATOM     28  O   UNL     1      -5.540   1.298   4.161  0.00  0.00    -0.273 OA
BRANCH  26  29
ATOM     29  C   UNL     1      -5.438   2.940   6.442  0.00  0.00    +0.047 A 
ATOM     30  C   UNL     1      -5.263   4.247   6.007  0.00  0.00    +0.024 A 
ATOM     31  C   UNL     1      -6.176   5.220   6.364  0.00  0.00    +0.002 A 
ATOM     32  C   UNL     1      -7.264   4.893   7.153  0.00  0.00    +0.000 A 
ATOM     33  C   UNL     1      -7.441   3.592   7.587  0.00  0.00    +0.005 A 
ATOM     34  C   UNL     1      -6.533   2.614   7.229  0.00  0.00    -0.029 A 
ATOM     35  C   UNL     1      -6.729   1.196   7.698  0.00  0.00    +0.045 C 
ENDBRANCH  26  29
ENDBRANCH   4  22
TORSDOF 4
