REMARK  Name = ZINC32520414
REMARK  12 active torsions:
REMARK  status: ('A' for Active; 'I' for Inactive)
REMARK    1  A    between atoms: C_1  and  N_2
REMARK    2  A    between atoms: N_2  and  C_3
REMARK    3  A    between atoms: N_2  and  C_4
REMARK    4  A    between atoms: C_7  and  C_10
REMARK    5  A    between atoms: C_10  and  C_12
REMARK    6  A    between atoms: C_10  and  C_27
REMARK    7  A    between atoms: C_12  and  N_13
REMARK    8  A    between atoms: C_14  and  C_16
REMARK    9  A    between atoms: C_16  and  N_17
REMARK   10  A    between atoms: N_17  and  C_18
REMARK   11  A    between atoms: N_17  and  S_19
REMARK   12  A    between atoms: S_19  and  C_22
REMARK                            x       y       z     vdW  Elec       q    Type
REMARK                         _______ _______ _______ _____ _____    ______ ____
ROOT
ATOM      1  C   UNL     1      -2.956  -2.496   4.749  0.00  0.00    +0.068 C 
ENDROOT
BRANCH   1   2
ATOM      2  C   UNL     1      -2.247  -1.677   5.797  0.00  0.00    -0.013 A 
ATOM      3  C   UNL     1      -2.603  -0.459   6.235  0.00  0.00    +0.088 A 
ATOM      4  N   UNL     1      -1.721  -0.031   7.190  0.00  0.00    -0.360 N 
ATOM      5  H   UNL     1      -1.858   0.953   7.663  0.00  0.00    +0.165 HD
ATOM      6  C   UNL     1      -0.752  -0.987   7.395  0.00  0.00    +0.047 A 
ATOM      7  C   UNL     1      -1.042  -2.063   6.536  0.00  0.00    +0.003 A 
ATOM      8  C   UNL     1      -0.221  -3.192   6.531  0.00  0.00    +0.010 A 
ATOM      9  C   UNL     1       0.861  -3.247   7.365  0.00  0.00    +0.001 A 
ATOM     10  C   UNL     1       1.149  -2.190   8.217  0.00  0.00    +0.002 A 
ATOM     11  C   UNL     1       0.356  -1.063   8.232  0.00  0.00    +0.026 A 
ENDBRANCH   1   2
BRANCH   1  15
ATOM     12  C   UNL     1      -6.964  -3.270   6.017  0.00  0.00    +0.029 A 
ATOM     13  C   UNL     1      -6.095  -4.325   5.772  0.00  0.00    +0.023 A 
ATOM     14  C   UNL     1      -4.801  -4.072   5.363  0.00  0.00    +0.006 A 
ATOM     15  C   UNL     1      -4.369  -2.769   5.196  0.00  0.00    -0.038 A 
ATOM     16  C   UNL     1      -5.230  -1.715   5.444  0.00  0.00    +0.006 A 
ATOM     17  C   UNL     1      -6.527  -1.962   5.849  0.00  0.00    +0.023 A 
BRANCH  12  19
ATOM     18  C   UNL     1      -8.732  -4.902   6.609  0.00  0.00    +0.129 C 
ATOM     19  N   UNL     1      -8.273  -3.522   6.432  0.00  0.00    -0.336 N 
ATOM     20  C   UNL     1      -9.188  -2.408   6.690  0.00  0.00    +0.129 C 
ENDBRANCH  12  19
ENDBRANCH   1  15
BRANCH   1  21
ATOM     21  C   UNL     1      -2.979  -1.724   3.429  0.00  0.00    +0.117 C 
BRANCH  21  22
ATOM     22  N   UNL     1      -1.610  -1.563   2.933  0.00  0.00    -0.313 N 
ATOM     23  C   UNL     1      -1.384  -0.909   1.776  0.00  0.00    +0.229 C 
ATOM     24  O   UNL     1      -2.315  -0.455   1.145  0.00  0.00    -0.274 OA
ATOM     25  H   UNL     1      -0.766  -1.975   3.506  0.00  0.00    +0.149 HD
BRANCH  23  26
ATOM     26  C   UNL     1       0.024  -0.743   1.267  0.00  0.00    +0.204 C 
BRANCH  26  27
ATOM     27  N   UNL     1       0.002  -0.004   0.002  0.00  0.00    -0.170 NA
ATOM     28  C   UNL     1      -0.018   1.461   0.010  0.00  0.00    +0.132 C 
BRANCH  27  29
ATOM     29  S   UNL     1      -0.000  -0.824  -1.437  0.00  0.00    +0.067 S 
ATOM     30  O   UNL     1      -0.531  -2.115  -1.167  0.00  0.00    -0.152 OA
ATOM     31  O   UNL     1      -0.572   0.049  -2.401  0.00  0.00    -0.152 OA
BRANCH  29  32
ATOM     32  C   UNL     1       1.682  -1.059  -1.905  0.00  0.00    +0.143 A 
ATOM     33  C   UNL     1       2.516  -2.085  -1.606  0.00  0.00    +0.036 A 
ATOM     34  C   UNL     1       3.810  -2.060  -2.091  0.00  0.00    +0.010 A 
ATOM     35  C   UNL     1       4.210  -1.006  -2.843  0.00  0.00    +0.047 A 
ATOM     36  S   UNL     1       2.732  -0.004  -2.890  0.00  0.00    -0.077 S 
ENDBRANCH  29  32
ENDBRANCH  27  29
ENDBRANCH  26  27
ENDBRANCH  23  26
ENDBRANCH  21  22
ENDBRANCH   1  21
TORSDOF 9
