REMARK  Name = ZINC12504777
REMARK  7 active torsions:
REMARK  status: ('A' for Active; 'I' for Inactive)
REMARK    1  A    between atoms: C_1  and  C_2
REMARK    2  A    between atoms: C_2  and  N_3
REMARK    3  A    between atoms: N_3  and  C_4
REMARK    4  A    between atoms: C_4  and  C_5
REMARK    5  A    between atoms: C_7  and  C_24
REMARK    6  A    between atoms: C_14  and  N_16
REMARK    7  A    between atoms: C_19  and  C_22
REMARK                            x       y       z     vdW  Elec       q    Type
REMARK                         _______ _______ _______ _____ _____    ______ ____
ROOT
ATOM      1  N   UNL     1      -1.294  -2.785   0.437  0.00  0.00    -0.315 N 
ATOM      2  C   UNL     1      -0.114  -2.169   0.067  0.00  0.00    +0.141 A 
ATOM      3  C   UNL     1       0.983  -2.197   0.943  0.00  0.00    +0.100 A 
ATOM      4  C   UNL     1       2.212  -1.531   0.513  0.00  0.00    +0.018 A 
ATOM      5  C   UNL     1       3.368  -1.486   1.284  0.00  0.00    +0.027 A 
ATOM      6  C   UNL     1       4.492  -0.840   0.800  0.00  0.00    +0.221 A 
ATOM      7  N   UNL     1       4.460  -0.251  -0.401  0.00  0.00    -0.197 NA
ATOM      8  C   UNL     1       3.394  -0.256  -1.178  0.00  0.00    +0.131 A 
ATOM      9  C   UNL     1       2.216  -0.901  -0.759  0.00  0.00    +0.063 A 
ATOM     10  C   UNL     1       1.048  -0.945  -1.544  0.00  0.00    +0.129 A 
ATOM     11  N   UNL     1      -0.039  -1.556  -1.107  0.00  0.00    -0.216 NA
ATOM     12  N   UNL     1       3.434   0.375  -2.408  0.00  0.00    -0.342 N 
ATOM     13  O   UNL     1       5.524  -0.926   1.684  0.00  0.00    -0.471 OA
ATOM     14  C   UNL     1       5.008  -1.240   2.988  0.00  0.00    +0.194 C 
ATOM     15  C   UNL     1       3.712  -2.019   2.660  0.00  0.00    +0.087 C 
ATOM     16  H   UNL     1       2.546   0.372  -3.057  0.00  0.00    +0.144 HD
ATOM     17  H   UNL     1       4.354   0.880  -2.737  0.00  0.00    +0.144 HD
ENDROOT
BRANCH  10  18
ATOM     18  N   UNL     1       1.037  -0.339  -2.782  0.00  0.00    -0.343 N 
ATOM     19  H   UNL     1       0.128  -0.369  -3.401  0.00  0.00    +0.144 HD
ATOM     20  H   UNL     1       1.937   0.175  -3.151  0.00  0.00    +0.144 HD
ENDBRANCH  10  18
BRANCH   1  22
ATOM     21  C   UNL     1      -3.623  -2.415   1.096  0.00  0.00    +0.024 C 
ATOM     22  C   UNL     1      -2.432  -1.865   0.309  0.00  0.00    +0.103 C 
ENDBRANCH   1  22
BRANCH   1  23
ATOM     23  C   UNL     1      -1.516  -4.009  -0.345  0.00  0.00    +0.103 C 
ATOM     24  C   UNL     1      -1.550  -3.662  -1.835  0.00  0.00    +0.024 C 
ENDBRANCH   1  23
BRANCH  14  25
ATOM     25  C   UNL     1       5.990  -2.122   3.762  0.00  0.00    +0.153 C 
ATOM     26 CL   UNL     1       7.489  -1.184   4.116  0.00  0.00    -0.122 Cl
ENDBRANCH  14  25
BRANCH   3  27
ATOM     27  C   UNL     1       0.901  -2.854   2.213  0.00  0.00    +0.103 C 
ATOM     28  N   UNL     1       0.837  -3.375   3.220  0.00  0.00    -0.191 NA
ENDBRANCH   3  27
TORSDOF 5
