REMARK  Name = ZINC12801416
REMARK  5 active torsions:
REMARK  status: ('A' for Active; 'I' for Inactive)
REMARK    1  A    between atoms: C_4  and  N_7
REMARK    2  A    between atoms: C_10  and  C_12
REMARK    3  A    between atoms: N_14  and  C_15
REMARK    4  A    between atoms: C_15  and  C_16
REMARK    5  A    between atoms: N_18  and  C_19
REMARK                            x       y       z     vdW  Elec       q    Type
REMARK                         _______ _______ _______ _____ _____    ______ ____
ROOT
ATOM      1  C   UNL     1      -1.173  -0.896  -0.024  0.00  0.00    +0.265 C 
ATOM      2  O   UNL     1      -1.019  -2.102  -0.037  0.00  0.00    -0.268 OA
ATOM      3  N   UNL     1      -2.417  -0.376   0.001  0.00  0.00    -0.301 N 
ATOM      4  H   UNL     1      -2.540   0.586   0.011  0.00  0.00    +0.150 HD
ENDROOT
BRANCH   1   8
ATOM      5  N   UNL     1       1.183   1.776  -0.039  0.00  0.00    -0.236 N 
ATOM      6  C   UNL     1       2.075   0.749  -0.063  0.00  0.00    +0.049 A 
ATOM      7  C   UNL     1       1.359  -0.396  -0.061  0.00  0.00    +0.006 A 
ATOM      8  C   UNL     1       0.001  -0.002  -0.036  0.00  0.00    +0.151 A 
ATOM      9  N   UNL     1      -0.017   1.317  -0.024  0.00  0.00    -0.161 NA
ATOM     10  C   UNL     1       2.277  -1.594  -0.088  0.00  0.00    +0.040 C 
ATOM     11  C   UNL     1       3.647  -1.038  -0.535  0.00  0.00    +0.011 C 
ATOM     12  C   UNL     1       3.555   0.438  -0.088  0.00  0.00    +0.056 C 
BRANCH   5  16
ATOM     13  C   UNL     1       2.195   5.819  -0.018  0.00  0.00    +0.000 A 
ATOM     14  C   UNL     1       1.064   5.394  -0.691  0.00  0.00    +0.002 A 
ATOM     15  C   UNL     1       0.726   4.055  -0.700  0.00  0.00    +0.028 A 
ATOM     16  C   UNL     1       1.523   3.135  -0.032  0.00  0.00    +0.066 A 
ATOM     17  C   UNL     1       2.655   3.565   0.647  0.00  0.00    +0.028 A 
ATOM     18  C   UNL     1       2.991   4.905   0.647  0.00  0.00    +0.002 A 
ENDBRANCH   5  16
ENDBRANCH   1   8
BRANCH   3  19
ATOM     19  C   UNL     1      -3.582  -1.264   0.013  0.00  0.00    +0.200 C 
BRANCH  19  20
ATOM     20  C   UNL     1      -4.842  -0.438   0.041  0.00  0.00    +0.234 C 
ATOM     21  O   UNL     1      -4.774   0.773   0.050  0.00  0.00    -0.274 OA
ATOM     22  N   UNL     1      -6.045  -1.045   0.056  0.00  0.00    -0.283 N 
ATOM     23  H   UNL     1      -6.102  -2.011  -0.018  0.00  0.00    +0.155 HD
BRANCH  22  24
ATOM     24  C   UNL     1      -7.213  -0.282   0.176  0.00  0.00    +0.047 A 
ATOM     25  C   UNL     1      -7.286   0.975  -0.408  0.00  0.00    +0.024 A 
ATOM     26  C   UNL     1      -8.440   1.724  -0.290  0.00  0.00    +0.002 A 
ATOM     27  C   UNL     1      -9.520   1.227   0.416  0.00  0.00    +0.001 A 
ATOM     28  C   UNL     1      -9.450  -0.023   1.004  0.00  0.00    +0.017 A 
ATOM     29  C   UNL     1      -8.299  -0.779   0.886  0.00  0.00    +0.039 A 
ATOM     30 BR   UNL     1      -8.203  -2.488   1.690  0.00  0.00    -0.048 Br
ENDBRANCH  22  24
ENDBRANCH  19  20
ENDBRANCH   3  19
TORSDOF 5
