REMARK  Name = ZINC36604705
REMARK  11 active torsions:
REMARK  status: ('A' for Active; 'I' for Inactive)
REMARK    1  A    between atoms: C_1  and  C_2
REMARK    2  A    between atoms: C_5  and  S_8
REMARK    3  A    between atoms: S_8  and  C_11
REMARK    4  A    between atoms: C_11  and  N_12
REMARK    5  A    between atoms: C_13  and  C_15
REMARK    6  A    between atoms: C_15  and  C_17
REMARK    7  A    between atoms: C_15  and  N_26
REMARK    8  A    between atoms: C_17  and  C_19
REMARK    9  A    between atoms: C_17  and  C_20
REMARK   10  A    between atoms: N_26  and  C_27
REMARK   11  A    between atoms: C_33  and  C_35
REMARK                            x       y       z     vdW  Elec       q    Type
REMARK                         _______ _______ _______ _____ _____    ______ ____
ROOT
ATOM      1  C   UNL     1       3.526  -5.005   3.661  0.00  0.00    +0.174 C 
ENDROOT
BRANCH   1   3
ATOM      2  N   UNL     1       2.301  -4.298   1.631  0.00  0.00    -0.295 N 
ATOM      3  C   UNL     1       2.486  -5.224   2.592  0.00  0.00    +0.236 C 
ATOM      4  O   UNL     1       1.815  -6.235   2.597  0.00  0.00    -0.274 OA
ATOM      5  H   UNL     1       2.826  -3.482   1.637  0.00  0.00    +0.150 HD
BRANCH   2   6
ATOM      6  C   UNL     1       1.306  -4.522   0.580  0.00  0.00    +0.278 C 
BRANCH   6   7
ATOM      7  S   UNL     1      -0.256  -3.725   1.044  0.00  0.00    +0.013 S 
ATOM      8  O   UNL     1      -0.588  -4.045   2.388  0.00  0.00    -0.168 OA
ATOM      9  O   UNL     1      -1.212  -3.879   0.005  0.00  0.00    -0.168 OA
BRANCH   7  14
ATOM     10  C   UNL     1       0.980   2.181   1.132  0.00  0.00    +0.044 C 
ATOM     11  C   UNL     1       0.671   0.706   1.110  0.00  0.00    -0.050 A 
ATOM     12  C   UNL     1       0.228   0.110  -0.056  0.00  0.00    +0.005 A 
ATOM     13  C   UNL     1      -0.055  -1.243  -0.076  0.00  0.00    +0.027 A 
ATOM     14  C   UNL     1       0.106  -2.000   1.070  0.00  0.00    +0.090 A 
ATOM     15  C   UNL     1       0.550  -1.404   2.235  0.00  0.00    +0.027 A 
ATOM     16  C   UNL     1       0.837  -0.052   2.254  0.00  0.00    +0.005 A 
ENDBRANCH   7  14
ENDBRANCH   6   7
ENDBRANCH   2   6
ENDBRANCH   1   3
BRANCH   1  17
ATOM     17  N   UNL     1       3.478  -6.109   4.622  0.00  0.00    -0.259 N 
ATOM     18  C   UNL     1       2.928  -5.920   5.838  0.00  0.00    +0.224 C 
ATOM     19  O   UNL     1       2.454  -4.842   6.128  0.00  0.00    -0.275 OA
BRANCH  17  20
ATOM     20  C   UNL     1       4.005  -7.359   4.279  0.00  0.00    +0.037 A 
ATOM     21  C   UNL     1       4.869  -8.012   5.148  0.00  0.00    +0.023 A 
ATOM     22  C   UNL     1       5.386  -9.247   4.807  0.00  0.00    +0.002 A 
ATOM     23  C   UNL     1       5.045  -9.832   3.601  0.00  0.00    +0.000 A 
ATOM     24  C   UNL     1       4.185  -9.183   2.734  0.00  0.00    +0.002 A 
ATOM     25  C   UNL     1       3.660  -7.951   3.072  0.00  0.00    +0.023 A 
ENDBRANCH  17  20
BRANCH  18  26
ATOM     26  C   UNL     1       2.901  -7.049   6.836  0.00  0.00    +0.076 C 
ATOM     27  C   UNL     1       2.038  -8.190   6.293  0.00  0.00    +0.013 C 
ATOM     28  C   UNL     1       2.011  -9.335   7.307  0.00  0.00    +0.001 C 
ATOM     29  C   UNL     1       1.421  -8.835   8.627  0.00  0.00    +0.000 C 
ATOM     30  C   UNL     1       2.284  -7.694   9.170  0.00  0.00    +0.001 C 
ATOM     31  C   UNL     1       2.311  -6.548   8.156  0.00  0.00    +0.013 C 
ENDBRANCH  18  26
ENDBRANCH   1  17
BRANCH   1  32
ATOM     32  C   UNL     1       4.913  -4.948   3.018  0.00  0.00    +0.046 C 
ATOM     33  C   UNL     1       4.975  -3.771   2.042  0.00  0.00    +0.015 C 
BRANCH  32  34
ATOM     34  C   UNL     1       5.957  -4.767   4.090  0.00  0.00    -0.042 A 
ATOM     35  C   UNL     1       5.918  -3.656   4.911  0.00  0.00    +0.004 A 
ATOM     36  C   UNL     1       6.875  -3.490   5.895  0.00  0.00    +0.000 A 
ATOM     37  C   UNL     1       7.871  -4.435   6.057  0.00  0.00    +0.000 A 
ATOM     38  C   UNL     1       7.909  -5.547   5.236  0.00  0.00    +0.000 A 
ATOM     39  C   UNL     1       6.949  -5.715   4.256  0.00  0.00    +0.004 A 
ENDBRANCH  32  34
ENDBRANCH   1  32
TORSDOF 9
