REMARK  Name = ZINC36494344
REMARK  10 active torsions:
REMARK  status: ('A' for Active; 'I' for Inactive)
REMARK    1  A    between atoms: C_1  and  C_2
REMARK    2  A    between atoms: C_5  and  S_8
REMARK    3  A    between atoms: S_8  and  C_11
REMARK    4  A    between atoms: C_11  and  N_12
REMARK    5  A    between atoms: C_13  and  C_15
REMARK    6  A    between atoms: C_15  and  C_17
REMARK    7  A    between atoms: C_15  and  N_23
REMARK    8  A    between atoms: N_23  and  C_24
REMARK    9  A    between atoms: C_24  and  C_25
REMARK   10  A    between atoms: C_30  and  C_32
REMARK                            x       y       z     vdW  Elec       q    Type
REMARK                         _______ _______ _______ _____ _____    ______ ____
ROOT
ATOM      1  C   UNL     1       2.799  -5.126   3.370  0.00  0.00    +0.165 C 
ENDROOT
BRANCH   1   2
ATOM      2  C   UNL     1       3.914  -4.670   2.427  0.00  0.00    +0.018 C 
ATOM      3  C   UNL     1       5.107  -4.178   3.249  0.00  0.00    +0.006 C 
ATOM      4  C   UNL     1       6.223  -3.722   2.307  0.00  0.00    +0.000 C 
ATOM      5  C   UNL     1       5.710  -2.584   1.422  0.00  0.00    +0.000 C 
ATOM      6  C   UNL     1       4.516  -3.076   0.600  0.00  0.00    +0.000 C 
ATOM      7  C   UNL     1       3.401  -3.532   1.542  0.00  0.00    +0.006 C 
ENDBRANCH   1   2
BRANCH   1   9
ATOM      8  N   UNL     1       0.785  -4.676   2.005  0.00  0.00    -0.295 N 
ATOM      9  C   UNL     1       1.613  -5.583   2.560  0.00  0.00    +0.235 C 
ATOM     10  O   UNL     1       1.403  -6.768   2.408  0.00  0.00    -0.274 OA
ATOM     11  H   UNL     1       0.909  -3.731   2.187  0.00  0.00    +0.150 HD
BRANCH   8  12
ATOM     12  C   UNL     1      -0.303  -5.117   1.128  0.00  0.00    +0.278 C 
BRANCH  12  13
ATOM     13  S   UNL     1      -1.830  -5.279   2.093  0.00  0.00    +0.013 S 
ATOM     14  O   UNL     1      -1.577  -5.997   3.293  0.00  0.00    -0.168 OA
ATOM     15  O   UNL     1      -2.909  -5.645   1.244  0.00  0.00    -0.168 OA
BRANCH  13  20
ATOM     16  C   UNL     1      -3.129   0.328   3.903  0.00  0.00    +0.044 C 
ATOM     17  C   UNL     1      -2.804  -1.072   3.451  0.00  0.00    -0.050 A 
ATOM     18  C   UNL     1      -3.301  -1.543   2.250  0.00  0.00    +0.005 A 
ATOM     19  C   UNL     1      -3.003  -2.828   1.835  0.00  0.00    +0.027 A 
ATOM     20  C   UNL     1      -2.209  -3.641   2.621  0.00  0.00    +0.090 A 
ATOM     21  C   UNL     1      -1.712  -3.170   3.822  0.00  0.00    +0.027 A 
ATOM     22  C   UNL     1      -2.006  -1.884   4.235  0.00  0.00    +0.005 A 
ENDBRANCH  13  20
ENDBRANCH  12  13
ENDBRANCH   8  12
ENDBRANCH   1   9
BRANCH   1  23
ATOM     23  N   UNL     1       3.281  -6.234   4.198  0.00  0.00    -0.282 N 
ATOM     24  C   UNL     1       3.176  -6.168   5.540  0.00  0.00    +0.220 C 
ATOM     25  O   UNL     1       3.663  -7.038   6.230  0.00  0.00    -0.275 OA
BRANCH  24  26
ATOM     26  C   UNL     1       2.454  -5.012   6.183  0.00  0.00    +0.075 C 
ATOM     27  C   UNL     1       3.255  -3.727   5.969  0.00  0.00    +0.013 C 
ATOM     28  C   UNL     1       2.522  -2.554   6.622  0.00  0.00    +0.001 C 
ATOM     29  C   UNL     1       2.371  -2.817   8.122  0.00  0.00    +0.000 C 
ATOM     30  C   UNL     1       1.569  -4.103   8.335  0.00  0.00    +0.001 C 
ATOM     31  C   UNL     1       2.303  -5.276   7.682  0.00  0.00    +0.013 C 
ENDBRANCH  24  26
BRANCH  23  32
ATOM     32  C   UNL     1       3.878  -7.414   3.567  0.00  0.00    +0.182 C 
BRANCH  32  33
ATOM     33  C   UNL     1       5.378  -7.266   3.543  0.00  0.00    +0.122 A 
ATOM     34  C   UNL     1       6.225  -7.682   4.502  0.00  0.00    +0.046 A 
ATOM     35  C   UNL     1       7.528  -7.343   4.072  0.00  0.00    +0.041 A 
ATOM     36  C   UNL     1       7.400  -6.740   2.876  0.00  0.00    +0.195 A 
ATOM     37  O   UNL     1       6.096  -6.702   2.558  0.00  0.00    -0.466 OA
ENDBRANCH  32  33
ENDBRANCH  23  32
ENDBRANCH   1  23
TORSDOF 9
