REMARK  Name = ZINC42890388
REMARK  15 active torsions:
REMARK  status: ('A' for Active; 'I' for Inactive)
REMARK    1  A    between atoms: C_1  and  C_2
REMARK    2  A    between atoms: C_2  and  O_3
REMARK    3  A    between atoms: O_3  and  C_4
REMARK    4  A    between atoms: C_6  and  C_17
REMARK    5  A    between atoms: C_9  and  C_10
REMARK    6  A    between atoms: N_12  and  S_13
REMARK    7  A    between atoms: S_13  and  C_16
REMARK    8  A    between atoms: C_20  and  C_23
REMARK    9  A    between atoms: C_23  and  C_24
REMARK   10  A    between atoms: C_24  and  N_25
REMARK   11  A    between atoms: N_25  and  C_26
REMARK   12  A    between atoms: C_26  and  C_27
REMARK   13  A    between atoms: C_27  and  C_29
REMARK   14  A    between atoms: C_27  and  O_36
REMARK   15  A    between atoms: C_34  and  N_35
REMARK                            x       y       z     vdW  Elec       q    Type
REMARK                         _______ _______ _______ _____ _____    ______ ____
ROOT
ATOM      1  C   UNL     1       0.630  -4.947  -0.019  0.00  0.00    -0.018 A 
ATOM      2  C   UNL     1       1.913  -4.401  -0.017  0.00  0.00    +0.009 A 
ATOM      3  C   UNL     1       3.014  -5.233  -0.027  0.00  0.00    +0.004 A 
ATOM      4  C   UNL     1       2.847  -6.606  -0.039  0.00  0.00    -0.049 A 
ATOM      5  C   UNL     1       1.576  -7.154  -0.042  0.00  0.00    +0.004 A 
ATOM      6  C   UNL     1       0.468  -6.332  -0.025  0.00  0.00    +0.009 A 
ENDROOT
BRANCH   1   9
ATOM      7  C   UNL     1      -1.498  -1.847   0.006  0.00  0.00    +0.133 A 
ATOM      8  C   UNL     1      -0.390  -2.676  -0.003  0.00  0.00    +0.055 A 
ATOM      9  C   UNL     1      -0.557  -4.059  -0.009  0.00  0.00    -0.014 A 
ATOM     10  C   UNL     1      -1.840  -4.609  -0.005  0.00  0.00    +0.009 A 
ATOM     11  C   UNL     1      -2.944  -3.789   0.004  0.00  0.00    +0.017 A 
ATOM     12  C   UNL     1      -2.785  -2.401   0.016  0.00  0.00    +0.084 A 
BRANCH  12  13
ATOM     13  C   UNL     1      -3.970  -1.521   0.032  0.00  0.00    +0.298 C 
ATOM     14  O   UNL     1      -5.212  -2.058   0.041  0.00  0.00    -0.264 OA
ATOM     15  N   UNL     1      -3.820  -0.228   0.037  0.00  0.00    -0.091 NA
BRANCH  15  16
ATOM     16  S   UNL     1      -5.149   0.760   0.056  0.00  0.00    +0.070 S 
ATOM     17  O   UNL     1      -5.812   0.499  -1.174  0.00  0.00    -0.152 OA
ATOM     18  O   UNL     1      -5.788   0.485   1.295  0.00  0.00    -0.152 OA
ATOM     19  C   UNL     1      -4.478   2.445   0.058  0.00  0.00    +0.223 C 
ENDBRANCH  15  16
ENDBRANCH  12  13
BRANCH   7  20
ATOM     20  O   UNL     1      -1.339  -0.499   0.012  0.00  0.00    -0.491 OA
BRANCH  20  22
ATOM     21  C   UNL     1      -0.019   1.526   0.010  0.00  0.00    +0.048 C 
ATOM     22  C   UNL     1       0.002  -0.004   0.002  0.00  0.00    +0.226 C 
ENDBRANCH  20  22
ENDBRANCH   7  20
ENDBRANCH   1   9
BRANCH   4  23
ATOM     23  C   UNL     1       4.053  -7.509  -0.051  0.00  0.00    +0.016 C 
BRANCH  23  24
ATOM     24  C   UNL     1       4.465  -7.828   1.388  0.00  0.00    -0.078 C 
BRANCH  24  25
ATOM     25  N   UNL     1       5.641  -8.708   1.377  0.00  0.00    +0.381 N 
ATOM     26  H   UNL     1       5.415  -9.565   0.894  0.00  0.00    -0.086 HD
ATOM     27  H   UNL     1       6.403  -8.246   0.904  0.00  0.00    -0.086 HD
BRANCH  25  28
ATOM     28  C   UNL     1       6.036  -9.014   2.759  0.00  0.00    -0.046 C 
BRANCH  28  29
ATOM     29  C   UNL     1       7.261  -9.931   2.747  0.00  0.00    +0.131 C 
BRANCH  29  30
ATOM     30  C   UNL     1       7.667 -10.245   4.164  0.00  0.00    +0.016 A 
ATOM     31  C   UNL     1       7.228 -11.400   4.778  0.00  0.00    +0.090 A 
ATOM     32  N   UNL     1       7.579 -11.682   6.018  0.00  0.00    -0.367 N 
ATOM     33  C   UNL     1       8.358 -10.882   6.722  0.00  0.00    +0.084 A 
ATOM     34  C   UNL     1       8.839  -9.708   6.182  0.00  0.00    +0.040 A 
ATOM     35  C   UNL     1       8.496  -9.375   4.872  0.00  0.00    +0.033 A 
ATOM     36  H   UNL     1       7.255 -12.502   6.424  0.00  0.00    +0.165 HD
BRANCH  35  37
ATOM     37  N   UNL     1       8.965  -8.202   4.287  0.00  0.00    -0.358 N 
ATOM     38  H   UNL     1       8.716  -7.981   3.376  0.00  0.00    +0.142 HD
ATOM     39  H   UNL     1       9.541  -7.606   4.791  0.00  0.00    +0.142 HD
ENDBRANCH  35  37
ENDBRANCH  29  30
BRANCH  29  40
ATOM     40  O   UNL     1       6.942 -11.145   2.063  0.00  0.00    -0.389 OA
ATOM     41  H   UNL     1       6.216 -11.643   2.464  0.00  0.00    +0.210 HD
ENDBRANCH  29  40
ENDBRANCH  28  29
ENDBRANCH  25  28
ENDBRANCH  24  25
ENDBRANCH  23  24
ENDBRANCH   4  23
TORSDOF 13
