REMARK  Name = ZINC24337738
REMARK  10 active torsions:
REMARK  status: ('A' for Active; 'I' for Inactive)
REMARK    1  A    between atoms: C_1  and  C_2
REMARK    2  A    between atoms: C_5  and  C_7
REMARK    3  A    between atoms: C_7  and  C_8
REMARK    4  A    between atoms: N_10  and  N_11
REMARK    5  A    between atoms: C_12  and  C_14
REMARK    6  A    between atoms: C_14  and  N_15
REMARK    7  A    between atoms: N_15  and  C_16
REMARK    8  A    between atoms: N_15  and  C_22
REMARK    9  A    between atoms: C_16  and  C_17
REMARK   10  A    between atoms: C_22  and  C_23
REMARK                            x       y       z     vdW  Elec       q    Type
REMARK                         _______ _______ _______ _____ _____    ______ ____
ROOT
ATOM      1  N   UNL     1      -6.809   0.102   3.614  0.00  0.00    -0.236 N 
ATOM      2  C   UNL     1      -8.128   0.135   3.886  0.00  0.00    +0.213 C 
ATOM      3  O   UNL     1      -8.743   1.175   3.779  0.00  0.00    -0.276 OA
ATOM      4  H   UNL     1      -6.251  -0.842   3.711  0.00  0.00    +0.173 HD
ENDROOT
BRANCH   1   7
ATOM      5  C   UNL     1      -4.827   1.235   2.937  0.00  0.00    +0.235 C 
ATOM      6  O   UNL     1      -4.213   0.195   3.043  0.00  0.00    -0.274 OA
ATOM      7  N   UNL     1      -6.147   1.268   3.208  0.00  0.00    -0.234 N 
ATOM      8  H   UNL     1      -6.705   2.211   3.112  0.00  0.00    +0.173 HD
BRANCH   5   9
ATOM      9  C   UNL     1      -4.116   2.490   2.500  0.00  0.00    +0.160 C 
BRANCH   9  14
ATOM     10  C   UNL     1      -0.110   1.120  -0.165  0.00  0.00    +0.066 C 
ATOM     11  C   UNL     1      -0.773   1.567   1.112  0.00  0.00    +0.046 A 
ATOM     12  C   UNL     1      -0.048   1.745   2.246  0.00  0.00    +0.070 A 
ATOM     13  S   UNL     1      -1.332   2.257   3.379  0.00  0.00    -0.080 S 
ATOM     14  C   UNL     1      -2.660   2.184   2.262  0.00  0.00    +0.087 A 
ATOM     15  N   UNL     1      -2.068   1.800   1.154  0.00  0.00    -0.249 NA
ENDBRANCH   9  14
ENDBRANCH   5   9
ENDBRANCH   1   7
BRANCH   2  16
ATOM     16  C   UNL     1      -8.840  -1.120   4.322  0.00  0.00    +0.021 C 
BRANCH  16  17
ATOM     17  N   UNL     1     -10.239  -0.804   4.639  0.00  0.00    +0.395 N 
ATOM     18  H   UNL     1     -10.254   0.145   5.194  0.00  0.00    -0.080 HD
BRANCH  17  19
ATOM     19  C   UNL     1     -11.028  -0.623   3.413  0.00  0.00    -0.002 C 
BRANCH  19  20
ATOM     20  C   UNL     1     -12.383  -0.065   3.766  0.00  0.00    +0.089 A 
ATOM     21  C   UNL     1     -12.699   1.240   3.848  0.00  0.00    +0.042 A 
ATOM     22  C   UNL     1     -14.066   1.309   4.204  0.00  0.00    +0.041 A 
ATOM     23  C   UNL     1     -14.503   0.042   4.318  0.00  0.00    +0.195 A 
ATOM     24  O   UNL     1     -13.481  -0.786   4.046  0.00  0.00    -0.470 OA
ENDBRANCH  19  20
ENDBRANCH  17  19
BRANCH  17  25
ATOM     25  C   UNL     1     -10.831  -1.839   5.498  0.00  0.00    -0.002 C 
BRANCH  25  26
ATOM     26  C   UNL     1     -10.325  -1.670   6.907  0.00  0.00    +0.089 A 
ATOM     27  C   UNL     1     -10.840  -0.843   7.834  0.00  0.00    +0.042 A 
ATOM     28  C   UNL     1     -10.064  -1.005   9.005  0.00  0.00    +0.041 A 
ATOM     29  C   UNL     1      -9.121  -1.921   8.723  0.00  0.00    +0.195 A 
ATOM     30  O   UNL     1      -9.287  -2.325   7.453  0.00  0.00    -0.470 OA
ENDBRANCH  25  26
ENDBRANCH  17  25
ENDBRANCH  16  17
ENDBRANCH   2  16
TORSDOF 9
