REMARK  Name = ZINC14529180
REMARK  11 active torsions:
REMARK  status: ('A' for Active; 'I' for Inactive)
REMARK    1  A    between atoms: C_1  and  C_2
REMARK    2  A    between atoms: C_2  and  O_3
REMARK    3  A    between atoms: O_3  and  C_4
REMARK    4  A    between atoms: C_4  and  C_6
REMARK    5  A    between atoms: C_7  and  C_32
REMARK    6  A    between atoms: C_8  and  C_13
REMARK    7  A    between atoms: C_11  and  C_12
REMARK    8  A    between atoms: C_18  and  C_21
REMARK    9  A    between atoms: C_21  and  N_22
REMARK   10  A    between atoms: C_24  and  C_31
REMARK   11  A    between atoms: C_27  and  C_30
REMARK                            x       y       z     vdW  Elec       q    Type
REMARK                         _______ _______ _______ _____ _____    ______ ____
ROOT
ATOM      1  C   UNL     1      -5.923  -3.732  -1.479  0.00  0.00    +0.266 C 
ATOM      2  O   UNL     1      -5.842  -3.691  -2.692  0.00  0.00    -0.268 OA
ATOM      3  N   UNL     1      -7.038  -4.213  -0.895  0.00  0.00    -0.259 N 
ATOM      4  C   UNL     1      -8.094  -4.663  -1.677  0.00  0.00    +0.165 A 
ATOM      5  N   UNL     1      -9.250  -5.155  -1.287  0.00  0.00    -0.231 NA
ATOM      6  C   UNL     1     -10.158  -5.542  -2.163  0.00  0.00    +0.034 A 
ATOM      7  C   UNL     1      -9.844  -5.407  -3.475  0.00  0.00    +0.070 A 
ATOM      8  S   UNL     1      -8.208  -4.703  -3.356  0.00  0.00    -0.060 S 
ATOM      9  H   UNL     1      -7.104  -4.246   0.073  0.00  0.00    +0.157 HD
ENDROOT
BRANCH   1  12
ATOM     10  C   UNL     1      -2.850  -2.418   0.016  0.00  0.00    +0.083 A 
ATOM     11  C   UNL     1      -3.630  -2.749  -1.115  0.00  0.00    -0.006 A 
ATOM     12  C   UNL     1      -4.808  -3.257  -0.652  0.00  0.00    +0.106 A 
ATOM     13  N   UNL     1      -4.772  -3.247   0.726  0.00  0.00    -0.354 N 
ATOM     14  H   UNL     1      -5.484  -3.556   1.308  0.00  0.00    +0.166 HD
ATOM     15  C   UNL     1      -3.594  -2.749   1.134  0.00  0.00    +0.028 A 
ATOM     16  C   UNL     1      -3.159  -2.577   2.566  0.00  0.00    +0.064 C 
ATOM     17  C   UNL     1      -3.236  -2.573  -2.559  0.00  0.00    +0.047 C 
BRANCH  10  18
ATOM     18  C   UNL     1      -1.497  -1.837   0.006  0.00  0.00    +0.341 C 
ATOM     19  O   UNL     1      -0.523  -2.564  -0.007  0.00  0.00    -0.245 OA
BRANCH  18  20
ATOM     20  O   UNL     1      -1.339  -0.499   0.012  0.00  0.00    -0.461 OA
BRANCH  20  22
ATOM     21  C   UNL     1      -0.019   1.526   0.010  0.00  0.00    +0.048 C 
ATOM     22  C   UNL     1       0.002  -0.004   0.002  0.00  0.00    +0.229 C 
ENDBRANCH  20  22
ENDBRANCH  18  20
ENDBRANCH  10  18
ENDBRANCH   1  12
BRANCH   6  23
ATOM     23  C   UNL     1     -11.485  -6.107  -1.725  0.00  0.00    -0.022 C 
BRANCH  23  24
ATOM     24  N   UNL     1     -11.342  -7.546  -1.468  0.00  0.00    +0.384 N 
ATOM     25  C   UNL     1     -11.012  -8.236  -2.721  0.00  0.00    -0.075 C 
ATOM     26  C   UNL     1     -10.783  -9.723  -2.444  0.00  0.00    -0.031 C 
ATOM     27  C   UNL     1     -12.057 -10.328  -1.847  0.00  0.00    +0.003 C 
ATOM     28  C   UNL     1     -12.434  -9.553  -0.582  0.00  0.00    -0.031 C 
ATOM     29  C   UNL     1     -12.602  -8.072  -0.927  0.00  0.00    -0.075 C 
ATOM     30  C   UNL     1     -11.328  -9.713   0.464  0.00  0.00    +0.005 C 
ATOM     31  C   UNL     1     -10.440 -10.439  -3.751  0.00  0.00    +0.005 C 
ATOM     32  H   UNL     1     -10.602  -7.696  -0.798  0.00  0.00    -0.081 HD
ENDBRANCH  23  24
ENDBRANCH   6  23
TORSDOF 6
