REMARK  Name = ZINC06408519
REMARK  9 active torsions:
REMARK  status: ('A' for Active; 'I' for Inactive)
REMARK    1  A    between atoms: C_1  and  C_2
REMARK    2  A    between atoms: C_9  and  C_14
REMARK    3  A    between atoms: C_14  and  N_61
REMARK    4  A    between atoms: C_15  and  C_16
REMARK    5  A    between atoms: C_15  and  N_61
REMARK    6  A    between atoms: N_20  and  C_21
REMARK    7  A    between atoms: C_21  and  C_22
REMARK    8  A    between atoms: C_28  and  C_29
REMARK    9  A    between atoms: C_28  and  N_61
REMARK                            x       y       z     vdW  Elec       q    Type
REMARK                         _______ _______ _______ _____ _____    ______ ____
ROOT
ATOM      1  N   UNL     1       0.048  -0.050   0.000  0.00  0.00    +0.389 N 
ATOM      2  H   UNL     1       0.443  -0.500   0.834  0.00  0.00    -0.081 HD
ENDROOT
BRANCH   1   3
ATOM      3  C   UNL     1       0.108   1.417   0.174  0.00  0.00    -0.037 C 
BRANCH   3  12
ATOM      4  C   UNL     1       0.570   2.916   7.465  0.00  0.00    +0.044 C 
ATOM      5  C   UNL     1      -0.242   2.747   6.207  0.00  0.00    -0.050 A 
ATOM      6  C   UNL     1      -1.619   2.924   6.247  0.00  0.00    +0.005 A 
ATOM      7  C   UNL     1      -2.381   2.775   5.109  0.00  0.00    +0.026 A 
ATOM      8  C   UNL     1      -1.767   2.442   3.906  0.00  0.00    +0.049 A 
ATOM      9  C   UNL     1      -0.372   2.263   3.869  0.00  0.00    -0.001 A 
ATOM     10  C   UNL     1       0.382   2.420   5.037  0.00  0.00    +0.013 A 
ATOM     11  C   UNL     1       0.265   1.914   2.597  0.00  0.00    +0.017 A 
ATOM     12  C   UNL     1      -0.516   1.776   1.498  0.00  0.00    +0.001 A 
ATOM     13  C   UNL     1      -1.911   1.972   1.588  0.00  0.00    +0.251 A 
ATOM     14  O   UNL     1      -2.594   1.848   0.586  0.00  0.00    -0.268 OA
ATOM     15  N   UNL     1      -2.505   2.288   2.752  0.00  0.00    -0.322 N 
ATOM     16  H   UNL     1      -3.467   2.412   2.779  0.00  0.00    +0.169 HD
ENDBRANCH   3  12
ENDBRANCH   1   3
BRANCH   1  17
ATOM     17  C   UNL     1       0.840  -0.451  -1.182  0.00  0.00    +0.001 C 
BRANCH  17  18
ATOM     18  C   UNL     1       0.835  -1.954  -1.285  0.00  0.00    +0.135 A 
ATOM     19  N   UNL     1      -0.079  -2.696  -1.862  0.00  0.00    -0.115 NA
ATOM     20  N   UNL     1       0.274  -3.929  -1.740  0.00  0.00    -0.023 NA
ATOM     21  N   UNL     1       1.390  -3.993  -1.101  0.00  0.00    -0.044 NA
ATOM     22  N   UNL     1       1.770  -2.796  -0.807  0.00  0.00    -0.227 N 
BRANCH  22  23
ATOM     23  C   UNL     1       2.990  -2.422  -0.086  0.00  0.00    +0.182 C 
BRANCH  23  24
ATOM     24  C   UNL     1       2.705  -2.377   1.393  0.00  0.00    -0.026 A 
ATOM     25  C   UNL     1       2.281  -1.199   1.979  0.00  0.00    +0.005 A 
ATOM     26  C   UNL     1       2.015  -1.159   3.335  0.00  0.00    +0.000 A 
ATOM     27  C   UNL     1       2.183  -2.293   4.106  0.00  0.00    +0.000 A 
ATOM     28  C   UNL     1       2.612  -3.470   3.521  0.00  0.00    +0.000 A 
ATOM     29  C   UNL     1       2.873  -3.511   2.164  0.00  0.00    +0.005 A 
ENDBRANCH  23  24
ENDBRANCH  22  23
ENDBRANCH  17  18
ENDBRANCH   1  17
BRANCH   1  30
ATOM     30  C   UNL     1      -1.356  -0.482  -0.161  0.00  0.00    -0.046 C 
BRANCH  30  31
ATOM     31  C   UNL     1      -1.974   0.156  -1.406  0.00  0.00    +0.102 C 
ATOM     32  C   UNL     1      -3.487  -0.149  -1.472  0.00  0.00    +0.032 C 
ATOM     33  C   UNL     1      -3.763  -0.358  -2.978  0.00  0.00    +0.030 C 
ATOM     34  C   UNL     1      -2.384  -0.154  -3.644  0.00  0.00    +0.160 C 
ATOM     35  O   UNL     1      -1.425  -0.440  -2.602  0.00  0.00    -0.378 OA
ENDBRANCH  30  31
ENDBRANCH   1  30
TORSDOF 8
