REMARK  Name = ZINC09693601
REMARK  8 active torsions:
REMARK  status: ('A' for Active; 'I' for Inactive)
REMARK    1  A    between atoms: C_1  and  O_2
REMARK    2  A    between atoms: O_2  and  C_3
REMARK    3  A    between atoms: C_6  and  N_9
REMARK    4  A    between atoms: C_15  and  C_23
REMARK    5  A    between atoms: C_17  and  C_21
REMARK    6  A    between atoms: C_25  and  O_31
REMARK    7  A    between atoms: C_26  and  O_30
REMARK    8  A    between atoms: O_31  and  C_32
REMARK                            x       y       z     vdW  Elec       q    Type
REMARK                         _______ _______ _______ _____ _____    ______ ____
ROOT
ATOM      1  N   UNL     1       3.600   3.670  -0.485  0.00  0.00    -0.304 N 
ATOM      2  C   UNL     1       2.304   4.299  -0.432  0.00  0.00    +0.222 C 
ATOM      3  N   UNL     1       1.172   3.501   0.002  0.00  0.00    -0.248 N 
ATOM      4  C   UNL     1       0.062   4.172   0.402  0.00  0.00    +0.222 C 
ATOM      5  O   UNL     1       0.064   5.384   0.393  0.00  0.00    -0.275 OA
ATOM      6  C   UNL     1      -1.170   3.439   0.854  0.00  0.00    +0.110 C 
ATOM      7  C   UNL     1      -1.334   2.162   0.020  0.00  0.00    +0.071 C 
ATOM      8  C   UNL     1      -0.017   1.428   0.010  0.00  0.00    +0.065 C 
ATOM      9  C   UNL     1       1.153   2.122   0.003  0.00  0.00    +0.087 C 
ATOM     10  S   UNL     1       2.680   1.230   0.019  0.00  0.00    -0.090 S 
ATOM     11  C   UNL     1       3.624   2.330  -1.076  0.00  0.00    +0.182 C 
ENDROOT
BRANCH   7  12
ATOM     12  C   UNL     1      -2.396   1.288   0.637  0.00  0.00    -0.034 A 
ATOM     13  C   UNL     1      -3.511   0.933  -0.099  0.00  0.00    +0.053 A 
ATOM     14  C   UNL     1      -4.488   0.130   0.467  0.00  0.00    +0.163 A 
ATOM     15  C   UNL     1      -4.345  -0.318   1.776  0.00  0.00    +0.173 A 
ATOM     16  C   UNL     1      -3.224   0.041   2.509  0.00  0.00    +0.063 A 
ATOM     17  C   UNL     1      -2.250   0.839   1.936  0.00  0.00    +0.023 A 
ATOM     18 BR   UNL     1      -3.025  -0.564   4.290  0.00  0.00    -0.046 Br
BRANCH  15  19
ATOM     19  O   UNL     1      -5.302  -1.106   2.336  0.00  0.00    -0.503 OA
ATOM     20  H   UNL     1      -5.157  -2.053   2.206  0.00  0.00    +0.292 HD
ENDBRANCH  15  19
BRANCH  14  21
ATOM     21  O   UNL     1      -5.586  -0.219  -0.257  0.00  0.00    -0.491 OA
ATOM     22  C   UNL     1      -5.667   0.277  -1.594  0.00  0.00    +0.277 C 
ENDBRANCH  14  21
ENDBRANCH   7  12
BRANCH   1  26
ATOM     23  C   UNL     1       6.397   6.160  -2.315  0.00  0.00    +0.120 A 
ATOM     24  C   UNL     1       6.779   4.909  -1.855  0.00  0.00    +0.047 A 
ATOM     25  C   UNL     1       5.853   4.083  -1.249  0.00  0.00    +0.027 A 
ATOM     26  C   UNL     1       4.539   4.506  -1.099  0.00  0.00    +0.032 A 
ATOM     27  C   UNL     1       4.156   5.757  -1.564  0.00  0.00    +0.027 A 
ATOM     28  C   UNL     1       5.085   6.584  -2.165  0.00  0.00    +0.047 A 
BRANCH  23  30
ATOM     29  C   UNL     1       6.847   8.248  -3.361  0.00  0.00    +0.277 C 
ATOM     30  O   UNL     1       7.309   6.973  -2.912  0.00  0.00    -0.495 OA
ENDBRANCH  23  30
ENDBRANCH   1  26
BRANCH   8  31
ATOM     31  C   UNL     1       0.002  -0.004   0.002  0.00  0.00    +0.098 C 
ATOM     32  N   UNL     1       0.018  -1.140  -0.004  0.00  0.00    -0.191 NA
ENDBRANCH   8  31
TORSDOF 6
