REMARK  Name = ZINC13506634
REMARK  9 active torsions:
REMARK  status: ('A' for Active; 'I' for Inactive)
REMARK    1  A    between atoms: C_1  and  C_2
REMARK    2  A    between atoms: C_5  and  C_7
REMARK    3  A    between atoms: C_7  and  C_9
REMARK    4  A    between atoms: C_7  and  N_17
REMARK    5  A    between atoms: N_11  and  C_12
REMARK    6  A    between atoms: N_17  and  C_18
REMARK    7  A    between atoms: C_28  and  C_30
REMARK    8  A    between atoms: C_30  and  N_31
REMARK    9  A    between atoms: C_32  and  C_34
REMARK                            x       y       z     vdW  Elec       q    Type
REMARK                         _______ _______ _______ _____ _____    ______ ____
ROOT
ATOM      1  N   UNL     1      -4.641   1.611   2.629  0.00  0.00    -0.250 N 
ATOM      2  C   UNL     1      -5.458   0.989   3.502  0.00  0.00    +0.238 C 
ATOM      3  O   UNL     1      -5.370   1.225   4.689  0.00  0.00    -0.273 OA
ENDROOT
BRANCH   1   4
ATOM      4  C   UNL     1      -4.742   1.339   1.263  0.00  0.00    +0.045 A 
ATOM      5  C   UNL     1      -5.538   2.122   0.456  0.00  0.00    +0.024 A 
ATOM      6  C   UNL     1      -5.646   1.859  -0.907  0.00  0.00    +0.002 A 
ATOM      7  C   UNL     1      -4.970   0.825  -1.479  0.00  0.00    +0.008 A 
ATOM      8  C   UNL     1      -4.147   0.003  -0.691  0.00  0.00    -0.016 A 
ATOM      9  C   UNL     1      -4.025   0.264   0.697  0.00  0.00    +0.004 A 
ATOM     10  C   UNL     1      -3.206  -0.561   1.484  0.00  0.00    +0.010 A 
ATOM     11  C   UNL     1      -2.534  -1.593   0.904  0.00  0.00    +0.001 A 
ATOM     12  C   UNL     1      -2.649  -1.848  -0.461  0.00  0.00    +0.001 A 
ATOM     13  C   UNL     1      -3.437  -1.071  -1.254  0.00  0.00    +0.008 A 
ENDBRANCH   1   4
BRANCH   1  14
ATOM     14  C   UNL     1      -3.647   2.572   3.113  0.00  0.00    +0.233 C 
BRANCH  14  19
ATOM     15  C   UNL     1      -0.012   1.012  -0.017  0.00  0.00    +0.086 C 
ATOM     16  C   UNL     1      -0.707   1.521   1.220  0.00  0.00    +0.102 A 
ATOM     17  C   UNL     1      -0.112   1.823   2.388  0.00  0.00    +0.045 A 
ATOM     18  C   UNL     1      -1.131   2.260   3.266  0.00  0.00    +0.047 A 
ATOM     19  C   UNL     1      -2.287   2.199   2.581  0.00  0.00    +0.135 A 
ATOM     20  O   UNL     1      -2.023   1.757   1.341  0.00  0.00    -0.462 OA
ENDBRANCH  14  19
BRANCH  14  21
ATOM     21  C   UNL     1      -4.011   3.954   2.636  0.00  0.00    +0.242 C 
ATOM     22  O   UNL     1      -4.952   4.109   1.886  0.00  0.00    -0.273 OA
ATOM     23  N   UNL     1      -3.292   5.019   3.043  0.00  0.00    -0.311 N 
ATOM     24  H   UNL     1      -2.540   4.896   3.643  0.00  0.00    +0.149 HD
BRANCH  23  25
ATOM     25  C   UNL     1      -3.646   6.363   2.580  0.00  0.00    +0.073 C 
ATOM     26  C   UNL     1      -2.934   6.666   1.245  0.00  0.00    +0.022 C 
ATOM     27  C   UNL     1      -2.564   8.167   1.345  0.00  0.00    +0.002 C 
ATOM     28  C   UNL     1      -2.162   8.321   2.833  0.00  0.00    +0.002 C 
ATOM     29  C   UNL     1      -3.155   7.415   3.589  0.00  0.00    +0.022 C 
ENDBRANCH  23  25
ENDBRANCH  14  21
ENDBRANCH   1  14
BRANCH   2  30
ATOM     30  C   UNL     1      -6.481   0.000   3.004  0.00  0.00    +0.201 C 
BRANCH  30  31
ATOM     31  N   UNL     1      -7.237  -0.533   4.140  0.00  0.00    -0.300 N 
ATOM     32  C   UNL     1      -8.212  -1.440   3.933  0.00  0.00    +0.280 C 
ATOM     33  O   UNL     1      -8.464  -1.817   2.804  0.00  0.00    -0.267 OA
ATOM     34  H   UNL     1      -7.037  -0.233   5.040  0.00  0.00    +0.150 HD
BRANCH  32  35
ATOM     35  C   UNL     1      -8.970  -1.974   5.070  0.00  0.00    +0.189 A 
ATOM     36  C   UNL     1      -9.978  -2.893   5.002  0.00  0.00    +0.054 A 
ATOM     37  C   UNL     1     -10.414  -3.112   6.318  0.00  0.00    +0.042 A 
ATOM     38  C   UNL     1      -9.662  -2.328   7.122  0.00  0.00    +0.196 A 
ATOM     39  O   UNL     1      -8.790  -1.647   6.366  0.00  0.00    -0.458 OA
ENDBRANCH  32  35
ENDBRANCH  30  31
ENDBRANCH   2  30
TORSDOF 8
