REMARK  Name = ZINC23717772
REMARK  6 active torsions:
REMARK  status: ('A' for Active; 'I' for Inactive)
REMARK    1  A    between atoms: C_1  and  C_2
REMARK    2  A    between atoms: C_5  and  S_8
REMARK    3  A    between atoms: S_8  and  N_11
REMARK    4  A    between atoms: N_15  and  C_18
REMARK    5  A    between atoms: C_18  and  N_19
REMARK    6  A    between atoms: N_24  and  C_27
REMARK                            x       y       z     vdW  Elec       q    Type
REMARK                         _______ _______ _______ _____ _____    ______ ____
ROOT
ATOM      1  N   UNL     1       3.007   6.415  -3.619  0.00  0.00    -0.175 NA
ATOM      2  C   UNL     1       3.032   5.107  -4.304  0.00  0.00    +0.111 C 
ATOM      3  C   UNL     1       2.329   4.025  -3.467  0.00  0.00    +0.032 C 
ATOM      4  C   UNL     1       2.678   4.206  -2.006  0.00  0.00    +0.087 C 
ATOM      5  N   UNL     1       1.664   5.048  -1.373  0.00  0.00    -0.285 NA
ATOM      6  C   UNL     1       1.873   6.445  -1.448  0.00  0.00    +0.103 C 
ATOM      7  C   UNL     1       1.836   6.907  -2.924  0.00  0.00    +0.125 C 
ENDROOT
BRANCH   1   8
ATOM      8  S   UNL     1       4.371   7.354  -3.647  0.00  0.00    +0.061 S 
ATOM      9  O   UNL     1       5.117   6.954  -4.788  0.00  0.00    -0.153 OA
ATOM     10  O   UNL     1       3.944   8.695  -3.447  0.00  0.00    -0.153 OA
BRANCH   8  15
ATOM     11  C   UNL     1       7.667   5.857   1.180  0.00  0.00    +0.044 C 
ATOM     12  C   UNL     1       6.844   6.231  -0.025  0.00  0.00    -0.050 A 
ATOM     13  C   UNL     1       7.029   5.566  -1.223  0.00  0.00    +0.005 A 
ATOM     14  C   UNL     1       6.274   5.909  -2.329  0.00  0.00    +0.029 A 
ATOM     15  C   UNL     1       5.333   6.917  -2.237  0.00  0.00    +0.105 A 
ATOM     16  C   UNL     1       5.151   7.586  -1.041  0.00  0.00    +0.029 A 
ATOM     17  C   UNL     1       5.903   7.240   0.066  0.00  0.00    +0.005 A 
ENDBRANCH   8  15
ENDBRANCH   1   8
BRANCH   5  18
ATOM     18  C   UNL     1       1.419   4.625   0.012  0.00  0.00    +0.205 C 
BRANCH  18  19
ATOM     19  N   UNL     1       0.647   3.380   0.013  0.00  0.00    -0.204 N 
ATOM     20  C   UNL     1       1.167   2.134   0.002  0.00  0.00    +0.311 C 
ATOM     21  O   UNL     1       2.340   1.827  -0.011  0.00  0.00    -0.264 OA
ATOM     22  C   UNL     1      -0.014   1.209   0.009  0.00  0.00    +0.310 C 
ATOM     23  O   UNL     1       0.002  -0.004   0.002  0.00  0.00    -0.264 OA
ATOM     24  N   UNL     1      -1.100   2.012   0.017  0.00  0.00    -0.215 N 
ATOM     25  C   UNL     1      -0.693   3.292   0.026  0.00  0.00    +0.319 C 
ATOM     26  O   UNL     1      -1.442   4.248   0.037  0.00  0.00    -0.251 OA
BRANCH  24  27
ATOM     27  C   UNL     1      -2.494   1.561   0.021  0.00  0.00    +0.086 C 
ATOM     28  C   UNL     1      -2.755   0.660   1.245  0.00  0.00    +0.023 C 
ATOM     29  C   UNL     1      -3.724  -0.428   0.715  0.00  0.00    +0.002 C 
ATOM     30  C   UNL     1      -3.194  -0.691  -0.716  0.00  0.00    +0.002 C 
ATOM     31  C   UNL     1      -2.773   0.703  -1.226  0.00  0.00    +0.023 C 
ENDBRANCH  24  27
ENDBRANCH  18  19
ENDBRANCH   5  18
TORSDOF 5
