REMARK  Name = ZINC16636022
REMARK  8 active torsions:
REMARK  status: ('A' for Active; 'I' for Inactive)
REMARK    1  A    between atoms: C_1  and  N_52
REMARK    2  A    between atoms: C_2  and  C_3
REMARK    3  A    between atoms: C_2  and  N_52
REMARK    4  A    between atoms: N_5  and  C_6
REMARK    5  A    between atoms: C_14  and  C_15
REMARK    6  A    between atoms: C_14  and  N_52
REMARK    7  A    between atoms: C_18  and  C_28
REMARK    8  A    between atoms: C_21  and  C_23
REMARK                            x       y       z     vdW  Elec       q    Type
REMARK                         _______ _______ _______ _____ _____    ______ ____
ROOT
ATOM      1  C   UNL     1      -0.402  -2.084  -1.092  0.00  0.00    +0.021 C 
ENDROOT
BRANCH   1   2
ATOM      2  C   UNL     1      -1.128  -3.367  -1.409  0.00  0.00    +0.219 C 
ATOM      3  O   UNL     1      -2.098  -3.692  -0.756  0.00  0.00    -0.276 OA
ATOM      4  N   UNL     1      -0.700  -4.152  -2.417  0.00  0.00    -0.184 N 
ATOM      5  C   UNL     1      -1.310  -5.427  -2.826  0.00  0.00    +0.172 C 
ATOM      6  C   UNL     1      -0.433  -5.886  -4.008  0.00  0.00    +0.090 C 
ATOM      7  C   UNL     1       0.608  -4.797  -4.134  0.00  0.00    +0.075 C 
ATOM      8  N   UNL     1       0.396  -3.893  -3.237  0.00  0.00    -0.180 NA
BRANCH   7   9
ATOM      9  C   UNL     1       1.691  -4.771  -5.123  0.00  0.00    +0.035 A 
ATOM     10  C   UNL     1       2.681  -3.821  -5.308  0.00  0.00    +0.017 A 
ATOM     11  C   UNL     1       3.596  -4.020  -6.315  0.00  0.00    +0.008 A 
ATOM     12  C   UNL     1       3.502  -5.132  -7.090  0.00  0.00    +0.046 A 
ATOM     13  S   UNL     1       2.081  -5.960  -6.396  0.00  0.00    -0.095 S 
ENDBRANCH   7   9
BRANCH   5  14
ATOM     14  C   UNL     1      -2.732  -5.214  -3.276  0.00  0.00    +0.128 A 
ATOM     15  C   UNL     1      -3.767  -6.038  -3.032  0.00  0.00    +0.046 A 
ATOM     16  C   UNL     1      -4.906  -5.455  -3.633  0.00  0.00    +0.041 A 
ATOM     17  C   UNL     1      -4.500  -4.309  -4.208  0.00  0.00    +0.195 A 
ATOM     18  O   UNL     1      -3.183  -4.165  -3.983  0.00  0.00    -0.466 OA
ENDBRANCH   5  14
ENDBRANCH   1   2
BRANCH   1  20
ATOM     19  C   UNL     1      -2.411  -0.971  -0.326  0.00  0.00    -0.095 C 
ATOM     20  N   UNL     1      -1.062  -1.435   0.060  0.00  0.00    +0.389 N 
ATOM     21  H   UNL     1      -1.149  -2.117   0.822  0.00  0.00    -0.081 HD
BRANCH  20  22
ATOM     22  C   UNL     1      -0.250  -0.292   0.529  0.00  0.00    +0.019 C 
BRANCH  22  23
ATOM     23  C   UNL     1      -0.824   0.212   1.828  0.00  0.00    +0.201 C 
ATOM     24  O   UNL     1      -1.811  -0.313   2.299  0.00  0.00    -0.278 OA
ATOM     25  N   UNL     1      -0.242   1.246   2.466  0.00  0.00    -0.285 N 
ATOM     26  H   UNL     1       0.588   1.619   2.128  0.00  0.00    +0.155 HD
BRANCH  25  27
ATOM     27  C   UNL     1      -0.834   1.782   3.616  0.00  0.00    +0.070 A 
ATOM     28  C   UNL     1      -1.765   2.807   3.506  0.00  0.00    +0.064 A 
ATOM     29  C   UNL     1      -2.351   3.332   4.643  0.00  0.00    +0.022 A 
ATOM     30  C   UNL     1      -2.004   2.843   5.889  0.00  0.00    +0.003 A 
ATOM     31  C   UNL     1      -1.073   1.827   6.003  0.00  0.00    +0.022 A 
ATOM     32  C   UNL     1      -0.487   1.294   4.870  0.00  0.00    +0.064 A 
ATOM     33 CL   UNL     1       0.681   0.019   5.013  0.00  0.00    -0.082 Cl
ATOM     34 CL   UNL     1      -2.197   3.425   1.942  0.00  0.00    -0.082 Cl
ENDBRANCH  25  27
ENDBRANCH  22  23
ENDBRANCH  20  22
ENDBRANCH   1  20
TORSDOF 7
