REMARK  Name = ZINC08966196
REMARK  6 active torsions:
REMARK  status: ('A' for Active; 'I' for Inactive)
REMARK    1  A    between atoms: C_1  and  C_2
REMARK    2  A    between atoms: C_5  and  C_8
REMARK    3  A    between atoms: C_11  and  C_14
REMARK    4  A    between atoms: C_19  and  C_21
REMARK    5  A    between atoms: C_21  and  N_22
REMARK    6  A    between atoms: N_27  and  C_30
REMARK                            x       y       z     vdW  Elec       q    Type
REMARK                         _______ _______ _______ _____ _____    ______ ____
ROOT
ATOM      1  C   UNL     1       3.693  -0.682  -0.035  0.00  0.00    +0.069 C 
ATOM      2  N   UNL     1       3.832  -1.963  -0.043  0.00  0.00    -0.181 NA
ATOM      3  N   UNL     1       5.157  -2.392  -0.058  0.00  0.00    -0.181 N 
ATOM      4  C   UNL     1       6.039  -1.214  -0.060  0.00  0.00    +0.173 C 
ATOM      5  C   UNL     1       5.055  -0.027  -0.051  0.00  0.00    +0.090 C 
ATOM      6  C   UNL     1       5.565  -3.676  -0.068  0.00  0.00    +0.253 C 
ATOM      7  O   UNL     1       6.750  -3.936  -0.080  0.00  0.00    -0.272 OA
ENDROOT
BRANCH   1  12
ATOM      8  C   UNL     1      -1.334   2.111   0.020  0.00  0.00    +0.044 C 
ATOM      9  C   UNL     1      -0.017   1.379   0.010  0.00  0.00    -0.050 A 
ATOM     10  C   UNL     1       1.168   2.094   0.002  0.00  0.00    +0.004 A 
ATOM     11  C   UNL     1       2.377   1.431  -0.013  0.00  0.00    +0.010 A 
ATOM     12  C   UNL     1       2.404   0.034  -0.020  0.00  0.00    -0.002 A 
ATOM     13  C   UNL     1       1.204  -0.681  -0.013  0.00  0.00    +0.010 A 
ATOM     14  C   UNL     1       0.002  -0.004   0.002  0.00  0.00    +0.004 A 
ENDBRANCH   1  12
BRANCH   4  15
ATOM     15  C   UNL     1       6.910  -1.201   1.170  0.00  0.00    +0.128 A 
ATOM     16  C   UNL     1       8.200  -0.823   1.216  0.00  0.00    +0.046 A 
ATOM     17  C   UNL     1       8.621  -0.968   2.558  0.00  0.00    +0.041 A 
ATOM     18  C   UNL     1       7.564  -1.425   3.251  0.00  0.00    +0.195 A 
ATOM     19  O   UNL     1       6.528  -1.560   2.406  0.00  0.00    -0.466 OA
ENDBRANCH   4  15
BRANCH   6  20
ATOM     20  C   UNL     1       4.550  -4.790  -0.064  0.00  0.00    +0.216 C 
BRANCH  20  21
ATOM     21  N   UNL     1       5.241  -6.081  -0.076  0.00  0.00    -0.209 N 
ATOM     22  C   UNL     1       5.596  -6.771  -1.181  0.00  0.00    +0.310 C 
ATOM     23  O   UNL     1       5.412  -6.453  -2.337  0.00  0.00    -0.264 OA
ATOM     24  C   UNL     1       6.270  -8.013  -0.677  0.00  0.00    +0.310 C 
ATOM     25  O   UNL     1       6.746  -8.911  -1.339  0.00  0.00    -0.264 OA
ATOM     26  N   UNL     1       6.230  -7.922   0.670  0.00  0.00    -0.215 N 
ATOM     27  C   UNL     1       5.619  -6.775   1.009  0.00  0.00    +0.319 C 
ATOM     28  O   UNL     1       5.432  -6.412   2.153  0.00  0.00    -0.252 OA
BRANCH  26  29
ATOM     29  C   UNL     1       6.766  -8.912   1.607  0.00  0.00    +0.086 C 
ATOM     30  C   UNL     1       8.271  -9.126   1.346  0.00  0.00    +0.023 C 
ATOM     31  C   UNL     1       8.485 -10.642   1.584  0.00  0.00    +0.002 C 
ATOM     32  C   UNL     1       7.196 -11.267   0.996  0.00  0.00    +0.002 C 
ATOM     33  C   UNL     1       6.082 -10.272   1.385  0.00  0.00    +0.023 C 
ENDBRANCH  26  29
ENDBRANCH  20  21
ENDBRANCH   6  20
TORSDOF 5
