REMARK  Name = ZINC09725822
REMARK  5 active torsions:
REMARK  status: ('A' for Active; 'I' for Inactive)
REMARK    1  A    between atoms: C_3  and  C_6
REMARK    2  A    between atoms: C_15  and  C_17
REMARK    3  A    between atoms: C_17  and  N_48
REMARK    4  A    between atoms: N_20  and  S_23
REMARK    5  A    between atoms: S_23  and  C_26
REMARK                            x       y       z     vdW  Elec       q    Type
REMARK                         _______ _______ _______ _____ _____    ______ ____
ROOT
ATOM      1  C   UNL     1      -5.485  -0.060  -8.236  0.00  0.00    +0.039 A 
ATOM      2  C   UNL     1      -6.610  -0.091  -7.478  0.00  0.00    +0.059 A 
ATOM      3  S   UNL     1      -6.141   0.801  -6.007  0.00  0.00    -0.076 S 
ATOM      4  C   UNL     1      -4.465   1.191  -6.438  0.00  0.00    +0.116 A 
ATOM      5  C   UNL     1      -4.306   0.622  -7.712  0.00  0.00    +0.083 A 
ATOM      6  C   UNL     1      -3.017   0.790  -8.310  0.00  0.00    +0.260 A 
ATOM      7  O   UNL     1      -2.783   0.331  -9.415  0.00  0.00    -0.267 OA
ATOM      8  N   UNL     1      -2.069   1.467  -7.637  0.00  0.00    -0.312 N 
ATOM      9  H   UNL     1      -1.194   1.588  -8.039  0.00  0.00    +0.170 HD
ATOM     10  C   UNL     1      -2.310   1.981  -6.404  0.00  0.00    +0.094 A 
ATOM     11  N   UNL     1      -3.477   1.844  -5.832  0.00  0.00    -0.229 NA
ENDROOT
BRANCH   1  14
ATOM     12  C   UNL     1      -5.652  -2.163 -11.230  0.00  0.00    +0.042 A 
ATOM     13  C   UNL     1      -5.848  -1.974  -9.847  0.00  0.00    +0.050 A 
ATOM     14  C   UNL     1      -5.455  -0.702  -9.566  0.00  0.00    +0.136 A 
ATOM     15  O   UNL     1      -5.028  -0.133 -10.709  0.00  0.00    -0.463 OA
ATOM     16  C   UNL     1      -5.146  -1.014 -11.718  0.00  0.00    +0.196 A 
ENDBRANCH   1  14
BRANCH  10  17
ATOM     17  C   UNL     1      -1.216   2.728  -5.685  0.00  0.00    -0.003 C 
BRANCH  17  23
ATOM     18  C   UNL     1      -1.842   1.860  -3.513  0.00  0.00    -0.061 C 
ATOM     19  C   UNL     1      -2.481   2.240  -2.173  0.00  0.00    +0.091 C 
ATOM     20  N   UNL     1      -1.667   3.297  -1.551  0.00  0.00    -0.180 NA
ATOM     21  C   UNL     1      -1.338   4.484  -2.354  0.00  0.00    +0.091 C 
ATOM     22  C   UNL     1      -0.739   4.013  -3.689  0.00  0.00    -0.061 C 
ATOM     23  N   UNL     1      -1.693   3.082  -4.332  0.00  0.00    +0.386 N 
ATOM     24  H   UNL     1      -2.606   3.544  -4.411  0.00  0.00    -0.081 HD
BRANCH  20  25
ATOM     25  S   UNL     1      -1.143   3.156   0.013  0.00  0.00    +0.067 S 
ATOM     26  O   UNL     1      -2.039   2.265   0.663  0.00  0.00    -0.152 OA
ATOM     27  O   UNL     1      -0.907   4.476   0.483  0.00  0.00    -0.152 OA
BRANCH  25  28
ATOM     28  C   UNL     1       0.423   2.350  -0.033  0.00  0.00    +0.143 A 
ATOM     29  C   UNL     1       1.660   2.894  -0.137  0.00  0.00    +0.036 A 
ATOM     30  C   UNL     1       2.760   2.057  -0.159  0.00  0.00    +0.010 A 
ATOM     31  C   UNL     1       2.570   0.718  -0.076  0.00  0.00    +0.047 A 
ATOM     32  S   UNL     1       0.792   0.605   0.038  0.00  0.00    -0.077 S 
ENDBRANCH  25  28
ENDBRANCH  20  25
ENDBRANCH  17  23
ENDBRANCH  10  17
TORSDOF 5
