REMARK  Name = ZINC14745241
REMARK  8 active torsions:
REMARK  status: ('A' for Active; 'I' for Inactive)
REMARK    1  A    between atoms: C_1  and  C_2
REMARK    2  A    between atoms: C_2  and  C_3
REMARK    3  A    between atoms: C_2  and  C_4
REMARK    4  A    between atoms: C_2  and  N_73
REMARK    5  A    between atoms: C_4  and  C_5
REMARK    6  A    between atoms: C_15  and  N_73
REMARK    7  A    between atoms: C_21  and  C_25
REMARK    8  A    between atoms: N_23  and  C_24
REMARK                            x       y       z     vdW  Elec       q    Type
REMARK                         _______ _______ _______ _____ _____    ______ ____
ROOT
ATOM      1  C   UNL     1       5.259   0.465  -1.070  0.00  0.00    -0.066 C 
ATOM      2  C   UNL     1       6.518   1.101  -0.476  0.00  0.00    -0.009 C 
ATOM      3  C   UNL     1       6.807   2.431  -1.185  0.00  0.00    +0.054 C 
ATOM      4  C   UNL     1       5.540   3.247  -1.195  0.00  0.00    +0.043 A 
ATOM      5  C   UNL     1       4.307   2.733  -0.961  0.00  0.00    +0.004 A 
ATOM      6  C   UNL     1       3.414   3.813  -1.060  0.00  0.00    +0.151 A 
ATOM      7  N   UNL     1       4.139   4.880  -1.347  0.00  0.00    -0.166 NA
ATOM      8  N   UNL     1       5.385   4.562  -1.424  0.00  0.00    -0.270 N 
ATOM      9  C   UNL     1       6.473   5.496  -1.723  0.00  0.00    +0.172 C 
ATOM     10  C   UNL     1       4.028   1.286  -0.663  0.00  0.00    +0.023 C 
ENDROOT
BRANCH   6  11
ATOM     11  C   UNL     1       1.948   3.764  -0.883  0.00  0.00    +0.267 C 
ATOM     12  O   UNL     1       1.402   2.709  -0.624  0.00  0.00    -0.268 OA
ATOM     13  N   UNL     1       1.215   4.887  -1.014  0.00  0.00    -0.296 N 
ATOM     14  C   UNL     1       1.745   6.225  -1.318  0.00  0.00    +0.108 C 
ATOM     15  C   UNL     1       0.546   7.197  -1.347  0.00  0.00    +0.020 C 
ATOM     16  C   UNL     1      -0.518   6.458  -0.492  0.00  0.00    +0.020 C 
ATOM     17  C   UNL     1      -0.249   4.980  -0.871  0.00  0.00    +0.108 C 
ENDBRANCH   6  11
BRANCH   1  18
ATOM     18  N   UNL     1       5.114  -0.911  -0.557  0.00  0.00    +0.385 N 
ATOM     19  H   UNL     1       5.528  -0.967   0.381  0.00  0.00    -0.085 HD
ATOM     20  H   UNL     1       4.117  -1.151  -0.507  0.00  0.00    -0.085 HD
BRANCH  18  22
ATOM     21  C   UNL     1       5.044  -1.962  -2.775  0.00  0.00    -0.010 C 
ATOM     22  C   UNL     1       5.800  -1.865  -1.449  0.00  0.00    -0.073 C 
ATOM     23  C   UNL     1       7.231  -1.389  -1.710  0.00  0.00    -0.010 C 
BRANCH  22  24
ATOM     24  C   UNL     1       5.834  -3.241  -0.780  0.00  0.00    -0.006 C 
BRANCH  24  25
ATOM     25  C   UNL     1       6.794  -4.155  -1.543  0.00  0.00    -0.030 C 
ATOM     26  C   UNL     1       6.634  -3.922  -3.047  0.00  0.00    +0.010 C 
ATOM     27  C   UNL     1       7.594  -4.836  -3.811  0.00  0.00    -0.010 C 
ATOM     28  C   UNL     1       7.274  -6.297  -3.484  0.00  0.00    +0.007 C 
ATOM     29  C   UNL     1       7.435  -6.530  -1.981  0.00  0.00    -0.010 C 
ATOM     30  C   UNL     1       6.475  -5.616  -1.217  0.00  0.00    +0.010 C 
ATOM     31  C   UNL     1       8.875  -6.218  -1.567  0.00  0.00    +0.007 C 
ATOM     32  C   UNL     1       9.194  -4.758  -1.893  0.00  0.00    -0.010 C 
ATOM     33  C   UNL     1       9.033  -4.524  -3.397  0.00  0.00    +0.007 C 
ATOM     34  C   UNL     1       8.234  -3.843  -1.130  0.00  0.00    +0.010 C 
ENDBRANCH  24  25
ENDBRANCH  22  24
ENDBRANCH  18  22
ENDBRANCH   1  18
TORSDOF 5
