REMARK  Name = ZINC16682637
REMARK  7 active torsions:
REMARK  status: ('A' for Active; 'I' for Inactive)
REMARK    1  A    between atoms: C_1  and  C_2
REMARK    2  A    between atoms: C_2  and  O_3
REMARK    3  A    between atoms: O_3  and  C_4
REMARK    4  A    between atoms: C_4  and  C_6
REMARK    5  A    between atoms: N_8  and  C_27
REMARK    6  A    between atoms: N_15  and  C_18
REMARK    7  A    between atoms: C_23  and  N_24
REMARK                            x       y       z     vdW  Elec       q    Type
REMARK                         _______ _______ _______ _____ _____    ______ ____
ROOT
ATOM      1  C   UNL     1       1.428  -2.327  -2.479  0.00  0.00    +0.157 C 
ATOM      2  N   UNL     1       1.961  -1.623  -3.425  0.00  0.00    -0.176 NA
ATOM      3  N   UNL     1       2.540  -2.381  -4.439  0.00  0.00    -0.211 N 
ATOM      4  C   UNL     1       2.370  -3.808  -4.130  0.00  0.00    +0.203 C 
ATOM      5  C   UNL     1       1.611  -3.797  -2.777  0.00  0.00    +0.164 C 
ATOM      6  C   UNL     1       2.609  -4.392  -1.808  0.00  0.00    +0.238 C 
ATOM      7  O   UNL     1       2.417  -4.569  -0.625  0.00  0.00    -0.274 OA
ATOM      8  N   UNL     1       3.737  -4.692  -2.462  0.00  0.00    -0.206 N 
ATOM      9  C   UNL     1       3.711  -4.417  -3.788  0.00  0.00    +0.250 C 
ATOM     10  O   UNL     1       4.614  -4.611  -4.574  0.00  0.00    -0.273 OA
ENDROOT
BRANCH   3  11
ATOM     11  C   UNL     1       3.179  -1.868  -5.569  0.00  0.00    +0.052 A 
ATOM     12  C   UNL     1       3.714  -2.731  -6.519  0.00  0.00    +0.026 A 
ATOM     13  C   UNL     1       4.346  -2.220  -7.635  0.00  0.00    +0.017 A 
ATOM     14  C   UNL     1       4.447  -0.851  -7.810  0.00  0.00    +0.018 A 
ATOM     15  C   UNL     1       3.916   0.011  -6.866  0.00  0.00    +0.017 A 
ATOM     16  C   UNL     1       3.277  -0.494  -5.750  0.00  0.00    +0.026 A 
ATOM     17 BR   UNL     1       5.313  -0.156  -9.340  0.00  0.00    -0.050 Br
ENDBRANCH   3  11
BRANCH   8  18
ATOM     18  C   UNL     1       4.852  -5.260  -1.829  0.00  0.00    +0.074 A 
ATOM     19  C   UNL     1       4.981  -6.640  -1.754  0.00  0.00    +0.026 A 
ATOM     20  C   UNL     1       6.081  -7.196  -1.130  0.00  0.00    +0.002 A 
ATOM     21  C   UNL     1       7.053  -6.380  -0.581  0.00  0.00    +0.002 A 
ATOM     22  C   UNL     1       6.927  -5.005  -0.654  0.00  0.00    +0.034 A 
ATOM     23  C   UNL     1       5.832  -4.443  -1.283  0.00  0.00    +0.148 A 
BRANCH  23  24
ATOM     24  N   UNL     1       5.702  -2.971  -1.367  0.00  0.00    +0.058 N 
ATOM     25  O   UNL     1       6.556  -2.260  -0.891  0.00  0.00    -0.126 OA
ATOM     26  O   UNL     1       4.741  -2.480  -1.913  0.00  0.00    -0.126 OA
ENDBRANCH  23  24
ENDBRANCH   8  18
BRANCH   1  27
ATOM     27  C   UNL     1       0.776  -1.800  -1.335  0.00  0.00    +0.356 C 
ATOM     28  O   UNL     1       0.312  -2.553  -0.499  0.00  0.00    -0.244 OA
BRANCH  27  29
ATOM     29  O   UNL     1       0.671  -0.465  -1.174  0.00  0.00    -0.461 OA
BRANCH  29  31
ATOM     30  C   UNL     1      -0.019   1.526   0.010  0.00  0.00    +0.048 C 
ATOM     31  C   UNL     1       0.002  -0.004   0.002  0.00  0.00    +0.229 C 
ENDBRANCH  29  31
ENDBRANCH  27  29
ENDBRANCH   1  27
TORSDOF 6
