REMARK  Name = ZINC39658612
REMARK  12 active torsions:
REMARK  status: ('A' for Active; 'I' for Inactive)
REMARK    1  A    between atoms: C_1  and  C_2
REMARK    2  A    between atoms: C_4  and  C_11
REMARK    3  A    between atoms: N_5  and  C_7
REMARK    4  A    between atoms: C_7  and  C_8
REMARK    5  A    between atoms: C_7  and  C_9
REMARK    6  A    between atoms: C_7  and  C_10
REMARK    7  A    between atoms: C_15  and  C_24
REMARK    8  A    between atoms: N_26  and  C_27
REMARK    9  A    between atoms: C_27  and  C_28
REMARK   10  A    between atoms: C_28  and  S_29
REMARK   11  A    between atoms: S_29  and  C_30
REMARK   12  A    between atoms: C_30  and  C_31
REMARK                            x       y       z     vdW  Elec       q    Type
REMARK                         _______ _______ _______ _____ _____    ______ ____
ROOT
ATOM      1  C   UNL     1      -0.591  -4.011  -1.480  0.00  0.00    +0.265 C 
ATOM      2  O   UNL     1      -0.830  -3.821  -2.657  0.00  0.00    -0.268 OA
ATOM      3  N   UNL     1      -0.691  -5.252  -0.964  0.00  0.00    -0.295 N 
ATOM      4  C   UNL     1      -0.572  -5.656   0.457  0.00  0.00    +0.121 C 
ATOM      5  C   UNL     1      -1.654  -6.743   0.645  0.00  0.00    +0.100 C 
ATOM      6  C   UNL     1      -1.894  -7.307  -0.765  0.00  0.00    -0.004 C 
ATOM      7  C   UNL     1      -0.952  -6.519  -1.688  0.00  0.00    +0.115 C 
ATOM      8  C   UNL     1      -1.552  -8.793  -0.805  0.00  0.00    -0.010 C 
ATOM      9  C   UNL     1      -1.853  -9.344  -2.202  0.00  0.00    -0.082 C 
ATOM     10  N   UNL     1      -3.273  -9.139  -2.515  0.00  0.00    +0.379 N 
ATOM     11  C   UNL     1      -3.572  -7.703  -2.566  0.00  0.00    -0.082 C 
ATOM     12  C   UNL     1      -3.343  -7.083  -1.185  0.00  0.00    -0.010 C 
ATOM     13  H   UNL     1      -3.482  -9.557  -3.410  0.00  0.00    -0.086 HD
ATOM     14  H   UNL     1      -3.839  -9.575  -1.803  0.00  0.00    -0.086 HD
ENDROOT
BRANCH   1  18
ATOM     15  C   UNL     1       1.017  -1.181   2.409  0.00  0.00    +0.067 C 
ATOM     16  C   UNL     1       0.508  -1.637   1.067  0.00  0.00    +0.061 A 
ATOM     17  C   UNL     1       0.259  -2.958   0.687  0.00  0.00    +0.057 A 
ATOM     18  C   UNL     1      -0.192  -2.886  -0.620  0.00  0.00    +0.124 A 
ATOM     19  N   UNL     1      -0.191  -1.560  -0.951  0.00  0.00    -0.254 N 
ATOM     20  N   UNL     1       0.215  -0.866   0.051  0.00  0.00    -0.175 NA
BRANCH  19  21
ATOM     21  C   UNL     1      -0.597  -1.014  -2.248  0.00  0.00    +0.056 C 
ATOM     22  C   UNL     1      -2.013  -1.489  -2.581  0.00  0.00    +0.036 C 
ATOM     23  C   UNL     1      -0.573   0.515  -2.188  0.00  0.00    +0.036 C 
ATOM     24  C   UNL     1       0.370  -1.497  -3.330  0.00  0.00    +0.036 C 
ENDBRANCH  19  21
ENDBRANCH   1  18
BRANCH   5  25
ATOM     25  C   UNL     1      -1.156  -7.825   1.568  0.00  0.00    +0.218 C 
ATOM     26  O   UNL     1       0.033  -8.047   1.657  0.00  0.00    -0.275 OA
ATOM     27  N   UNL     1      -2.032  -8.547   2.295  0.00  0.00    -0.314 N 
ATOM     28  H   UNL     1      -2.986  -8.425   2.166  0.00  0.00    +0.149 HD
BRANCH  27  29
ATOM     29  C   UNL     1      -1.544  -9.518   3.278  0.00  0.00    +0.115 C 
BRANCH  29  30
ATOM     30  C   UNL     1      -2.734 -10.196   3.959  0.00  0.00    +0.088 C 
BRANCH  30  31
ATOM     31  S   UNL     1      -2.130 -11.398   5.176  0.00  0.00    -0.155 S 
BRANCH  31  32
ATOM     32  C   UNL     1      -3.643 -12.104   5.884  0.00  0.00    +0.104 C 
BRANCH  32  33
ATOM     33  C   UNL     1      -3.279 -13.131   6.925  0.00  0.00    -0.038 A 
ATOM     34  C   UNL     1      -3.103 -14.453   6.559  0.00  0.00    +0.004 A 
ATOM     35  C   UNL     1      -2.768 -15.395   7.514  0.00  0.00    +0.000 A 
ATOM     36  C   UNL     1      -2.610 -15.016   8.834  0.00  0.00    +0.000 A 
ATOM     37  C   UNL     1      -2.785 -13.695   9.199  0.00  0.00    +0.000 A 
ATOM     38  C   UNL     1      -3.115 -12.751   8.244  0.00  0.00    +0.004 A 
ENDBRANCH  32  33
ENDBRANCH  31  32
ENDBRANCH  30  31
ENDBRANCH  29  30
ENDBRANCH  27  29
ENDBRANCH   5  25
TORSDOF 8
