REMARK  Name = ZINC39710804
REMARK  10 active torsions:
REMARK  status: ('A' for Active; 'I' for Inactive)
REMARK    1  A    between atoms: C_1  and  C_2
REMARK    2  A    between atoms: C_8  and  C_14
REMARK    3  A    between atoms: C_14  and  C_16
REMARK    4  A    between atoms: C_14  and  N_26
REMARK    5  A    between atoms: N_21  and  C_22
REMARK    6  A    between atoms: C_22  and  C_23
REMARK    7  A    between atoms: C_22  and  C_24
REMARK    8  A    between atoms: C_22  and  C_25
REMARK    9  A    between atoms: N_29  and  C_32
REMARK   10  A    between atoms: C_35  and  N_38
REMARK                            x       y       z     vdW  Elec       q    Type
REMARK                         _______ _______ _______ _____ _____    ______ ____
ROOT
ATOM      1  C   UNL     1      -1.195  -2.627   4.424  0.00  0.00    -0.009 C 
ENDROOT
BRANCH   1   9
ATOM      2  C   UNL     1       3.046  -5.258   0.850  0.00  0.00    +0.045 C 
ATOM      3  C   UNL     1       3.127  -4.698   2.247  0.00  0.00    -0.029 A 
ATOM      4  C   UNL     1       4.188  -5.008   3.037  0.00  0.00    +0.005 A 
ATOM      5  C   UNL     1       4.324  -4.523   4.338  0.00  0.00    +0.001 A 
ATOM      6  C   UNL     1       3.390  -3.705   4.890  0.00  0.00    +0.009 A 
ATOM      7  C   UNL     1       2.221  -3.332   4.093  0.00  0.00    -0.007 A 
ATOM      8  C   UNL     1       1.258  -2.513   4.605  0.00  0.00    -0.006 C 
ATOM      9  C   UNL     1       0.082  -2.179   3.710  0.00  0.00    +0.088 C 
ATOM     10  C   UNL     1       0.072  -2.779   2.322  0.00  0.00    +0.223 C 
ATOM     11  O   UNL     1      -0.848  -2.543   1.561  0.00  0.00    -0.275 OA
ATOM     12  N   UNL     1       1.067  -3.561   1.938  0.00  0.00    -0.284 N 
ATOM     13  C   UNL     1       2.106  -3.854   2.721  0.00  0.00    +0.043 A 
ATOM     14  H   UNL     1       1.041  -3.937   1.044  0.00  0.00    +0.155 HD
ENDBRANCH   1   9
BRANCH   1  15
ATOM     15  N   UNL     1      -1.276  -1.976   5.738  0.00  0.00    +0.387 N 
ATOM     16  C   UNL     1      -1.401  -0.524   5.555  0.00  0.00    -0.059 C 
ATOM     17  C   UNL     1      -1.370   0.166   6.923  0.00  0.00    +0.086 C 
ATOM     18  N   UNL     1      -2.413  -0.432   7.771  0.00  0.00    -0.333 N 
ATOM     19  C   UNL     1      -2.462  -1.898   7.880  0.00  0.00    +0.086 C 
ATOM     20  C   UNL     1      -2.441  -2.491   6.467  0.00  0.00    -0.059 C 
ATOM     21  H   UNL     1      -0.437  -2.175   6.263  0.00  0.00    -0.081 HD
BRANCH  18  22
ATOM     22  C   UNL     1      -3.332   0.370   8.453  0.00  0.00    +0.030 A 
ATOM     23  C   UNL     1      -4.379  -0.213   9.154  0.00  0.00    +0.025 A 
ATOM     24  C   UNL     1      -5.285   0.582   9.828  0.00  0.00    +0.034 A 
ATOM     25  C   UNL     1      -5.150   1.958   9.804  0.00  0.00    +0.126 A 
ATOM     26  C   UNL     1      -4.109   2.542   9.107  0.00  0.00    +0.034 A 
ATOM     27  C   UNL     1      -3.196   1.752   8.436  0.00  0.00    +0.025 A 
BRANCH  25  28
ATOM     28  N   UNL     1      -6.123   2.808  10.527  0.00  0.00    +0.056 N 
ATOM     29  O   UNL     1      -7.035   2.298  11.137  0.00  0.00    -0.126 OA
ATOM     30  O   UNL     1      -6.007   4.011  10.508  0.00  0.00    -0.126 OA
ENDBRANCH  25  28
ENDBRANCH  18  22
ENDBRANCH   1  15
BRANCH   1  31
ATOM     31  C   UNL     1      -1.169  -4.146   4.609  0.00  0.00    +0.205 C 
ATOM     32  N   UNL     1       0.032  -4.551   5.352  0.00  0.00    -0.152 NA
ATOM     33  N   UNL     1       0.709  -5.297   4.641  0.00  0.00    -0.070 NA
ATOM     34  N   UNL     1       0.139  -5.515   3.387  0.00  0.00    -0.179 N 
ATOM     35  N   UNL     1      -1.044  -4.822   3.300  0.00  0.00    -0.183 NA
ATOM     36  H   UNL     1       0.517  -6.069   2.687  0.00  0.00    +0.191 HD
BRANCH  35  37
ATOM     37  C   UNL     1      -2.173  -5.732   3.068  0.00  0.00    +0.035 C 
ATOM     38  C   UNL     1      -3.480  -4.937   3.086  0.00  0.00    +0.029 C 
ATOM     39  C   UNL     1      -2.009  -6.413   1.708  0.00  0.00    +0.029 C 
ATOM     40  C   UNL     1      -2.207  -6.795   4.169  0.00  0.00    +0.029 C 
ENDBRANCH  35  37
ENDBRANCH   1  31
TORSDOF 6
