REMARK  Name = ZINC12296192
REMARK  11 active torsions:
REMARK  status: ('A' for Active; 'I' for Inactive)
REMARK    1  A    between atoms: C_1  and  C_2
REMARK    2  A    between atoms: C_9  and  C_14
REMARK    3  A    between atoms: C_14  and  N_72
REMARK    4  A    between atoms: C_21  and  O_40
REMARK    5  A    between atoms: C_23  and  C_39
REMARK    6  A    between atoms: C_26  and  O_35
REMARK    7  A    between atoms: C_29  and  O_31
REMARK    8  A    between atoms: O_31  and  C_32
REMARK    9  A    between atoms: C_32  and  C_34
REMARK   10  A    between atoms: O_35  and  C_36
REMARK   11  A    between atoms: C_36  and  C_38
REMARK                            x       y       z     vdW  Elec       q    Type
REMARK                         _______ _______ _______ _____ _____    ______ ____
ROOT
ATOM      1  C   UNL     1      -4.506  -1.442   1.546  0.00  0.00    +0.008 C 
ATOM      2  C   UNL     1      -3.800  -1.121   0.228  0.00  0.00    -0.003 C 
ATOM      3  C   UNL     1      -4.339  -2.001  -0.839  0.00  0.00    +0.048 C 
ATOM      4  C   UNL     1      -3.634  -1.697  -2.158  0.00  0.00    +0.183 C 
ATOM      5  C   UNL     1      -2.273  -2.315  -2.214  0.00  0.00    +0.071 C 
ATOM      6  C   UNL     1      -2.147  -2.807  -3.671  0.00  0.00    +0.090 C 
ATOM      7  C   UNL     1      -3.485  -2.445  -4.294  0.00  0.00    +0.309 C 
ATOM      8  O   UNL     1      -3.716  -2.360  -5.476  0.00  0.00    -0.251 OA
ATOM      9  O   UNL     1      -4.371  -2.233  -3.296  0.00  0.00    -0.461 OA
ATOM     10  C   UNL     1      -1.103  -1.400  -1.844  0.00  0.00    +0.132 C 
ATOM     11  C   UNL     1      -1.519  -0.557  -0.623  0.00  0.00    +0.038 C 
ATOM     12  C   UNL     1      -2.300  -1.324   0.403  0.00  0.00    +0.045 C 
ATOM     13  C   UNL     1      -1.849  -0.751   1.770  0.00  0.00    +0.184 C 
ATOM     14  C   UNL     1      -0.336  -0.486   1.537  0.00  0.00    +0.090 C 
ATOM     15  C   UNL     1      -0.259  -0.006   0.070  0.00  0.00    +0.189 C 
ATOM     16  C   UNL     1      -2.378   0.617  -1.098  0.00  0.00    +0.018 C 
ENDROOT
BRANCH  10  17
ATOM     17  O   UNL     1       0.043  -2.190  -1.516  0.00  0.00    -0.391 OA
ATOM     18  H   UNL     1       0.358  -2.745  -2.242  0.00  0.00    +0.210 HD
ENDBRANCH  10  17
BRANCH   6  19
ATOM     19  C   UNL     1      -1.925  -4.321  -3.709  0.00  0.00    -0.064 C 
BRANCH  19  26
ATOM     20  C   UNL     1      -2.030  -6.171  -5.282  0.00  0.00    -0.079 C 
ATOM     21  C   UNL     1      -1.548  -6.722  -6.596  0.00  0.00    -0.019 C 
ATOM     22  C   UNL     1      -0.167  -7.375  -6.377  0.00  0.00    -0.002 C 
ATOM     23  C   UNL     1       0.904  -6.388  -6.307  0.00  0.00    -0.002 C 
ATOM     24  C   UNL     1       0.715  -5.405  -5.133  0.00  0.00    -0.019 C 
ATOM     25  C   UNL     1      -0.314  -4.381  -5.528  0.00  0.00    -0.079 C 
ATOM     26  N   UNL     1      -1.721  -4.710  -5.114  0.00  0.00    +0.380 N 
ATOM     27  H   UNL     1      -2.366  -4.173  -5.704  0.00  0.00    -0.082 HD
ENDBRANCH  19  26
ENDBRANCH   6  19
BRANCH  15  28
ATOM     28  O   UNL     1      -0.252   1.445   0.018  0.00  0.00    -0.461 OA
BRANCH  28  29
ATOM     29  C   UNL     1       0.947   2.049   0.007  0.00  0.00    +0.304 C 
ATOM     30  O   UNL     1       1.957   1.387   0.040  0.00  0.00    -0.251 OA
ATOM     31  C   UNL     1       1.032   3.553  -0.046  0.00  0.00    +0.136 C 
ENDBRANCH  28  29
ENDBRANCH  15  28
BRANCH  13  32
ATOM     32  O   UNL     1      -2.045  -1.725   2.829  0.00  0.00    -0.461 OA
BRANCH  32  33
ATOM     33  C   UNL     1      -2.303  -1.248   4.056  0.00  0.00    +0.304 C 
ATOM     34  O   UNL     1      -2.362  -0.055   4.241  0.00  0.00    -0.251 OA
ATOM     35  C   UNL     1      -2.517  -2.199   5.205  0.00  0.00    +0.136 C 
ENDBRANCH  32  33
ENDBRANCH  13  32
TORSDOF 7
