REMARK  Name = ZINC00673424
REMARK  6 active torsions:
REMARK  status: ('A' for Active; 'I' for Inactive)
REMARK    1  A    between atoms: C_4  and  C_7
REMARK    2  A    between atoms: C_12  and  C_28
REMARK    3  A    between atoms: C_14  and  C_26
REMARK    4  A    between atoms: C_15  and  N_25
REMARK    5  A    between atoms: N_16  and  C_17
REMARK    6  A    between atoms: C_22  and  C_23
REMARK                            x       y       z     vdW  Elec       q    Type
REMARK                         _______ _______ _______ _____ _____    ______ ____
ROOT
ATOM      1  C   UNL     1       3.027   1.455   3.633  0.00  0.00    +0.032 C 
ATOM      2  C   UNL     1       2.171   1.088   2.419  0.00  0.00    +0.060 C 
ATOM      3  C   UNL     1       3.015   1.141   1.169  0.00  0.00    +0.025 C 
ATOM      4  C   UNL     1       4.335   0.864   1.209  0.00  0.00    +0.025 C 
ATOM      5  C   UNL     1       5.176   0.915  -0.041  0.00  0.00    +0.097 C 
ATOM      6  C   UNL     1       4.321   0.872  -1.273  0.00  0.00    +0.077 C 
ATOM      7  C   UNL     1       2.991   1.149  -1.217  0.00  0.00    +0.107 C 
ATOM      8  N   UNL     1       2.407   1.477  -0.013  0.00  0.00    -0.259 N 
ATOM      9  C   UNL     1       4.967   0.522   2.418  0.00  0.00    +0.162 C 
ATOM     10  O   UNL     1       6.153   0.260   2.417  0.00  0.00    -0.292 OA
ATOM     11  C   UNL     1       4.201   0.474   3.712  0.00  0.00    +0.088 C 
ENDROOT
BRANCH   5  12
ATOM     12  C   UNL     1       5.981   2.189  -0.043  0.00  0.00    -0.031 A 
ATOM     13  C   UNL     1       5.336   3.412  -0.022  0.00  0.00    +0.008 A 
ATOM     14  C   UNL     1       6.070   4.584  -0.017  0.00  0.00    +0.050 A 
ATOM     15  C   UNL     1       7.454   4.535  -0.046  0.00  0.00    +0.166 A 
ATOM     16  C   UNL     1       8.103   3.303  -0.073  0.00  0.00    +0.167 A 
ATOM     17  C   UNL     1       7.362   2.133  -0.071  0.00  0.00    +0.054 A 
ATOM     18  O   UNL     1       9.451   3.521  -0.098  0.00  0.00    -0.453 OA
ATOM     19  C   UNL     1       9.611   4.894  -0.498  0.00  0.00    +0.466 C 
ATOM     20  O   UNL     1       8.395   5.524  -0.054  0.00  0.00    -0.453 OA
ENDBRANCH   5  12
BRANCH   1  24
ATOM     21  C   UNL     1       0.674   1.167   7.187  0.00  0.00    +0.000 A 
ATOM     22  C   UNL     1       1.268   2.368   6.846  0.00  0.00    +0.000 A 
ATOM     23  C   UNL     1       2.029   2.461   5.696  0.00  0.00    +0.004 A 
ATOM     24  C   UNL     1       2.197   1.353   4.887  0.00  0.00    -0.044 A 
ATOM     25  C   UNL     1       1.599   0.153   5.225  0.00  0.00    +0.004 A 
ATOM     26  C   UNL     1       0.841   0.059   6.377  0.00  0.00    +0.000 A 
ENDBRANCH   1  24
BRANCH   8  27
ATOM     27  C   UNL     1       1.185   2.150   0.002  0.00  0.00    +0.057 A 
ATOM     28  C   UNL     1       1.154   3.538   0.010  0.00  0.00    +0.025 A 
ATOM     29  C   UNL     1      -0.056   4.202   0.025  0.00  0.00    +0.002 A 
ATOM     30  C   UNL     1      -1.246   3.492   0.032  0.00  0.00    +0.001 A 
ATOM     31  C   UNL     1      -1.234   2.114   0.019  0.00  0.00    +0.021 A 
ATOM     32  C   UNL     1      -0.017   1.428   0.010  0.00  0.00    +0.073 A 
BRANCH  32  33
ATOM     33  C   UNL     1       0.002  -0.004   0.002  0.00  0.00    +0.101 C 
ATOM     34  N   UNL     1       0.018  -1.140  -0.004  0.00  0.00    -0.191 NA
ENDBRANCH  32  33
ENDBRANCH   8  27
BRANCH   7  35
ATOM     35  N   UNL     1       2.230   1.106  -2.360  0.00  0.00    -0.345 N 
ATOM     36  H   UNL     1       1.282   1.307  -2.319  0.00  0.00    +0.144 HD
ATOM     37  H   UNL     1       2.641   0.875  -3.208  0.00  0.00    +0.144 HD
ENDBRANCH   7  35
BRANCH   6  38
ATOM     38  C   UNL     1       4.915   0.528  -2.530  0.00  0.00    +0.099 C 
ATOM     39  N   UNL     1       5.386   0.255  -3.527  0.00  0.00    -0.191 NA
ENDBRANCH   6  38
TORSDOF 6
