REMARK  Name = ZINC14743979
REMARK  8 active torsions:
REMARK  status: ('A' for Active; 'I' for Inactive)
REMARK    1  A    between atoms: C_1  and  N_2
REMARK    2  A    between atoms: N_2  and  C_3
REMARK    3  A    between atoms: C_4  and  C_6
REMARK    4  A    between atoms: N_9  and  C_11
REMARK    5  A    between atoms: C_11  and  C_12
REMARK    6  A    between atoms: C_20  and  N_23
REMARK    7  A    between atoms: N_23  and  C_24
REMARK    8  A    between atoms: C_33  and  O_36
REMARK                            x       y       z     vdW  Elec       q    Type
REMARK                         _______ _______ _______ _____ _____    ______ ____
ROOT
ATOM      1  C   UNL     1       0.231  -1.763  -1.323  0.00  0.00    +0.151 A 
ATOM      2  C   UNL     1       0.209  -2.683  -2.385  0.00  0.00    +0.004 A 
ATOM      3  C   UNL     1       0.312  -3.910  -1.818  0.00  0.00    +0.043 A 
ATOM      4  N   UNL     1       0.388  -3.728  -0.489  0.00  0.00    -0.267 N 
ATOM      5  N   UNL     1       0.346  -2.470  -0.212  0.00  0.00    -0.166 NA
ATOM      6  C   UNL     1       0.332  -5.198  -2.600  0.00  0.00    +0.054 C 
ATOM      7  C   UNL     1       0.638  -4.867  -4.066  0.00  0.00    -0.009 C 
ATOM      8  C   UNL     1      -0.292  -3.750  -4.547  0.00  0.00    -0.067 C 
ATOM      9  C   UNL     1       0.095  -2.432  -3.864  0.00  0.00    +0.023 C 
ENDROOT
BRANCH   1  13
ATOM     10  C   UNL     1       0.107   1.925  -0.418  0.00  0.00    +0.132 C 
ATOM     11  N   UNL     1       0.189   0.466  -0.315  0.00  0.00    -0.302 N 
ATOM     12  C   UNL     1       0.314  -0.169   1.000  0.00  0.00    +0.132 C 
ATOM     13  C   UNL     1       0.149  -0.292  -1.428  0.00  0.00    +0.267 C 
ATOM     14  O   UNL     1       0.045   0.235  -2.519  0.00  0.00    -0.268 OA
ENDBRANCH   1  13
BRANCH   8  15
ATOM     15  N   UNL     1      -0.166  -3.602  -6.003  0.00  0.00    +0.383 N 
ATOM     16  H   UNL     1       0.763  -3.279  -6.230  0.00  0.00    -0.085 HD
ATOM     17  H   UNL     1      -0.330  -4.493  -6.448  0.00  0.00    -0.085 HD
BRANCH  15  18
ATOM     18  C   UNL     1      -1.154  -2.626  -6.483  0.00  0.00    -0.065 C 
ATOM     19  C   UNL     1      -2.564  -3.183  -6.274  0.00  0.00    -0.022 C 
ATOM     20  C   UNL     1      -2.717  -4.490  -7.054  0.00  0.00    +0.005 C 
ATOM     21  C   UNL     1      -2.490  -4.224  -8.543  0.00  0.00    -0.008 C 
ATOM     22  C   UNL     1      -1.080  -3.668  -8.753  0.00  0.00    +0.005 C 
ATOM     23  C   UNL     1      -0.927  -2.361  -7.973  0.00  0.00    -0.022 C 
ATOM     24  C   UNL     1      -1.956  -1.345  -8.472  0.00  0.00    +0.036 C 
ATOM     25  C   UNL     1      -3.365  -1.901  -8.263  0.00  0.00    +0.067 C 
ATOM     26  C   UNL     1      -3.593  -2.167  -6.773  0.00  0.00    +0.036 C 
ATOM     27  C   UNL     1      -3.519  -3.208  -9.043  0.00  0.00    +0.038 C 
BRANCH  25  28
ATOM     28  O   UNL     1      -4.326  -0.952  -8.729  0.00  0.00    -0.389 OA
ATOM     29  H   UNL     1      -5.244  -1.239  -8.628  0.00  0.00    +0.210 HD
ENDBRANCH  25  28
ENDBRANCH  15  18
ENDBRANCH   8  15
BRANCH   4  30
ATOM     30  C   UNL     1       0.507  -4.802   0.500  0.00  0.00    +0.147 C 
BRANCH  30  31
ATOM     31  C   UNL     1       1.986  -5.102   0.751  0.00  0.00    +0.010 C 
ATOM     32  C   UNL     1       2.619  -5.657  -0.527  0.00  0.00    +0.005 C 
ATOM     33  C   UNL     1       4.098  -5.957  -0.276  0.00  0.00    +0.000 C 
ATOM     34  C   UNL     1       4.226  -6.989   0.846  0.00  0.00    +0.000 C 
ATOM     35  C   UNL     1       3.593  -6.435   2.124  0.00  0.00    +0.000 C 
ATOM     36  C   UNL     1       2.114  -6.135   1.873  0.00  0.00    +0.005 C 
ENDBRANCH  30  31
ENDBRANCH   4  30
TORSDOF 6
