REMARK  Name = ZINC39326712
REMARK  15 active torsions:
REMARK  status: ('A' for Active; 'I' for Inactive)
REMARK    1  A    between atoms: C_1  and  C_2
REMARK    2  A    between atoms: C_2  and  C_3
REMARK    3  A    between atoms: C_3  and  N_4
REMARK    4  A    between atoms: C_7  and  C_8
REMARK    5  A    between atoms: C_11  and  O_16
REMARK    6  A    between atoms: C_13  and  O_14
REMARK    7  A    between atoms: O_14  and  C_15
REMARK    8  A    between atoms: O_16  and  C_17
REMARK    9  A    between atoms: C_21  and  C_29
REMARK   10  A    between atoms: C_23  and  C_27
REMARK   11  A    between atoms: C_24  and  N_26
REMARK   12  A    between atoms: C_32  and  O_37
REMARK   13  A    between atoms: C_34  and  O_35
REMARK   14  A    between atoms: O_35  and  C_36
REMARK   15  A    between atoms: O_37  and  C_38
REMARK                            x       y       z     vdW  Elec       q    Type
REMARK                         _______ _______ _______ _____ _____    ______ ____
ROOT
ATOM      1  N   UNL     1      -1.011  -2.104   0.495  0.00  0.00    -0.294 NA
ATOM      2  C   UNL     1      -0.599  -2.474  -0.871  0.00  0.00    +0.123 C 
ATOM      3  C   UNL     1      -0.609  -3.987  -0.941  0.00  0.00    +0.010 C 
ATOM      4  C   UNL     1       0.362  -4.662  -1.583  0.00  0.00    +0.020 C 
ATOM      5  C   UNL     1      -1.725  -4.693  -0.279  0.00  0.00    +0.136 C 
ATOM      6  C   UNL     1      -2.554  -4.018   0.519  0.00  0.00    -0.000 C 
ATOM      7  C   UNL     1      -2.384  -2.539   0.757  0.00  0.00    +0.120 C 
ATOM      8  C   UNL     1      -3.694  -4.726   1.210  0.00  0.00    +0.099 C 
ATOM      9  C   UNL     1      -3.465  -6.211   1.212  0.00  0.00    +0.098 C 
ATOM     10  C   UNL     1      -2.574  -6.776   0.359  0.00  0.00    +0.199 C 
ATOM     11  O   UNL     1      -1.875  -6.021  -0.506  0.00  0.00    -0.441 OA
ENDROOT
BRANCH   4  12
ATOM     12  C   UNL     1       1.370  -3.933  -2.369  0.00  0.00    +0.017 A 
ATOM     13  C   UNL     1       1.014  -2.773  -3.062  0.00  0.00    +0.015 A 
ATOM     14  C   UNL     1       1.960  -2.093  -3.797  0.00  0.00    +0.046 A 
ATOM     15  C   UNL     1       3.270  -2.557  -3.851  0.00  0.00    +0.124 A 
ATOM     16  C   UNL     1       3.633  -3.708  -3.167  0.00  0.00    +0.091 A 
ATOM     17  C   UNL     1       2.693  -4.396  -2.420  0.00  0.00    +0.131 A 
BRANCH  17  18
ATOM     18  O   UNL     1       3.049  -5.519  -1.745  0.00  0.00    -0.494 OA
ATOM     19  C   UNL     1       4.414  -5.931  -1.844  0.00  0.00    +0.277 C 
ENDBRANCH  17  18
BRANCH  15  20
ATOM     20  O   UNL     1       4.197  -1.881  -4.578  0.00  0.00    -0.495 OA
ATOM     21  C   UNL     1       3.756  -0.705  -5.259  0.00  0.00    +0.277 C 
ENDBRANCH  15  20
ENDBRANCH   4  12
BRANCH   8  22
ATOM     22  C   UNL     1      -4.980  -4.426   0.485  0.00  0.00    +0.007 A 
ATOM     23  C   UNL     1      -5.123  -4.782  -0.843  0.00  0.00    +0.012 A 
ATOM     24  C   UNL     1      -6.301  -4.508  -1.511  0.00  0.00    +0.046 A 
ATOM     25  C   UNL     1      -7.344  -3.873  -0.850  0.00  0.00    +0.124 A 
ATOM     26  C   UNL     1      -7.202  -3.515   0.482  0.00  0.00    +0.091 A 
ATOM     27  C   UNL     1      -6.021  -3.796   1.152  0.00  0.00    +0.128 A 
BRANCH  27  28
ATOM     28  O   UNL     1      -5.882  -3.452   2.459  0.00  0.00    -0.495 OA
ATOM     29  C   UNL     1      -6.995  -2.807   3.082  0.00  0.00    +0.277 C 
ENDBRANCH  27  28
BRANCH  25  30
ATOM     30  O   UNL     1      -8.502  -3.603  -1.507  0.00  0.00    -0.495 OA
ATOM     31  C   UNL     1      -8.578  -4.000  -2.878  0.00  0.00    +0.277 C 
ENDBRANCH  25  30
ENDBRANCH   8  22
BRANCH  10  32
ATOM     32  N   UNL     1      -2.384  -8.135   0.380  0.00  0.00    -0.328 N 
ATOM     33  H   UNL     1      -2.885  -8.685   1.002  0.00  0.00    +0.145 HD
ATOM     34  H   UNL     1      -1.748  -8.545  -0.227  0.00  0.00    +0.145 HD
ENDBRANCH  10  32
BRANCH   9  35
ATOM     35  C   UNL     1      -4.194  -7.039   2.125  0.00  0.00    +0.101 C 
ATOM     36  N   UNL     1      -4.773  -7.696   2.849  0.00  0.00    -0.191 NA
ENDBRANCH   9  35
BRANCH   1  37
ATOM     37  C   UNL     1      -0.865  -0.659   0.716  0.00  0.00    +0.085 C 
BRANCH  37  39
ATOM     38  C   UNL     1       0.770   1.220   0.909  0.00  0.00    +0.005 C 
ATOM     39  C   UNL     1       0.618  -0.285   0.679  0.00  0.00    +0.012 C 
ENDBRANCH  37  39
ENDBRANCH   1  37
TORSDOF 10
