REMARK  Name = ZINC00713578
REMARK  6 active torsions:
REMARK  status: ('A' for Active; 'I' for Inactive)
REMARK    1  A    between atoms: C_3  and  C_10
REMARK    2  A    between atoms: C_5  and  N_7
REMARK    3  A    between atoms: C_12  and  C_34
REMARK    4  A    between atoms: C_13  and  N_33
REMARK    5  A    between atoms: N_14  and  C_22
REMARK    6  A    between atoms: C_24  and  C_29
REMARK                            x       y       z     vdW  Elec       q    Type
REMARK                         _______ _______ _______ _____ _____    ______ ____
ROOT
ATOM      1  C   UNL     1      -0.079   5.351   0.118  0.00  0.00    +0.097 C 
ATOM      2  C   UNL     1      -0.877   5.954   1.237  0.00  0.00    +0.077 C 
ATOM      3  C   UNL     1      -2.143   6.401   1.034  0.00  0.00    +0.107 C 
ATOM      4  N   UNL     1      -2.714   6.314  -0.216  0.00  0.00    -0.259 N 
ATOM      5  C   UNL     1      -1.929   6.168  -1.330  0.00  0.00    +0.025 C 
ATOM      6  C   UNL     1      -0.663   5.711  -1.224  0.00  0.00    +0.025 C 
ATOM      7  C   UNL     1       0.149   5.557  -2.362  0.00  0.00    +0.162 C 
ATOM      8  O   UNL     1       1.289   5.158  -2.231  0.00  0.00    -0.292 OA
ATOM      9  C   UNL     1      -0.368   5.877  -3.738  0.00  0.00    +0.080 C 
ATOM     10  C   UNL     1      -1.885   5.664  -3.762  0.00  0.00    +0.014 C 
ATOM     11  C   UNL     1      -2.515   6.534  -2.672  0.00  0.00    +0.052 C 
ENDROOT
BRANCH   4  12
ATOM     12  C   UNL     1      -4.106   6.375  -0.349  0.00  0.00    +0.058 A 
ATOM     13  C   UNL     1      -4.860   5.209  -0.325  0.00  0.00    +0.037 A 
ATOM     14  C   UNL     1      -6.233   5.274  -0.457  0.00  0.00    +0.057 A 
ATOM     15  C   UNL     1      -6.859   6.497  -0.614  0.00  0.00    +0.014 A 
ATOM     16  C   UNL     1      -6.112   7.660  -0.639  0.00  0.00    +0.022 A 
ATOM     17  C   UNL     1      -4.737   7.604  -0.502  0.00  0.00    +0.063 A 
ATOM     18 CL   UNL     1      -3.801   9.066  -0.526  0.00  0.00    -0.082 Cl
BRANCH  14  19
ATOM     19  C   UNL     1      -7.051   4.008  -0.429  0.00  0.00    +0.417 C 
ATOM     20  F   UNL     1      -7.426   3.724   0.888  0.00  0.00    -0.166 F 
ATOM     21  F   UNL     1      -8.198   4.177  -1.213  0.00  0.00    -0.166 F 
ATOM     22  F   UNL     1      -6.291   2.950  -0.937  0.00  0.00    -0.166 F 
ENDBRANCH  14  19
ENDBRANCH   4  12
BRANCH   1  25
ATOM     23  C   UNL     1      -1.251   1.767   0.312  0.00  0.00    +0.003 A 
ATOM     24  C   UNL     1      -1.257   3.144   0.180  0.00  0.00    +0.005 A 
ATOM     25  C   UNL     1      -0.073   3.851   0.268  0.00  0.00    -0.033 A 
ATOM     26  C   UNL     1       1.116   3.184   0.493  0.00  0.00    +0.037 A 
ATOM     27  C   UNL     1       1.122   1.808   0.630  0.00  0.00    +0.126 A 
ATOM     28  C   UNL     1      -0.063   1.100   0.542  0.00  0.00    +0.033 A 
BRANCH  27  29
ATOM     29  N   UNL     1       2.395   1.093   0.870  0.00  0.00    +0.056 N 
ATOM     30  O   UNL     1       2.400  -0.119   0.990  0.00  0.00    -0.126 OA
ATOM     31  O   UNL     1       3.439   1.717   0.947  0.00  0.00    -0.126 OA
ENDBRANCH  27  29
ENDBRANCH   1  25
BRANCH   3  32
ATOM     32  N   UNL     1      -2.855   6.941   2.078  0.00  0.00    -0.345 N 
ATOM     33  H   UNL     1      -2.454   7.003   2.958  0.00  0.00    +0.144 HD
ATOM     34  H   UNL     1      -3.760   7.261   1.933  0.00  0.00    +0.144 HD
ENDBRANCH   3  32
BRANCH   2  35
ATOM     35  C   UNL     1      -0.293   6.060   2.540  0.00  0.00    +0.099 C 
ATOM     36  N   UNL     1       0.170   6.144   3.574  0.00  0.00    -0.191 NA
ENDBRANCH   2  35
TORSDOF 6
