REMARK  Name = ZINC41586086
REMARK  7 active torsions:
REMARK  status: ('A' for Active; 'I' for Inactive)
REMARK    1  A    between atoms: C_1  and  C_2
REMARK    2  A    between atoms: C_2  and  O_3
REMARK    3  A    between atoms: O_3  and  C_4
REMARK    4  A    between atoms: N_9  and  C_12
REMARK    5  A    between atoms: C_12  and  C_13
REMARK    6  A    between atoms: C_14  and  O_35
REMARK    7  A    between atoms: C_21  and  C_22
REMARK                            x       y       z     vdW  Elec       q    Type
REMARK                         _______ _______ _______ _____ _____    ______ ____
ROOT
ATOM      1  C   UNL     1      -6.596  -5.245   1.701  0.00  0.00    +0.051 A 
ATOM      2  C   UNL     1      -7.823  -5.424   1.082  0.00  0.00    +0.125 A 
ATOM      3  C   UNL     1      -8.452  -6.666   1.103  0.00  0.00    +0.046 A 
ATOM      4  C   UNL     1      -7.862  -7.723   1.736  0.00  0.00    +0.019 A 
ATOM      5  C   UNL     1      -6.627  -7.557   2.363  0.00  0.00    +0.068 A 
ATOM      6  C   UNL     1      -5.981  -6.311   2.345  0.00  0.00    +0.147 A 
ATOM      7  O   UNL     1      -4.806  -6.397   3.006  0.00  0.00    -0.451 OA
ATOM      8  C   UNL     1      -4.590  -7.644   3.487  0.00  0.00    +0.176 C 
ATOM      9  C   UNL     1      -3.506  -8.054   4.194  0.00  0.00    +0.061 C 
ATOM     10  C   UNL     1      -5.747  -8.471   3.114  0.00  0.00    +0.231 C 
ATOM     11  O   UNL     1      -5.931  -9.650   3.361  0.00  0.00    -0.283 OA
ENDROOT
BRANCH   9  12
ATOM     12  C   UNL     1      -3.327  -9.477   4.505  0.00  0.00    +0.022 A 
ATOM     13  C   UNL     1      -3.599 -10.449   3.535  0.00  0.00    +0.031 A 
ATOM     14  C   UNL     1      -3.430 -11.783   3.836  0.00  0.00    +0.042 A 
ATOM     15  C   UNL     1      -2.996 -12.167   5.095  0.00  0.00    +0.029 A 
ATOM     16  C   UNL     1      -2.724 -11.218   6.064  0.00  0.00    +0.022 A 
ATOM     17  C   UNL     1      -2.878  -9.872   5.777  0.00  0.00    +0.136 A 
ATOM     18  O   UNL     1      -2.600  -8.929   6.713  0.00  0.00    -0.465 OA
ATOM     19  C   UNL     1      -2.501  -9.373   8.069  0.00  0.00    +0.395 C 
ATOM     20  O   UNL     1      -1.671 -10.540   8.109  0.00  0.00    -0.339 OA
ATOM     21  C   UNL     1      -2.257 -11.658   7.428  0.00  0.00    +0.202 C 
ATOM     22 CL   UNL     1      -3.764 -12.989   2.633  0.00  0.00    -0.084 Cl
ENDBRANCH   9  12
BRANCH   2  23
ATOM     23  O   UNL     1      -8.416  -4.380   0.450  0.00  0.00    -0.506 OA
ATOM     24  H   UNL     1      -8.178  -4.298  -0.484  0.00  0.00    +0.292 HD
ENDBRANCH   2  23
BRANCH   1  25
ATOM     25  C   UNL     1      -5.927  -3.895   1.670  0.00  0.00    +0.127 C 
BRANCH  25  31
ATOM     26  C   UNL     1      -1.537  -3.055  -1.407  0.00  0.00    +0.403 C 
ATOM     27  O   UNL     1      -0.689  -3.925  -1.437  0.00  0.00    -0.226 OA
ATOM     28  N   UNL     1      -2.810  -3.366  -1.090  0.00  0.00    -0.265 N 
ATOM     29  C   UNL     1      -3.853  -2.330  -1.055  0.00  0.00    +0.126 C 
ATOM     30  C   UNL     1      -4.588  -2.426   0.286  0.00  0.00    +0.104 C 
ATOM     31  N   UNL     1      -5.070  -3.800   0.480  0.00  0.00    -0.295 NA
ATOM     32  C   UNL     1      -3.953  -4.750   0.559  0.00  0.00    +0.104 C 
ATOM     33  C   UNL     1      -3.193  -4.751  -0.777  0.00  0.00    +0.126 C 
BRANCH  26  34
ATOM     34  O   UNL     1      -1.206  -1.781  -1.691  0.00  0.00    -0.451 OA
BRANCH  34  36
ATOM     35  C   UNL     1       0.344  -0.033  -2.308  0.00  0.00    +0.048 C 
ATOM     36  C   UNL     1       0.161  -1.524  -2.018  0.00  0.00    +0.230 C 
ENDBRANCH  34  36
ENDBRANCH  26  34
ENDBRANCH  25  31
ENDBRANCH   1  25
TORSDOF 6
