REMARK  Name = ZINC14752977
REMARK  10 active torsions:
REMARK  status: ('A' for Active; 'I' for Inactive)
REMARK    1  A    between atoms: C_1  and  C_2
REMARK    2  A    between atoms: C_7  and  C_8
REMARK    3  A    between atoms: C_12  and  C_14
REMARK    4  A    between atoms: C_14  and  N_73
REMARK    5  A    between atoms: N_22  and  C_30
REMARK    6  A    between atoms: N_25  and  C_26
REMARK    7  A    between atoms: C_26  and  C_27
REMARK    8  A    between atoms: C_27  and  C_28
REMARK    9  A    between atoms: C_27  and  C_29
REMARK   10  A    between atoms: C_30  and  C_31
REMARK                            x       y       z     vdW  Elec       q    Type
REMARK                         _______ _______ _______ _____ _____    ______ ____
ROOT
ATOM      1  C   UNL     1       3.494  -1.542   1.298  0.00  0.00    -0.076 C 
ATOM      2  C   UNL     1       2.000  -1.229   1.415  0.00  0.00    +0.017 C 
ATOM      3  C   UNL     1       1.537  -0.499   0.158  0.00  0.00    +0.112 C 
ATOM      4  C   UNL     1       1.852  -1.325  -1.085  0.00  0.00    +0.017 C 
ATOM      5  C   UNL     1       3.352  -1.634  -1.121  0.00  0.00    -0.076 C 
ATOM      6  C   UNL     1       0.058  -0.201   0.234  0.00  0.00    +0.247 C 
ATOM      7  O   UNL     1      -0.849  -1.002   0.317  0.00  0.00    -0.273 OA
ATOM      8  N   UNL     1      -0.041   1.144   0.188  0.00  0.00    -0.218 N 
ATOM      9  C   UNL     1       1.162   1.724   0.095  0.00  0.00    +0.312 C 
ATOM     10  O   UNL     1       1.330   2.926   0.039  0.00  0.00    -0.252 OA
ATOM     11  N   UNL     1       2.165   0.825   0.071  0.00  0.00    -0.271 N 
ATOM     12  N   UNL     1       3.715  -2.383   0.102  0.00  0.00    +0.382 N 
ATOM     13  H   UNL     1       3.122  -3.218   0.169  0.00  0.00    -0.081 HD
ENDROOT
BRANCH  12  14
ATOM     14  C   UNL     1       5.129  -2.803   0.035  0.00  0.00    -0.043 C 
BRANCH  14  19
ATOM     15  C   UNL     1       5.727  -4.373  -3.354  0.00  0.00    -0.017 A 
ATOM     16  C   UNL     1       5.552  -5.725  -3.063  0.00  0.00    +0.008 A 
ATOM     17  C   UNL     1       5.242  -6.117  -1.777  0.00  0.00    +0.001 A 
ATOM     18  C   UNL     1       5.111  -5.171  -0.776  0.00  0.00    +0.002 A 
ATOM     19  C   UNL     1       5.279  -3.828  -1.060  0.00  0.00    -0.063 A 
ATOM     20  C   UNL     1       5.589  -3.425  -2.344  0.00  0.00    +0.010 A 
BRANCH  15  27
ATOM     21  C   UNL     1       7.907  -5.649  -4.764  0.00  0.00    +0.044 C 
ATOM     22  C   UNL     1       7.108  -4.555  -5.423  0.00  0.00    -0.043 A 
ATOM     23  C   UNL     1       7.411  -4.156  -6.709  0.00  0.00    +0.004 A 
ATOM     24  C   UNL     1       6.681  -3.148  -7.313  0.00  0.00    +0.000 A 
ATOM     25  C   UNL     1       5.643  -2.537  -6.634  0.00  0.00    +0.001 A 
ATOM     26  C   UNL     1       5.329  -2.930  -5.349  0.00  0.00    +0.009 A 
ATOM     27  C   UNL     1       6.060  -3.946  -4.736  0.00  0.00    -0.015 A 
ENDBRANCH  15  27
ENDBRANCH  14  19
ENDBRANCH  12  14
BRANCH  11  28
ATOM     28  C   UNL     1       3.598   1.112  -0.025  0.00  0.00    +0.113 C 
BRANCH  28  29
ATOM     29  C   UNL     1       4.023   1.987   1.156  0.00  0.00    +0.000 C 
ATOM     30  C   UNL     1       3.846   1.206   2.459  0.00  0.00    +0.009 C 
ATOM     31  C   UNL     1       5.492   2.384   0.994  0.00  0.00    +0.009 C 
ENDBRANCH  28  29
ENDBRANCH  11  28
BRANCH   8  32
ATOM     32  C   UNL     1      -1.308   1.878   0.229  0.00  0.00    +0.173 C 
BRANCH  32  33
ATOM     33  C   UNL     1      -1.666   2.183   1.661  0.00  0.00    +0.059 A 
ATOM     34  C   UNL     1      -1.318   3.405   2.207  0.00  0.00    +0.025 A 
ATOM     35  C   UNL     1      -1.652   3.676   3.524  0.00  0.00    +0.003 A 
ATOM     36  C   UNL     1      -2.327   2.704   4.248  0.00  0.00    +0.020 A 
ATOM     37  C   UNL     1      -2.641   1.506   3.635  0.00  0.00    +0.111 A 
ATOM     38  N   UNL     1      -2.312   1.284   2.377  0.00  0.00    -0.258 NA
ENDBRANCH  32  33
ENDBRANCH   8  32
TORSDOF 7
