REMARK  Name = ZINC45681757
REMARK  11 active torsions:
REMARK  status: ('A' for Active; 'I' for Inactive)
REMARK    1  A    between atoms: C_1  and  C_2
REMARK    2  A    between atoms: C_2  and  C_4
REMARK    3  A    between atoms: C_2  and  N_15
REMARK    4  A    between atoms: N_6  and  C_7
REMARK    5  A    between atoms: N_11  and  C_12
REMARK    6  A    between atoms: C_12  and  C_13
REMARK    7  A    between atoms: C_12  and  C_14
REMARK    8  A    between atoms: N_18  and  C_21
REMARK    9  A    between atoms: C_21  and  C_23
REMARK   10  A    between atoms: C_21  and  C_24
REMARK   11  A    between atoms: N_26  and  C_27
REMARK                            x       y       z     vdW  Elec       q    Type
REMARK                         _______ _______ _______ _____ _____    ______ ____
ROOT
ATOM      1  N   UNL     1       0.947  -1.970   1.274  0.00  0.00    -0.295 NA
ATOM      2  C   UNL     1       0.264  -0.990   2.130  0.00  0.00    +0.066 C 
ATOM      3  C   UNL     1       0.885  -1.017   3.528  0.00  0.00    -0.062 C 
ATOM      4  N   UNL     1       2.316  -0.697   3.434  0.00  0.00    +0.389 N 
ATOM      5  C   UNL     1       2.989  -1.698   2.596  0.00  0.00    -0.062 C 
ATOM      6  C   UNL     1       2.385  -1.677   1.190  0.00  0.00    +0.066 C 
ATOM      7  H   UNL     1       2.430   0.217   3.022  0.00  0.00    -0.081 HD
ENDROOT
BRANCH   1   9
ATOM      8  C   UNL     1       0.416  -0.627  -0.704  0.00  0.00    +0.034 C 
ATOM      9  C   UNL     1       0.341  -2.014  -0.064  0.00  0.00    +0.140 C 
BRANCH   9  10
ATOM     10  C   UNL     1      -1.101  -2.436   0.053  0.00  0.00    +0.235 C 
ATOM     11  O   UNL     1      -1.577  -2.676   1.142  0.00  0.00    -0.274 OA
ATOM     12  N   UNL     1      -1.862  -2.547  -1.054  0.00  0.00    -0.269 N 
ATOM     13  H   UNL     1      -1.482  -2.355  -1.925  0.00  0.00    +0.156 HD
BRANCH  12  14
ATOM     14  C   UNL     1      -3.197  -2.938  -0.947  0.00  0.00    +0.123 A 
ATOM     15  C   UNL     1      -3.859  -3.231   0.206  0.00  0.00    +0.065 A 
ATOM     16  C   UNL     1      -5.171  -3.574  -0.129  0.00  0.00    +0.136 A 
ATOM     17  N   UNL     1      -5.298  -3.493  -1.429  0.00  0.00    -0.178 NA
ATOM     18  N   UNL     1      -4.070  -3.089  -1.968  0.00  0.00    -0.248 N 
BRANCH  18  19
ATOM     19  C   UNL     1      -3.782  -2.871  -3.388  0.00  0.00    +0.103 C 
ATOM     20  C   UNL     1      -4.021  -4.170  -4.162  0.00  0.00    +0.032 C 
ATOM     21  C   UNL     1      -4.701  -1.777  -3.933  0.00  0.00    +0.032 C 
ENDBRANCH  18  19
ENDBRANCH  12  14
ENDBRANCH   9  10
ENDBRANCH   1   9
BRANCH   4  22
ATOM     22  C   UNL     1       2.908  -0.705   4.778  0.00  0.00    +0.016 C 
ATOM     23  C   UNL     1       2.210   0.341   5.649  0.00  0.00    -0.004 C 
BRANCH  22  24
ATOM     24  C   UNL     1       4.377  -0.380   4.682  0.00  0.00    +0.199 C 
ATOM     25  O   UNL     1       4.786   0.316   3.777  0.00  0.00    -0.278 OA
ATOM     26  N   UNL     1       5.235  -0.863   5.602  0.00  0.00    -0.314 N 
ATOM     27  H   UNL     1       4.908  -1.419   6.326  0.00  0.00    +0.149 HD
BRANCH  26  28
ATOM     28  C   UNL     1       6.663  -0.546   5.508  0.00  0.00    +0.073 C 
ATOM     29  C   UNL     1       7.656  -1.685   5.748  0.00  0.00    +0.024 C 
ATOM     30  C   UNL     1       7.482  -0.588   6.800  0.00  0.00    +0.024 C 
ENDBRANCH  26  28
ENDBRANCH  22  24
ENDBRANCH   4  22
TORSDOF 7
