REMARK  Name = ZINC63140555
REMARK  4 active torsions:
REMARK  status: ('A' for Active; 'I' for Inactive)
REMARK    1  A    between atoms: C_1  and  C_2
REMARK    2  A    between atoms: C_7  and  C_8
REMARK    3  A    between atoms: N_27  and  C_30
REMARK    4  A    between atoms: C_30  and  C_31
REMARK                            x       y       z     vdW  Elec       q    Type
REMARK                         _______ _______ _______ _____ _____    ______ ____
ROOT
ATOM      1  C   UNL     1       0.243   0.052   2.490  0.00  0.00    +0.134 C 
ATOM      2  C   UNL     1      -1.159   0.306   3.044  0.00  0.00    +0.131 C 
ATOM      3  C   UNL     1      -1.631  -1.031   3.612  0.00  0.00    -0.034 C 
ATOM      4  C   UNL     1      -2.719  -1.371   2.935  0.00  0.00    -0.001 A 
ATOM      5  C   UNL     1      -3.622  -2.528   3.049  0.00  0.00    +0.010 A 
ATOM      6  C   UNL     1      -4.662  -2.566   2.175  0.00  0.00    +0.001 A 
ATOM      7  C   UNL     1      -4.892  -1.579   1.210  0.00  0.00    +0.002 A 
ATOM      8  C   UNL     1      -4.114  -0.481   1.036  0.00  0.00    +0.026 A 
ATOM      9  C   UNL     1      -2.989  -0.329   1.898  0.00  0.00    +0.043 A 
ATOM     10  N   UNL     1      -2.090   0.633   1.957  0.00  0.00    -0.375 N 
ATOM     11  C   UNL     1      -0.874  -1.720   4.713  0.00  0.00    +0.065 C 
ATOM     12  C   UNL     1       0.608  -1.605   4.465  0.00  0.00    +0.167 C 
ATOM     13  N   UNL     1       1.059  -0.723   3.413  0.00  0.00    -0.279 N 
ATOM     14  C   UNL     1       2.421  -0.657   3.246  0.00  0.00    +0.234 C 
ATOM     15  O   UNL     1       2.927   0.098   2.442  0.00  0.00    -0.274 OA
ATOM     16  C   UNL     1       3.262  -1.570   4.114  0.00  0.00    +0.204 C 
ATOM     17  N   UNL     1       2.635  -2.905   4.132  0.00  0.00    -0.287 N 
ATOM     18  C   UNL     1       1.289  -2.944   4.331  0.00  0.00    +0.237 C 
ATOM     19  O   UNL     1       0.678  -3.990   4.397  0.00  0.00    -0.274 OA
ATOM     20  H   UNL     1      -2.042   1.417   1.388  0.00  0.00    +0.160 HD
ENDROOT
BRANCH   1  27
ATOM     21  C   UNL     1      -0.001   1.503   0.003  0.00  0.00    +0.044 C 
ATOM     22  C   UNL     1       0.011  -0.004  -0.001  0.00  0.00    -0.045 A 
ATOM     23  C   UNL     1      -0.090  -0.692  -1.196  0.00  0.00    +0.004 A 
ATOM     24  C   UNL     1      -0.080  -2.074  -1.200  0.00  0.00    +0.000 A 
ATOM     25  C   UNL     1       0.032  -2.769  -0.010  0.00  0.00    +0.000 A 
ATOM     26  C   UNL     1       0.133  -2.080   1.185  0.00  0.00    +0.006 A 
ATOM     27  C   UNL     1       0.127  -0.698   1.188  0.00  0.00    -0.022 A 
ENDBRANCH   1  27
BRANCH  17  28
ATOM     28  C   UNL     1       3.422  -4.126   3.945  0.00  0.00    +0.143 C 
BRANCH  28  29
ATOM     29  C   UNL     1       3.902  -4.625   5.284  0.00  0.00    -0.026 A 
ATOM     30  C   UNL     1       5.114  -4.190   5.787  0.00  0.00    +0.009 A 
ATOM     31  C   UNL     1       5.558  -4.644   7.015  0.00  0.00    +0.050 A 
ATOM     32  C   UNL     1       4.789  -5.537   7.744  0.00  0.00    +0.166 A 
ATOM     33  C   UNL     1       3.568  -5.974   7.237  0.00  0.00    +0.167 A 
ATOM     34  C   UNL     1       3.127  -5.511   6.008  0.00  0.00    +0.054 A 
ATOM     35  O   UNL     1       3.009  -6.839   8.132  0.00  0.00    -0.453 OA
ATOM     36  C   UNL     1       4.083  -7.242   9.001  0.00  0.00    +0.466 C 
ATOM     37  O   UNL     1       4.994  -6.127   8.957  0.00  0.00    -0.453 OA
ENDBRANCH  28  29
ENDBRANCH  17  28
TORSDOF 3
