REMARK  Name = ZINC09300566
REMARK  10 active torsions:
REMARK  status: ('A' for Active; 'I' for Inactive)
REMARK    1  A    between atoms: C_1  and  C_2
REMARK    2  A    between atoms: C_6  and  C_8
REMARK    3  A    between atoms: N_10  and  C_11
REMARK    4  A    between atoms: C_11  and  C_12
REMARK    5  A    between atoms: C_12  and  C_13
REMARK    6  A    between atoms: N_15  and  C_16
REMARK    7  A    between atoms: C_19  and  C_23
REMARK    8  A    between atoms: C_21  and  C_22
REMARK    9  A    between atoms: C_23  and  C_25
REMARK   10  A    between atoms: C_23  and  C_27
REMARK                            x       y       z     vdW  Elec       q    Type
REMARK                         _______ _______ _______ _____ _____    ______ ____
ROOT
ATOM      1  C   UNL     1       5.800   2.236   0.344  0.00  0.00    +0.038 A 
ATOM      2  C   UNL     1       5.984   3.611   0.409  0.00  0.00    +0.044 A 
ATOM      3  C   UNL     1       7.230   4.153   0.159  0.00  0.00    +0.047 A 
ATOM      4  C   UNL     1       8.292   3.327  -0.167  0.00  0.00    -0.008 A 
ATOM      5  C   UNL     1       8.110   1.959  -0.238  0.00  0.00    +0.011 A 
ATOM      6  C   UNL     1       6.868   1.411   0.016  0.00  0.00    -0.029 A 
ATOM      7  C   UNL     1       6.671  -0.081  -0.061  0.00  0.00    +0.045 C 
ATOM      8 CL   UNL     1       7.463   5.871   0.247  0.00  0.00    -0.083 Cl
ENDROOT
BRANCH   1  11
ATOM      9  C   UNL     1       3.656   2.353   1.368  0.00  0.00    +0.219 C 
ATOM     10  O   UNL     1       3.984   3.386   1.911  0.00  0.00    -0.275 OA
ATOM     11  N   UNL     1       4.541   1.684   0.602  0.00  0.00    -0.285 N 
ATOM     12  H   UNL     1       4.304   0.820   0.230  0.00  0.00    +0.155 HD
BRANCH   9  13
ATOM     13  C   UNL     1       2.259   1.817   1.549  0.00  0.00    +0.115 C 
BRANCH  13  14
ATOM     14  C   UNL     1       1.465   2.758   2.456  0.00  0.00    +0.113 C 
BRANCH  14  17
ATOM     15  C   UNL     1      -0.779   2.908   3.394  0.00  0.00    +0.244 C 
ATOM     16  O   UNL     1      -0.451   3.944   3.938  0.00  0.00    -0.270 OA
ATOM     17  N   UNL     1       0.107   2.236   2.632  0.00  0.00    -0.311 N 
ATOM     18  H   UNL     1      -0.155   1.410   2.197  0.00  0.00    +0.149 HD
BRANCH  15  24
ATOM     19  C   UNL     1      -5.346   3.332   5.361  0.00  0.00    +0.044 C 
ATOM     20  C   UNL     1      -4.351   2.585   4.511  0.00  0.00    -0.050 A 
ATOM     21  C   UNL     1      -4.721   1.406   3.888  0.00  0.00    +0.003 A 
ATOM     22  C   UNL     1      -3.814   0.714   3.106  0.00  0.00    +0.001 A 
ATOM     23  C   UNL     1      -2.533   1.199   2.937  0.00  0.00    +0.013 A 
ATOM     24  C   UNL     1      -2.151   2.385   3.566  0.00  0.00    +0.037 A 
ATOM     25  C   UNL     1      -3.072   3.078   4.354  0.00  0.00    +0.016 A 
ENDBRANCH  15  24
ENDBRANCH  14  17
ENDBRANCH  13  14
ENDBRANCH   9  13
ENDBRANCH   1  11
BRANCH   4  26
ATOM     26  C   UNL     1       9.649   3.921  -0.446  0.00  0.00    +0.153 C 
BRANCH  26  27
ATOM     27  C   UNL     1      10.613   3.499   0.633  0.00  0.00    -0.026 A 
ATOM     28  C   UNL     1      10.977   2.171   0.753  0.00  0.00    +0.006 A 
ATOM     29  C   UNL     1      11.866   1.784   1.738  0.00  0.00    +0.020 A 
ATOM     30  C   UNL     1      12.382   2.725   2.612  0.00  0.00    +0.041 A 
ATOM     31  C   UNL     1      12.012   4.053   2.495  0.00  0.00    +0.020 A 
ATOM     32  C   UNL     1      11.128   4.439   1.505  0.00  0.00    +0.006 A 
ATOM     33 CL   UNL     1      13.493   2.239   3.854  0.00  0.00    -0.084 Cl
ENDBRANCH  26  27
BRANCH  26  34
ATOM     34  C   UNL     1      10.134   3.445  -1.752  0.00  0.00    +0.075 C 
ATOM     35  N   UNL     1      10.508   3.077  -2.759  0.00  0.00    -0.196 NA
ENDBRANCH  26  34
ENDBRANCH   4  26
TORSDOF 8
