REMARK  Name = ZINC40152852
REMARK  7 active torsions:
REMARK  status: ('A' for Active; 'I' for Inactive)
REMARK    1  A    between atoms: C_5  and  N_7
REMARK    2  A    between atoms: C_8  and  C_10
REMARK    3  A    between atoms: C_10  and  N_11
REMARK    4  A    between atoms: N_11  and  C_12
REMARK    5  A    between atoms: N_11  and  C_20
REMARK    6  A    between atoms: C_12  and  C_13
REMARK    7  A    between atoms: C_20  and  C_21
REMARK                            x       y       z     vdW  Elec       q    Type
REMARK                         _______ _______ _______ _____ _____    ______ ____
ROOT
ATOM      1  N   UNL     1      -1.308  -4.611  -0.059  0.00  0.00    +0.394 N 
ATOM      2  H   UNL     1      -1.873  -4.297  -0.834  0.00  0.00    -0.080 HD
ENDROOT
BRANCH   1   3
ATOM      3  C   UNL     1       0.013  -3.970  -0.126  0.00  0.00    +0.020 C 
BRANCH   3   5
ATOM      4  N   UNL     1       1.910  -3.871  -1.710  0.00  0.00    -0.286 N 
ATOM      5  C   UNL     1       0.638  -4.248  -1.468  0.00  0.00    +0.201 C 
ATOM      6  O   UNL     1      -0.002  -4.811  -2.331  0.00  0.00    -0.278 OA
ATOM      7  H   UNL     1       2.446  -3.488  -0.999  0.00  0.00    +0.155 HD
BRANCH   4  12
ATOM      8  C   UNL     1       2.511  -5.179  -5.094  0.00  0.00    +0.002 A 
ATOM      9  C   UNL     1       3.537  -4.354  -5.516  0.00  0.00    +0.001 A 
ATOM     10  C   UNL     1       4.025  -3.369  -4.678  0.00  0.00    +0.017 A 
ATOM     11  C   UNL     1       3.488  -3.206  -3.415  0.00  0.00    +0.039 A 
ATOM     12  C   UNL     1       2.456  -4.033  -2.989  0.00  0.00    +0.047 A 
ATOM     13  C   UNL     1       1.969  -5.022  -3.834  0.00  0.00    +0.024 A 
ATOM     14 BR   UNL     1       4.156  -1.859  -2.268  0.00  0.00    -0.048 Br
ENDBRANCH   4  12
ENDBRANCH   3   5
ENDBRANCH   1   3
BRANCH   1  15
ATOM     15  C   UNL     1      -1.149  -6.069  -0.127  0.00  0.00    -0.042 C 
BRANCH  15  16
ATOM     16  C   UNL     1      -2.507  -6.721  -0.182  0.00  0.00    -0.064 A 
ATOM     17  C   UNL     1      -3.153  -7.072   0.989  0.00  0.00    +0.003 A 
ATOM     18  C   UNL     1      -4.398  -7.669   0.938  0.00  0.00    +0.015 A 
ATOM     19  C   UNL     1      -4.998  -7.915  -0.283  0.00  0.00    +0.018 A 
ATOM     20  C   UNL     1      -4.352  -7.563  -1.454  0.00  0.00    +0.015 A 
ATOM     21  C   UNL     1      -3.108  -6.961  -1.403  0.00  0.00    +0.003 A 
ATOM     22 BR   UNL     1      -6.702  -8.732  -0.353  0.00  0.00    -0.050 Br
ENDBRANCH  15  16
ENDBRANCH   1  15
BRANCH   1  23
ATOM     23  C   UNL     1      -1.964  -4.248   1.204  0.00  0.00    +0.019 C 
BRANCH  23  24
ATOM     24  C   UNL     1      -2.225  -2.764   1.227  0.00  0.00    +0.194 C 
ATOM     25  O   UNL     1      -1.993  -2.092   0.244  0.00  0.00    -0.278 OA
ATOM     26  N   UNL     1      -2.715  -2.182   2.339  0.00  0.00    -0.331 N 
ATOM     27  H   UNL     1      -2.901  -2.719   3.126  0.00  0.00    +0.145 HD
ATOM     28  H   UNL     1      -2.883  -1.227   2.354  0.00  0.00    +0.145 HD
ENDBRANCH  23  24
ENDBRANCH   1  23
TORSDOF 7
