REMARK  Name = ZINC16464454
REMARK  7 active torsions:
REMARK  status: ('A' for Active; 'I' for Inactive)
REMARK    1  A    between atoms: C_3  and  C_6
REMARK    2  A    between atoms: C_9  and  S_18
REMARK    3  A    between atoms: N_10  and  C_11
REMARK    4  A    between atoms: S_18  and  C_19
REMARK    5  A    between atoms: C_19  and  C_20
REMARK    6  A    between atoms: C_22  and  C_25
REMARK    7  A    between atoms: N_27  and  C_28
REMARK                            x       y       z     vdW  Elec       q    Type
REMARK                         _______ _______ _______ _____ _____    ______ ____
ROOT
ATOM      1  S   UNL     1      -0.367  -7.446  -2.078  0.00  0.00    -0.079 S 
ENDROOT
BRANCH   1   5
ATOM      2  C   UNL     1      -3.339  -9.990  -2.086  0.00  0.00    +0.205 A 
ATOM      3  N   UNL     1      -3.038  -9.895  -0.809  0.00  0.00    -0.125 NA
ATOM      4  N   UNL     1      -2.060  -9.078  -0.647  0.00  0.00    -0.122 NA
ATOM      5  C   UNL     1      -1.672  -8.599  -1.807  0.00  0.00    +0.197 A 
ATOM      6  N   UNL     1      -2.474  -9.157  -2.766  0.00  0.00    -0.268 N 
BRANCH   6   7
ATOM      7  C   UNL     1      -2.426  -8.931  -4.149  0.00  0.00    +0.051 A 
ATOM      8  C   UNL     1      -3.495  -8.322  -4.792  0.00  0.00    +0.028 A 
ATOM      9  C   UNL     1      -3.443  -8.096  -6.153  0.00  0.00    +0.022 A 
ATOM     10  C   UNL     1      -2.331  -8.486  -6.878  0.00  0.00    +0.041 A 
ATOM     11  C   UNL     1      -1.266  -9.098  -6.240  0.00  0.00    +0.022 A 
ATOM     12  C   UNL     1      -1.311  -9.321  -4.878  0.00  0.00    +0.028 A 
ATOM     13 CL   UNL     1      -2.271  -8.207  -8.591  0.00  0.00    -0.084 Cl
ENDBRANCH   6   7
BRANCH   2  16
ATOM     14  C   UNL     1      -6.194 -12.103  -2.954  0.00  0.00    +0.042 A 
ATOM     15  C   UNL     1      -5.422 -11.413  -2.000  0.00  0.00    +0.053 A 
ATOM     16  C   UNL     1      -4.398 -10.821  -2.677  0.00  0.00    +0.172 A 
ATOM     17  O   UNL     1      -4.523 -11.136  -3.982  0.00  0.00    -0.460 OA
ATOM     18  C   UNL     1      -5.607 -11.910  -4.152  0.00  0.00    +0.196 A 
ENDBRANCH   2  16
ENDBRANCH   1   5
BRANCH   1  19
ATOM     19  C   UNL     1       0.185  -7.191  -0.373  0.00  0.00    +0.140 C 
BRANCH  19  20
ATOM     20  C   UNL     1       1.331  -6.211  -0.357  0.00  0.00    +0.089 A 
ATOM     21  N   UNL     1       1.290  -4.909  -0.245  0.00  0.00    -0.239 NA
ATOM     22  C   UNL     1       2.421  -4.204  -0.255  0.00  0.00    +0.133 A 
ATOM     23  C   UNL     1       3.599  -4.896  -0.375  0.00  0.00    +0.080 A 
ATOM     24  S   UNL     1       3.030  -6.532  -0.475  0.00  0.00    -0.079 S 
BRANCH  22  25
ATOM     25  C   UNL     1       2.408  -2.736  -0.137  0.00  0.00    +0.267 C 
ATOM     26  O   UNL     1       3.454  -2.115  -0.144  0.00  0.00    -0.268 OA
ATOM     27  N   UNL     1       1.236  -2.080  -0.021  0.00  0.00    -0.280 N 
ATOM     28  H   UNL     1       0.407  -2.579   0.062  0.00  0.00    +0.155 HD
BRANCH  27  29
ATOM     29  C   UNL     1       1.214  -0.681  -0.019  0.00  0.00    +0.034 A 
ATOM     30  C   UNL     1       2.137   0.030  -0.775  0.00  0.00    +0.026 A 
ATOM     31  C   UNL     1       2.113   1.411  -0.773  0.00  0.00    +0.040 A 
ATOM     32  C   UNL     1       1.170   2.087  -0.017  0.00  0.00    +0.124 A 
ATOM     33  C   UNL     1       0.249   1.380   0.738  0.00  0.00    +0.040 A 
ATOM     34  C   UNL     1       0.269  -0.001   0.738  0.00  0.00    +0.026 A 
ATOM     35  F   UNL     1       1.149   3.437  -0.016  0.00  0.00    -0.205 F 
ENDBRANCH  27  29
ENDBRANCH  22  25
ENDBRANCH  19  20
ENDBRANCH   1  19
TORSDOF 7
