REMARK  Name = ZINC39192593
REMARK  11 active torsions:
REMARK  status: ('A' for Active; 'I' for Inactive)
REMARK    1  A    between atoms: C_1  and  C_2
REMARK    2  A    between atoms: C_2  and  C_3
REMARK    3  A    between atoms: C_2  and  C_4
REMARK    4  A    between atoms: C_4  and  C_6
REMARK    5  A    between atoms: C_4  and  N_25
REMARK    6  A    between atoms: C_6  and  O_8
REMARK    7  A    between atoms: O_8  and  C_9
REMARK    8  A    between atoms: C_9  and  C_10
REMARK    9  A    between atoms: C_12  and  O_13
REMARK   10  A    between atoms: C_22  and  C_24
REMARK   11  A    between atoms: C_26  and  C_28
REMARK                            x       y       z     vdW  Elec       q    Type
REMARK                         _______ _______ _______ _____ _____    ______ ____
ROOT
ATOM      1  C   UNL     1      -0.710  -3.626   1.266  0.00  0.00    +0.268 C 
ENDROOT
BRANCH   1   2
ATOM      2  C   UNL     1      -0.487  -4.487   2.483  0.00  0.00    +0.007 A 
ATOM      3  C   UNL     1      -1.346  -4.421   3.561  0.00  0.00    +0.095 A 
ATOM      4  C   UNL     1      -1.125  -5.221   4.673  0.00  0.00    +0.285 A 
ATOM      5  O   UNL     1      -0.089  -6.066   4.727  0.00  0.00    -0.425 OA
ATOM      6  C   UNL     1       0.781  -6.171   3.701  0.00  0.00    +0.141 A 
ATOM      7  C   UNL     1       0.601  -5.383   2.542  0.00  0.00    +0.024 A 
ATOM      8  C   UNL     1       1.503  -5.494   1.469  0.00  0.00    +0.014 A 
ATOM      9  C   UNL     1       2.545  -6.362   1.545  0.00  0.00    +0.024 A 
ATOM     10  C   UNL     1       2.728  -7.154   2.692  0.00  0.00    +0.037 A 
ATOM     11  C   UNL     1       1.848  -7.048   3.770  0.00  0.00    +0.070 A 
ATOM     12  N   UNL     1       3.776  -8.021   2.756  0.00  0.00    -0.286 N 
ATOM     13  C   UNL     1       3.792  -8.970   3.671  0.00  0.00    +0.214 C 
ATOM     14  O   UNL     1       2.814  -9.155   4.374  0.00  0.00    -0.276 OA
ATOM     15  C   UNL     1       5.020  -9.825   3.849  0.00  0.00    +0.109 C 
ATOM     16  H   UNL     1       4.511  -7.941   2.128  0.00  0.00    +0.155 HD
BRANCH   4  17
ATOM     17  O   UNL     1      -1.970  -5.147   5.718  0.00  0.00    -0.480 OA
ATOM     18  H   UNL     1      -1.744  -5.737   6.450  0.00  0.00    +0.295 HD
ENDBRANCH   4  17
ENDBRANCH   1   2
BRANCH   1  19
ATOM     19  O   UNL     1      -0.575  -2.249   1.626  0.00  0.00    -0.459 OA
BRANCH  19  20
ATOM     20  C   UNL     1      -0.845  -1.342   0.675  0.00  0.00    +0.328 C 
ATOM     21  O   UNL     1      -1.096  -1.702  -0.451  0.00  0.00    -0.249 OA
BRANCH  20  22
ATOM     22  C   UNL     1      -0.836   0.127   1.011  0.00  0.00    +0.185 C 
BRANCH  22  23
ATOM     23  N   UNL     1      -1.379   0.889  -0.116  0.00  0.00    -0.296 N 
ATOM     24  C   UNL     1      -1.937   2.098   0.094  0.00  0.00    +0.280 C 
ATOM     25  O   UNL     1      -1.990   2.557   1.220  0.00  0.00    -0.267 OA
ATOM     26  H   UNL     1      -1.338   0.524  -1.014  0.00  0.00    +0.150 HD
BRANCH  24  27
ATOM     27  C   UNL     1      -2.481   2.861  -1.034  0.00  0.00    +0.189 A 
ATOM     28  C   UNL     1      -3.065   4.093  -0.963  0.00  0.00    +0.054 A 
ATOM     29  C   UNL     1      -3.435   4.441  -2.271  0.00  0.00    +0.042 A 
ATOM     30  C   UNL     1      -3.065   3.419  -3.074  0.00  0.00    +0.196 A 
ATOM     31  O   UNL     1      -2.486   2.471  -2.326  0.00  0.00    -0.458 OA
ENDBRANCH  24  27
ENDBRANCH  22  23
BRANCH  22  33
ATOM     32  C   UNL     1       0.599   2.049   1.711  0.00  0.00    +0.009 C 
ATOM     33  C   UNL     1       0.599   0.579   1.287  0.00  0.00    +0.014 C 
ATOM     34  C   UNL     1       1.195  -0.275   2.408  0.00  0.00    +0.009 C 
ENDBRANCH  22  33
ENDBRANCH  20  22
ENDBRANCH  19  20
ENDBRANCH   1  19
TORSDOF 8
