REMARK  Name = ZINC59020952
REMARK  7 active torsions:
REMARK  status: ('A' for Active; 'I' for Inactive)
REMARK    1  A    between atoms: C_1  and  C_2
REMARK    2  A    between atoms: C_2  and  C_23
REMARK    3  A    between atoms: N_3  and  N_4
REMARK    4  A    between atoms: C_7  and  S_10
REMARK    5  A    between atoms: S_10  and  C_11
REMARK    6  A    between atoms: C_11  and  C_12
REMARK    7  A    between atoms: N_14  and  C_15
REMARK                            x       y       z     vdW  Elec       q    Type
REMARK                         _______ _______ _______ _____ _____    ______ ____
ROOT
ATOM      1  N   UNL     1      -1.525   0.149   0.697  0.00  0.00    -0.205 N 
ATOM      2  C   UNL     1      -2.010  -0.002   1.983  0.00  0.00    +0.232 A 
ATOM      3  N   UNL     1      -2.004   0.917   2.926  0.00  0.00    -0.186 NA
ATOM      4  C   UNL     1      -2.553   0.423   4.040  0.00  0.00    +0.211 A 
ATOM      5  N   UNL     1      -2.917  -0.819   3.821  0.00  0.00    -0.144 NA
ATOM      6  N   UNL     1      -2.580  -1.115   2.491  0.00  0.00    -0.245 N 
ATOM      7  H   UNL     1      -1.579  -0.588   0.069  0.00  0.00    +0.177 HD
ATOM      8  H   UNL     1      -2.726  -1.955   2.028  0.00  0.00    +0.192 HD
ENDROOT
BRANCH   1  11
ATOM      9  C   UNL     1       0.180   2.777  -1.321  0.00  0.00    +0.068 C 
ATOM     10  C   UNL     1      -0.592   1.543  -0.932  0.00  0.00    +0.063 C 
ATOM     11  N   UNL     1      -0.957   1.367   0.301  0.00  0.00    -0.184 NA
BRANCH  10  12
ATOM     12  C   UNL     1      -0.934   0.535  -1.953  0.00  0.00    -0.002 A 
ATOM     13  C   UNL     1      -2.147  -0.153  -1.880  0.00  0.00    +0.011 A 
ATOM     14  C   UNL     1      -2.461  -1.095  -2.838  0.00  0.00    +0.016 A 
ATOM     15  C   UNL     1      -1.576  -1.358  -3.870  0.00  0.00    +0.018 A 
ATOM     16  C   UNL     1      -0.371  -0.679  -3.948  0.00  0.00    +0.016 A 
ATOM     17  C   UNL     1      -0.048   0.268  -2.999  0.00  0.00    +0.011 A 
ATOM     18 BR   UNL     1      -2.014  -2.651  -5.179  0.00  0.00    -0.050 Br
ENDBRANCH  10  12
ENDBRANCH   1  11
BRANCH   4  19
ATOM     19  S   UNL     1      -2.754   1.296   5.557  0.00  0.00    -0.075 S 
BRANCH  19  20
ATOM     20  C   UNL     1      -3.549   0.091   6.656  0.00  0.00    +0.173 C 
BRANCH  20  21
ATOM     21  C   UNL     1      -3.781   0.719   8.006  0.00  0.00    +0.228 C 
ATOM     22  O   UNL     1      -3.444   1.866   8.207  0.00  0.00    -0.275 OA
ATOM     23  N   UNL     1      -4.363   0.005   8.990  0.00  0.00    -0.284 N 
ATOM     24  H   UNL     1      -4.682  -0.894   8.813  0.00  0.00    +0.155 HD
BRANCH  23  25
ATOM     25  C   UNL     1      -4.508   0.560  10.267  0.00  0.00    +0.052 A 
ATOM     26  C   UNL     1      -4.605   1.937  10.419  0.00  0.00    +0.026 A 
ATOM     27  C   UNL     1      -4.747   2.483  11.680  0.00  0.00    +0.022 A 
ATOM     28  C   UNL     1      -4.792   1.659  12.791  0.00  0.00    +0.042 A 
ATOM     29  C   UNL     1      -4.696   0.287  12.643  0.00  0.00    +0.041 A 
ATOM     30  C   UNL     1      -4.560  -0.265  11.383  0.00  0.00    +0.064 A 
ATOM     31 CL   UNL     1      -4.446  -1.987  11.197  0.00  0.00    -0.082 Cl
ATOM     32 CL   UNL     1      -4.970   2.349  14.374  0.00  0.00    -0.083 Cl
ENDBRANCH  23  25
ENDBRANCH  20  21
ENDBRANCH  19  20
ENDBRANCH   4  19
TORSDOF 6
