REMARK  Name = ZINC26780025
REMARK  5 active torsions:
REMARK  status: ('A' for Active; 'I' for Inactive)
REMARK    1  A    between atoms: C_3  and  S_21
REMARK    2  A    between atoms: C_6  and  N_7
REMARK    3  A    between atoms: N_10  and  C_11
REMARK    4  A    between atoms: C_14  and  N_18
REMARK    5  A    between atoms: S_21  and  N_24
REMARK                            x       y       z     vdW  Elec       q    Type
REMARK                         _______ _______ _______ _____ _____    ______ ____
ROOT
ATOM      1  N   UNL     1       3.503  -0.889   0.142  0.00  0.00    -0.269 N 
ATOM      2  C   UNL     1       2.527  -0.234  -0.518  0.00  0.00    +0.308 C 
ATOM      3  O   UNL     1       1.627  -0.857  -1.046  0.00  0.00    -0.252 OA
ATOM      4  N   UNL     1       2.550   1.112  -0.593  0.00  0.00    -0.268 N 
ATOM      5  H   UNL     1       4.276  -0.323   0.683  0.00  0.00    +0.156 HD
ATOM      6  H   UNL     1       3.403   1.671  -0.181  0.00  0.00    +0.156 HD
ENDROOT
BRANCH   4   7
ATOM      7  C   UNL     1       1.489   1.797  -1.196  0.00  0.00    +0.053 A 
ATOM      8  C   UNL     1       0.828   1.240  -2.282  0.00  0.00    +0.027 A 
ATOM      9  C   UNL     1      -0.216   1.921  -2.878  0.00  0.00    +0.034 A 
ATOM     10  C   UNL     1      -0.610   3.152  -2.387  0.00  0.00    +0.128 A 
ATOM     11  C   UNL     1       0.045   3.711  -1.305  0.00  0.00    +0.054 A 
ATOM     12  C   UNL     1       1.094   3.037  -0.708  0.00  0.00    +0.064 A 
ATOM     13 CL   UNL     1       1.917   3.739   0.650  0.00  0.00    -0.082 Cl
BRANCH  10  14
ATOM     14  N   UNL     1      -1.732   3.877  -3.025  0.00  0.00    +0.056 N 
ATOM     15  O   UNL     1      -2.077   4.963  -2.597  0.00  0.00    -0.126 OA
ATOM     16  O   UNL     1      -2.310   3.386  -3.978  0.00  0.00    -0.126 OA
ENDBRANCH  10  14
ENDBRANCH   4   7
BRANCH   1  22
ATOM     17  C   UNL     1       2.345  -3.009   0.155  0.00  0.00    +0.025 A 
ATOM     18  C   UNL     1       2.378  -4.389   0.147  0.00  0.00    +0.030 A 
ATOM     19  C   UNL     1       3.590  -5.054   0.134  0.00  0.00    +0.106 A 
ATOM     20  C   UNL     1       4.774  -4.339   0.124  0.00  0.00    +0.030 A 
ATOM     21  C   UNL     1       4.748  -2.958   0.127  0.00  0.00    +0.025 A 
ATOM     22  C   UNL     1       3.532  -2.288   0.140  0.00  0.00    +0.035 A 
BRANCH  19  23
ATOM     23  S   UNL     1       3.627  -6.816   0.131  0.00  0.00    +0.061 S 
ATOM     24  O   UNL     1       2.386  -7.247  -0.410  0.00  0.00    -0.153 OA
ATOM     25  O   UNL     1       4.876  -7.194  -0.432  0.00  0.00    -0.153 OA
BRANCH  23  26
ATOM     26  N   UNL     1       3.652  -7.308   1.712  0.00  0.00    -0.177 NA
ATOM     27  C   UNL     1       4.859  -7.543   2.517  0.00  0.00    +0.109 C 
ATOM     28  C   UNL     1       4.395  -8.010   3.913  0.00  0.00    +0.018 C 
ATOM     29  C   UNL     1       2.972  -8.562   3.637  0.00  0.00    +0.018 C 
ATOM     30  C   UNL     1       2.467  -7.588   2.543  0.00  0.00    +0.109 C 
ENDBRANCH  23  26
ENDBRANCH  19  23
ENDBRANCH   1  22
TORSDOF 5
