REMARK  Name = ZINC35578402
REMARK  6 active torsions:
REMARK  status: ('A' for Active; 'I' for Inactive)
REMARK    1  A    between atoms: C_1  and  C_2
REMARK    2  A    between atoms: C_6  and  N_8
REMARK    3  A    between atoms: C_9  and  N_33
REMARK    4  A    between atoms: C_11  and  C_25
REMARK    5  A    between atoms: N_17  and  C_18
REMARK    6  A    between atoms: C_18  and  C_19
REMARK                            x       y       z     vdW  Elec       q    Type
REMARK                         _______ _______ _______ _____ _____    ______ ____
ROOT
ATOM      1  N   UNL     1      -0.313  -2.636   2.565  0.00  0.00    -0.216 N 
ATOM      2  C   UNL     1      -0.857  -3.853   2.757  0.00  0.00    +0.131 A 
ATOM      3  C   UNL     1      -0.465  -4.292   4.016  0.00  0.00    +0.086 A 
ATOM      4  C   UNL     1      -0.685  -5.448   4.799  0.00  0.00    +0.091 A 
ATOM      5  N   UNL     1      -0.124  -5.510   6.000  0.00  0.00    -0.214 NA
ATOM      6  C   UNL     1       0.631  -4.526   6.479  0.00  0.00    +0.218 A 
ATOM      7  N   UNL     1       0.887  -3.415   5.818  0.00  0.00    -0.193 NA
ATOM      8  C   UNL     1       0.378  -3.225   4.586  0.00  0.00    +0.189 A 
ATOM      9  N   UNL     1       0.442  -2.269   3.685  0.00  0.00    -0.144 NA
ATOM     10  N   UNL     1       1.176  -4.676   7.742  0.00  0.00    -0.311 N 
ATOM     11  H   UNL     1       1.004  -5.482   8.252  0.00  0.00    +0.149 HD
ENDROOT
BRANCH   4  12
ATOM     12  C   UNL     1      -1.521  -6.559   4.293  0.00  0.00    +0.039 A 
ATOM     13  C   UNL     1      -1.182  -7.206   3.104  0.00  0.00    +0.013 A 
ATOM     14  C   UNL     1      -1.963  -8.242   2.637  0.00  0.00    +0.004 A 
ATOM     15  C   UNL     1      -3.083  -8.643   3.344  0.00  0.00    +0.041 A 
ATOM     16  C   UNL     1      -3.428  -8.008   4.524  0.00  0.00    +0.159 A 
ATOM     17  C   UNL     1      -2.648  -6.970   5.008  0.00  0.00    +0.168 A 
ATOM     18  F   UNL     1      -2.981  -6.354   6.163  0.00  0.00    -0.202 F 
ATOM     19  F   UNL     1      -4.523  -8.405   5.209  0.00  0.00    -0.202 F 
ENDBRANCH   4  12
BRANCH   1  25
ATOM     20  C   UNL     1      -0.775   1.795   0.483  0.00  0.00    +0.044 C 
ATOM     21  C   UNL     1      -0.700   0.294   0.376  0.00  0.00    -0.048 A 
ATOM     22  C   UNL     1      -0.791  -0.315  -0.863  0.00  0.00    +0.003 A 
ATOM     23  C   UNL     1      -0.724  -1.692  -0.966  0.00  0.00    +0.002 A 
ATOM     24  C   UNL     1      -0.565  -2.464   0.168  0.00  0.00    +0.028 A 
ATOM     25  C   UNL     1      -0.473  -1.856   1.413  0.00  0.00    +0.068 A 
ATOM     26  C   UNL     1      -0.536  -0.472   1.513  0.00  0.00    +0.031 A 
ENDBRANCH   1  25
BRANCH   2  27
ATOM     27  N   UNL     1      -1.660  -4.540   1.866  0.00  0.00    -0.342 N 
ATOM     28  H   UNL     1      -1.951  -4.111   1.046  0.00  0.00    +0.144 HD
ATOM     29  H   UNL     1      -1.932  -5.450   2.060  0.00  0.00    +0.144 HD
ENDBRANCH   2  27
BRANCH  10  30
ATOM     30  C   UNL     1       2.014  -3.616   8.308  0.00  0.00    +0.136 C 
BRANCH  30  31
ATOM     31  C   UNL     1       2.486  -4.030   9.703  0.00  0.00    +0.135 C 
ATOM     32  C   UNL     1       3.346  -2.906  10.335  0.00  0.00    +0.035 C 
ATOM     33  C   UNL     1       3.159  -3.207  11.848  0.00  0.00    +0.031 C 
ATOM     34  C   UNL     1       1.707  -3.731  11.900  0.00  0.00    +0.160 C 
ATOM     35  O   UNL     1       1.363  -4.186  10.584  0.00  0.00    -0.375 OA
ENDBRANCH  30  31
ENDBRANCH  10  30
TORSDOF 5
