REMARK  Name = ZINC21990071
REMARK  4 active torsions:
REMARK  status: ('A' for Active; 'I' for Inactive)
REMARK    1  A    between atoms: C_1  and  C_2
REMARK    2  A    between atoms: C_2  and  C_3
REMARK    3  A    between atoms: C_2  and  C_4
REMARK    4  A    between atoms: C_2  and  N_5
REMARK                            x       y       z     vdW  Elec       q    Type
REMARK                         _______ _______ _______ _____ _____    ______ ____
ROOT
ATOM      1  N   UNL     1       0.002  -0.004   0.002  0.00  0.00    +0.383 N 
ATOM      2  C   UNL     1      -1.359  -0.548  -0.089  0.00  0.00    -0.077 C 
ATOM      3  C   UNL     1      -1.292  -2.070  -0.241  0.00  0.00    +0.001 C 
ATOM      4  C   UNL     1      -0.563  -2.667   0.965  0.00  0.00    +0.077 C 
ATOM      5  C   UNL     1       0.834  -2.048   1.065  0.00  0.00    +0.001 C 
ATOM      6  C   UNL     1       0.706  -0.527   1.180  0.00  0.00    -0.077 C 
ATOM      7 CL   UNL     1      -0.417  -4.452   0.758  0.00  0.00    -0.122 Cl
ATOM      8  H   UNL     1       0.554  -0.332  -0.891  0.00  0.00    -0.081 HD
ENDROOT
BRANCH   1  10
ATOM      9  C   UNL     1       1.417   1.994  -0.001  0.00  0.00    -0.010 C 
ATOM     10  C   UNL     1      -0.018   1.465   0.010  0.00  0.00    -0.074 C 
ATOM     11  C   UNL     1      -0.758   1.972  -1.229  0.00  0.00    -0.010 C 
ATOM     12  C   UNL     1      -0.734   1.958   1.269  0.00  0.00    -0.010 C 
ENDBRANCH   1  10
TORSDOF 1
