REMARK  Name = ZINC04488668
REMARK  5 active torsions:
REMARK  status: ('A' for Active; 'I' for Inactive)
REMARK    1  A    between atoms: C_1  and  C_2
REMARK    2  A    between atoms: C_10  and  C_20
REMARK    3  A    between atoms: N_12  and  C_13
REMARK    4  A    between atoms: C_13  and  C_14
REMARK    5  A    between atoms: N_22  and  C_23
REMARK                            x       y       z     vdW  Elec       q    Type
REMARK                         _______ _______ _______ _____ _____    ______ ____
ROOT
ATOM      1  C   UNL     1     -10.849  -3.959  -6.401  0.00  0.00    +0.045 C 
ATOM      2  C   UNL     1      -9.684  -3.264  -5.743  0.00  0.00    -0.034 A 
ATOM      3  C   UNL     1      -8.380  -3.490  -6.209  0.00  0.00    +0.008 A 
ATOM      4  C   UNL     1      -7.333  -2.860  -5.610  0.00  0.00    +0.047 A 
ATOM      5  C   UNL     1      -7.570  -1.987  -4.526  0.00  0.00    +0.143 A 
ATOM      6  N   UNL     1      -6.532  -1.384  -3.959  0.00  0.00    -0.212 NA
ATOM      7  C   UNL     1      -6.672  -0.543  -2.929  0.00  0.00    +0.147 A 
ATOM      8  C   UNL     1      -7.976  -0.286  -2.425  0.00  0.00    +0.083 A 
ATOM      9  C   UNL     1      -8.145   0.586  -1.353  0.00  0.00    +0.033 A 
ATOM     10  C   UNL     1      -7.005   1.178  -0.804  0.00  0.00    +0.075 A 
ATOM     11  C   UNL     1      -5.740   0.882  -1.357  0.00  0.00    +0.110 A 
ATOM     12  N   UNL     1      -4.613   1.469  -0.820  0.00  0.00    -0.327 N 
ATOM     13  C   UNL     1      -9.111  -0.957  -3.060  0.00  0.00    +0.268 A 
ATOM     14  O   UNL     1     -10.249  -0.772  -2.669  0.00  0.00    -0.267 OA
ATOM     15  N   UNL     1      -8.855  -1.789  -4.097  0.00  0.00    -0.267 N 
ATOM     16  C   UNL     1      -9.897  -2.426  -4.706  0.00  0.00    +0.099 A 
ATOM     17  H   UNL     1      -4.701   2.139  -0.124  0.00  0.00    +0.148 HD
ATOM     18  N   UNL     1      -5.541   0.036  -2.403  0.00  0.00    -0.327 N 
ATOM     19  H   UNL     1      -4.604  -0.159  -2.777  0.00  0.00    +0.169 HD
ENDROOT
BRANCH  10  20
ATOM     20  C   UNL     1      -7.122   2.104   0.334  0.00  0.00    +0.248 C 
ATOM     21  O   UNL     1      -6.140   2.695   0.741  0.00  0.00    -0.270 OA
ATOM     22  N   UNL     1      -8.317   2.297   0.927  0.00  0.00    -0.308 N 
ATOM     23  H   UNL     1      -9.101   1.825   0.603  0.00  0.00    +0.149 HD
BRANCH  22  24
ATOM     24  C   UNL     1      -8.433   3.218   2.059  0.00  0.00    +0.073 C 
ATOM     25  C   UNL     1      -8.144   2.473   3.379  0.00  0.00    +0.022 C 
ATOM     26  C   UNL     1      -9.135   3.097   4.393  0.00  0.00    +0.002 C 
ATOM     27  C   UNL     1     -10.410   3.309   3.539  0.00  0.00    +0.002 C 
ATOM     28  C   UNL     1      -9.874   3.750   2.161  0.00  0.00    +0.022 C 
ENDBRANCH  22  24
ENDBRANCH  10  20
BRANCH  12  29
ATOM     29  C   UNL     1      -3.285   1.080  -1.300  0.00  0.00    +0.134 C 
BRANCH  29  30
ATOM     30  C   UNL     1      -2.217   1.874  -0.545  0.00  0.00    +0.135 C 
ATOM     31  C   UNL     1      -0.825   1.565  -1.128  0.00  0.00    +0.035 C 
ATOM     32  C   UNL     1      -0.024   1.012   0.075  0.00  0.00    +0.031 C 
ATOM     33  C   UNL     1      -0.827   1.562   1.281  0.00  0.00    +0.160 C 
ATOM     34  O   UNL     1      -2.199   1.479   0.837  0.00  0.00    -0.375 OA
ENDBRANCH  29  30
ENDBRANCH  12  29
TORSDOF 4
