REMARK  Name = ZINC20533420
REMARK  11 active torsions:
REMARK  status: ('A' for Active; 'I' for Inactive)
REMARK    1  A    between atoms: C_1  and  C_2
REMARK    2  A    between atoms: C_2  and  C_3
REMARK    3  A    between atoms: C_3  and  C_4
REMARK    4  A    between atoms: C_4  and  N_5
REMARK    5  A    between atoms: C_6  and  C_18
REMARK    6  A    between atoms: N_12  and  C_17
REMARK    7  A    between atoms: N_15  and  C_16
REMARK    8  A    between atoms: C_18  and  N_19
REMARK    9  A    between atoms: N_22  and  C_25
REMARK   10  A    between atoms: C_25  and  C_26
REMARK   11  A    between atoms: C_25  and  C_32
REMARK                            x       y       z     vdW  Elec       q    Type
REMARK                         _______ _______ _______ _____ _____    ______ ____
ROOT
ATOM      1  N   UNL     1      -2.037  -1.936   3.158  0.00  0.00    +0.386 N 
ATOM      2  C   UNL     1      -2.185  -2.492   1.806  0.00  0.00    -0.063 C 
ATOM      3  C   UNL     1      -1.030  -2.006   0.928  0.00  0.00    +0.067 C 
ATOM      4  N   UNL     1      -1.030  -0.537   0.892  0.00  0.00    -0.295 NA
ATOM      5  C   UNL     1      -0.882   0.020   2.244  0.00  0.00    +0.067 C 
ATOM      6  C   UNL     1      -2.037  -0.467   3.123  0.00  0.00    -0.063 C 
ATOM      7  H   UNL     1      -1.066  -2.266   3.557  0.00  0.00    -0.081 HD
ENDROOT
BRANCH   1   8
ATOM      8  C   UNL     1      -3.086  -2.441   4.053  0.00  0.00    -0.003 C 
BRANCH   8  10
ATOM      9  N   UNL     1      -2.147  -2.181   6.393  0.00  0.00    -0.324 N 
ATOM     10  C   UNL     1      -2.961  -1.775   5.400  0.00  0.00    +0.096 A 
ATOM     11  N   UNL     1      -3.623  -0.711   5.778  0.00  0.00    -0.216 NA
ATOM     12  C   UNL     1      -3.280  -0.386   7.027  0.00  0.00    +0.168 A 
ATOM     13  C   UNL     1      -2.332  -1.309   7.448  0.00  0.00    +0.152 A 
ATOM     14  C   UNL     1      -1.788  -1.194   8.745  0.00  0.00    +0.282 A 
ATOM     15  O   UNL     1      -0.954  -1.992   9.137  0.00  0.00    -0.265 OA
ATOM     16  N   UNL     1      -2.202  -0.191   9.546  0.00  0.00    -0.262 N 
ATOM     17  C   UNL     1      -3.120   0.696   9.127  0.00  0.00    +0.333 A 
ATOM     18  O   UNL     1      -3.470   1.587   9.876  0.00  0.00    -0.246 OA
ATOM     19  N   UNL     1      -3.664   0.622   7.897  0.00  0.00    -0.280 N 
ATOM     20  C   UNL     1      -4.662   1.609   7.478  0.00  0.00    +0.155 C 
ATOM     21  C   UNL     1      -1.641  -0.065  10.894  0.00  0.00    +0.157 C 
BRANCH   9  22
ATOM     22  C   UNL     1      -1.239  -3.330   6.361  0.00  0.00    +0.124 C 
BRANCH  22  23
ATOM     23  C   UNL     1       0.160  -2.863   5.953  0.00  0.00    +0.021 C 
BRANCH  23  25
ATOM     24  C   UNL     1       2.507  -3.595   5.512  0.00  0.00    +0.004 C 
ATOM     25  C   UNL     1       1.109  -4.062   5.920  0.00  0.00    -0.002 C 
ENDBRANCH  23  25
ENDBRANCH  22  23
ENDBRANCH   9  22
ENDBRANCH   8  10
ENDBRANCH   1   8
BRANCH   4  26
ATOM     26  C   UNL     1       0.019  -0.032  -0.003  0.00  0.00    +0.117 C 
BRANCH  26  27
ATOM     27  C   UNL     1      -0.012   1.475  -0.013  0.00  0.00    -0.026 A 
ATOM     28  C   UNL     1      -1.223   2.141  -0.022  0.00  0.00    +0.005 A 
ATOM     29  C   UNL     1      -1.251   3.523  -0.027  0.00  0.00    +0.000 A 
ATOM     30  C   UNL     1      -0.068   4.239  -0.033  0.00  0.00    +0.000 A 
ATOM     31  C   UNL     1       1.143   3.572  -0.030  0.00  0.00    +0.000 A 
ATOM     32  C   UNL     1       1.171   2.190  -0.020  0.00  0.00    +0.005 A 
ENDBRANCH  26  27
BRANCH  26  33
ATOM     33  C   UNL     1      -0.219  -0.549  -1.398  0.00  0.00    -0.026 A 
ATOM     34  C   UNL     1      -1.506  -0.618  -1.899  0.00  0.00    +0.005 A 
ATOM     35  C   UNL     1      -1.724  -1.088  -3.181  0.00  0.00    +0.000 A 
ATOM     36  C   UNL     1      -0.657  -1.498  -3.958  0.00  0.00    +0.000 A 
ATOM     37  C   UNL     1       0.629  -1.433  -3.455  0.00  0.00    +0.000 A 
ATOM     38  C   UNL     1       0.848  -0.959  -2.175  0.00  0.00    +0.005 A 
ENDBRANCH  26  33
ENDBRANCH   4  26
TORSDOF 8
