REMARK  Name = ZINC25393544
REMARK  12 active torsions:
REMARK  status: ('A' for Active; 'I' for Inactive)
REMARK    1  A    between atoms: C_1  and  C_2
REMARK    2  A    between atoms: C_2  and  C_3
REMARK    3  A    between atoms: C_3  and  C_4
REMARK    4  A    between atoms: C_4  and  N_5
REMARK    5  A    between atoms: N_14  and  C_33
REMARK    6  A    between atoms: C_15  and  C_17
REMARK    7  A    between atoms: C_17  and  N_18
REMARK    8  A    between atoms: N_24  and  C_25
REMARK    9  A    between atoms: C_25  and  C_26
REMARK   10  A    between atoms: C_26  and  C_27
REMARK   11  A    between atoms: C_33  and  C_34
REMARK   12  A    between atoms: C_34  and  C_35
REMARK                            x       y       z     vdW  Elec       q    Type
REMARK                         _______ _______ _______ _____ _____    ______ ____
ROOT
ATOM      1  N   UNL     1       2.489   3.439   5.392  0.00  0.00    -0.277 N 
ATOM      2  C   UNL     1       2.066   3.961   4.181  0.00  0.00    +0.168 A 
ATOM      3  C   UNL     1       2.538   5.207   3.786  0.00  0.00    +0.151 A 
ATOM      4  C   UNL     1       3.433   5.902   4.629  0.00  0.00    +0.280 A 
ATOM      5  O   UNL     1       3.861   6.995   4.305  0.00  0.00    -0.265 OA
ATOM      6  N   UNL     1       3.808   5.340   5.797  0.00  0.00    -0.273 N 
ATOM      7  H   UNL     1       4.504   5.870   6.463  0.00  0.00    +0.173 HD
ATOM      8  C   UNL     1       3.343   4.134   6.166  0.00  0.00    +0.331 A 
ATOM      9  O   UNL     1       3.703   3.659   7.226  0.00  0.00    -0.246 OA
ATOM     10  N   UNL     1       1.959   5.469   2.561  0.00  0.00    -0.321 N 
ATOM     11  C   UNL     1       1.181   4.412   2.259  0.00  0.00    +0.130 A 
ATOM     12  N   UNL     1       1.244   3.528   3.222  0.00  0.00    -0.213 NA
ENDROOT
BRANCH   1  13
ATOM     13  C   UNL     1       2.006   2.127   5.831  0.00  0.00    +0.128 C 
BRANCH  13  14
ATOM     14  C   UNL     1       0.723   2.302   6.646  0.00  0.00    +0.021 C 
BRANCH  14  16
ATOM     15  C   UNL     1      -1.063   1.107   7.920  0.00  0.00    +0.004 C 
ATOM     16  C   UNL     1       0.219   0.932   7.105  0.00  0.00    -0.002 C 
ENDBRANCH  14  16
ENDBRANCH  13  14
ENDBRANCH   1  13
BRANCH  11  17
ATOM     17  C   UNL     1       0.356   4.272   1.005  0.00  0.00    +0.181 C 
BRANCH  17  18
ATOM     18  N   UNL     1       1.106   3.498   0.012  0.00  0.00    -0.304 N 
ATOM     19  C   UNL     1       1.898   4.177  -1.014  0.00  0.00    +0.108 C 
ATOM     20  C   UNL     1       3.354   3.722  -0.946  0.00  0.00    +0.030 C 
ATOM     21  C   UNL     1       3.459   2.233  -1.290  0.00  0.00    +0.078 C 
ATOM     22  S   UNL     1       2.638   1.272   0.012  0.00  0.00    -0.092 S 
ATOM     23  C   UNL     1       1.081   2.112   0.026  0.00  0.00    +0.131 C 
ATOM     24  N   UNL     1      -0.045   1.454   0.044  0.00  0.00    -0.367 N 
ATOM     25  H   UNL     1      -1.001   1.999   0.052  0.00  0.00    +0.161 HD
BRANCH  24  26
ATOM     26  C   UNL     1      -0.038  -0.011   0.052  0.00  0.00    +0.119 C 
BRANCH  26  27
ATOM     27  C   UNL     1      -0.628  -0.517   1.369  0.00  0.00    +0.056 C 
BRANCH  27  28
ATOM     28  C   UNL     1      -0.620  -2.024   1.378  0.00  0.00    -0.046 A 
ATOM     29  C   UNL     1      -1.710  -2.723   0.895  0.00  0.00    +0.004 A 
ATOM     30  C   UNL     1      -1.701  -4.106   0.898  0.00  0.00    +0.000 A 
ATOM     31  C   UNL     1      -0.606  -4.788   1.395  0.00  0.00    +0.000 A 
ATOM     32  C   UNL     1       0.481  -4.088   1.883  0.00  0.00    +0.000 A 
ATOM     33  C   UNL     1       0.474  -2.706   1.875  0.00  0.00    +0.004 A 
ENDBRANCH  27  28
ENDBRANCH  26  27
ENDBRANCH  24  26
ENDBRANCH  17  18
ENDBRANCH  11  17
BRANCH  10  34
ATOM     34  C   UNL     1       2.155   6.669   1.744  0.00  0.00    +0.123 C 
BRANCH  34  35
ATOM     35  C   UNL     1       1.189   7.763   2.205  0.00  0.00    +0.018 C 
ATOM     36  C   UNL     1       1.393   9.016   1.351  0.00  0.00    +0.005 C 
ENDBRANCH  34  35
ENDBRANCH  10  34
TORSDOF 10
