REMARK  Name = ZINC09985790
REMARK  11 active torsions:
REMARK  status: ('A' for Active; 'I' for Inactive)
REMARK    1  A    between atoms: C_1  and  C_2
REMARK    2  A    between atoms: C_2  and  O_3
REMARK    3  A    between atoms: O_3  and  C_4
REMARK    4  A    between atoms: C_6  and  C_11
REMARK    5  A    between atoms: C_9  and  O_10
REMARK    6  A    between atoms: C_16  and  C_21
REMARK    7  A    between atoms: C_27  and  C_39
REMARK    8  A    between atoms: C_28  and  C_29
REMARK    9  A    between atoms: C_29  and  O_31
REMARK   10  A    between atoms: O_31  and  C_32
REMARK   11  A    between atoms: C_32  and  C_33
REMARK                            x       y       z     vdW  Elec       q    Type
REMARK                         _______ _______ _______ _____ _____    ______ ____
ROOT
ATOM      1  C   UNL     1      -1.558   3.412   2.684  0.00  0.00    +0.092 C 
ATOM      2  C   UNL     1      -1.663   2.345   3.745  0.00  0.00    +0.024 C 
ATOM      3  C   UNL     1      -1.492   1.043   3.432  0.00  0.00    +0.016 C 
ATOM      4  C   UNL     1      -1.595  -0.030   4.488  0.00  0.00    +0.060 C 
ATOM      5  C   UNL     1      -2.581   0.410   5.572  0.00  0.00    +0.039 C 
ATOM      6  C   UNL     1      -2.090   1.733   6.168  0.00  0.00    +0.088 C 
ATOM      7  C   UNL     1      -1.946   2.744   5.063  0.00  0.00    +0.162 C 
ATOM      8  O   UNL     1      -2.078   3.925   5.313  0.00  0.00    -0.292 OA
ATOM      9  N   UNL     1      -1.215   0.668   2.145  0.00  0.00    -0.321 N 
ATOM     10  C   UNL     1      -0.718   1.572   1.248  0.00  0.00    +0.016 C 
ATOM     11  C   UNL     1      -0.850   2.892   1.467  0.00  0.00    +0.065 C 
ATOM     12  C   UNL     1      -0.013   1.086   0.008  0.00  0.00    +0.061 C 
ATOM     13  H   UNL     1      -1.393  -0.369   1.824  0.00  0.00    +0.152 HD
ENDROOT
BRANCH   1  16
ATOM     14  C   UNL     1      -4.581   5.605   2.115  0.00  0.00    +0.162 A 
ATOM     15  C   UNL     1      -3.308   5.187   2.467  0.00  0.00    +0.054 A 
ATOM     16  C   UNL     1      -2.943   3.864   2.299  0.00  0.00    -0.032 A 
ATOM     17  C   UNL     1      -3.845   2.957   1.774  0.00  0.00    +0.008 A 
ATOM     18  C   UNL     1      -5.118   3.366   1.425  0.00  0.00    +0.049 A 
ATOM     19  C   UNL     1      -5.490   4.691   1.591  0.00  0.00    +0.158 A 
BRANCH  19  20
ATOM     20  O   UNL     1      -6.740   5.096   1.243  0.00  0.00    -0.503 OA
ATOM     21  H   UNL     1      -7.458   4.372   0.829  0.00  0.00    +0.292 HD
ENDBRANCH  19  20
BRANCH  14  22
ATOM     22  O   UNL     1      -4.941   6.906   2.279  0.00  0.00    -0.489 OA
BRANCH  22  24
ATOM     23  C   UNL     1      -4.540   9.198   2.931  0.00  0.00    +0.048 C 
ATOM     24  C   UNL     1      -3.956   7.788   2.821  0.00  0.00    +0.226 C 
ENDBRANCH  22  24
ENDBRANCH  14  22
ENDBRANCH   1  16
BRANCH   5  25
ATOM     25  C   UNL     1      -2.646  -0.639   6.653  0.00  0.00    -0.006 A 
ATOM     26  C   UNL     1      -3.712  -1.359   7.081  0.00  0.00    +0.011 A 
ATOM     27  C   UNL     1      -3.535  -2.278   8.098  0.00  0.00    +0.008 A 
ATOM     28  C   UNL     1      -2.301  -2.431   8.639  0.00  0.00    +0.045 A 
ATOM     29  S   UNL     1      -1.338  -1.260   7.697  0.00  0.00    -0.101 S 
ENDBRANCH   5  25
BRANCH  11  30
ATOM     30  C   UNL     1      -0.314   3.807   0.531  0.00  0.00    +0.338 C 
ATOM     31  O   UNL     1       0.258   3.398  -0.461  0.00  0.00    -0.245 OA
BRANCH  30  32
ATOM     32  O   UNL     1      -0.439   5.135   0.739  0.00  0.00    -0.459 OA
BRANCH  32  33
ATOM     33  C   UNL     1       0.125   6.002  -0.247  0.00  0.00    +0.264 C 
BRANCH  33  34
ATOM     34  C   UNL     1      -0.113   7.458   0.158  0.00  0.00    +0.156 C 
ATOM     35  C   UNL     1       0.390   8.400  -0.957  0.00  0.00    +0.037 C 
ATOM     36  C   UNL     1       1.028   9.560  -0.144  0.00  0.00    +0.031 C 
ATOM     37  C   UNL     1       1.591   8.789   1.077  0.00  0.00    +0.160 C 
ATOM     38  O   UNL     1       0.626   7.759   1.347  0.00  0.00    -0.373 OA
ENDBRANCH  33  34
ENDBRANCH  32  33
ENDBRANCH  30  32
ENDBRANCH  11  30
TORSDOF 9
