REMARK  Name = ZINC53163245
REMARK  3 active torsions:
REMARK  status: ('A' for Active; 'I' for Inactive)
REMARK    1  A    between atoms: C_5  and  N_10
REMARK    2  A    between atoms: C_6  and  N_7
REMARK    3  A    between atoms: N_10  and  C_11
REMARK                            x       y       z     vdW  Elec       q    Type
REMARK                         _______ _______ _______ _____ _____    ______ ____
ROOT
ATOM      1  C   UNL     1       0.007   1.405   0.128  0.00  0.00    +0.037 A 
ATOM      2  C   UNL     1       1.207   2.086   0.052  0.00  0.00    +0.043 A 
ATOM      3  C   UNL     1       2.396   1.388  -0.082  0.00  0.00    +0.160 A 
ATOM      4  C   UNL     1       2.383   0.005  -0.140  0.00  0.00    +0.181 A 
ATOM      5  C   UNL     1       1.176  -0.681  -0.063  0.00  0.00    +0.096 A 
ATOM      6  C   UNL     1      -0.012   0.025   0.071  0.00  0.00    +0.150 A 
ATOM      7  F   UNL     1       3.542  -0.678  -0.271  0.00  0.00    -0.200 F 
ATOM      8  F   UNL     1       3.567   2.057  -0.157  0.00  0.00    -0.202 F 
ENDROOT
BRANCH   6   9
ATOM      9  N   UNL     1      -1.299  -0.702   0.154  0.00  0.00    +0.058 N 
ATOM     10  O   UNL     1      -2.286  -0.246  -0.375  0.00  0.00    -0.126 OA
ATOM     11  O   UNL     1      -1.363  -1.751   0.751  0.00  0.00    -0.126 OA
ENDBRANCH   6   9
BRANCH   5  12
ATOM     12  N   UNL     1       1.159  -2.078  -0.121  0.00  0.00    -0.337 N 
ATOM     13  H   UNL     1       0.322  -2.547  -0.263  0.00  0.00    +0.146 HD
BRANCH  12  14
ATOM     14  C   UNL     1       2.405  -2.833   0.033  0.00  0.00    +0.074 C 
ATOM     15  C   UNL     1       3.120  -2.902  -1.313  0.00  0.00    +0.045 C 
ATOM     16  C   UNL     1       4.539  -3.446  -1.124  0.00  0.00    +0.167 C 
ATOM     17  S   UNL     1       4.437  -5.146  -0.491  0.00  0.00    -0.031 S 
ATOM     18  O   UNL     1       5.730  -5.544  -0.056  0.00  0.00    -0.174 OA
ATOM     19  O   UNL     1       3.752  -5.944  -1.447  0.00  0.00    -0.174 OA
ATOM     20  C   UNL     1       3.373  -4.944   0.968  0.00  0.00    +0.167 C 
ATOM     21  C   UNL     1       2.084  -4.234   0.546  0.00  0.00    +0.045 C 
ENDBRANCH  12  14
ENDBRANCH   5  12
TORSDOF 3
