REMARK  Name = ZINC01125472
REMARK  6 active torsions:
REMARK  status: ('A' for Active; 'I' for Inactive)
REMARK    1  A    between atoms: C_3  and  S_17
REMARK    2  A    between atoms: C_6  and  N_7
REMARK    3  A    between atoms: N_7  and  C_8
REMARK    4  A    between atoms: C_8  and  C_9
REMARK    5  A    between atoms: C_14  and  O_15
REMARK    6  A    between atoms: S_17  and  N_20
REMARK                            x       y       z     vdW  Elec       q    Type
REMARK                         _______ _______ _______ _____ _____    ______ ____
ROOT
ATOM      1  C   UNL     1       1.179   2.093   0.002  0.00  0.00    +0.025 A 
ATOM      2  C   UNL     1       2.381   1.414  -0.013  0.00  0.00    +0.030 A 
ATOM      3  C   UNL     1       2.396   0.031  -0.021  0.00  0.00    +0.109 A 
ATOM      4  C   UNL     1       1.208  -0.677  -0.013  0.00  0.00    +0.030 A 
ATOM      5  C   UNL     1       0.002  -0.004   0.002  0.00  0.00    +0.025 A 
ATOM      6  C   UNL     1      -0.017   1.385   0.010  0.00  0.00    +0.027 A 
ENDROOT
BRANCH   3   7
ATOM      7  S   UNL     1       3.933  -0.831  -0.041  0.00  0.00    +0.074 S 
ATOM      8  O   UNL     1       4.902   0.053   0.506  0.00  0.00    -0.150 OA
ATOM      9  O   UNL     1       3.683  -2.119   0.505  0.00  0.00    -0.150 OA
BRANCH   7  10
ATOM     10  N   UNL     1       4.344  -1.062  -1.628  0.00  0.00    -0.194 N 
ATOM     11  C   UNL     1       4.625   0.029  -2.437  0.00  0.00    +0.177 A 
ATOM     12  N   UNL     1       4.612   1.312  -2.131  0.00  0.00    -0.232 NA
ATOM     13  C   UNL     1       4.912   2.231  -3.030  0.00  0.00    +0.120 A 
ATOM     14  C   UNL     1       5.225   1.828  -4.285  0.00  0.00    +0.068 A 
ATOM     15  S   UNL     1       5.075   0.056  -4.113  0.00  0.00    -0.059 S 
ATOM     16  H   UNL     1       4.389  -1.960  -1.992  0.00  0.00    +0.176 HD
ENDBRANCH   7  10
ENDBRANCH   3   7
BRANCH   6  17
ATOM     17  N   UNL     1      -1.235   2.068   0.019  0.00  0.00    -0.340 N 
ATOM     18  H   UNL     1      -2.069   1.573   0.020  0.00  0.00    +0.146 HD
BRANCH  17  19
ATOM     19  C   UNL     1      -1.253   3.533   0.027  0.00  0.00    +0.140 C 
BRANCH  19  20
ATOM     20  C   UNL     1      -2.680   4.018   0.037  0.00  0.00    +0.012 A 
ATOM     21  C   UNL     1      -3.273   4.444  -1.136  0.00  0.00    +0.024 A 
ATOM     22  C   UNL     1      -4.582   4.889  -1.128  0.00  0.00    +0.018 A 
ATOM     23  C   UNL     1      -5.301   4.909   0.054  0.00  0.00    +0.019 A 
ATOM     24  C   UNL     1      -4.712   4.485   1.229  0.00  0.00    +0.047 A 
ATOM     25  C   UNL     1      -3.400   4.032   1.222  0.00  0.00    +0.122 A 
ATOM     26 BR   UNL     1      -5.392   5.470  -2.735  0.00  0.00    -0.050 Br
BRANCH  25  27
ATOM     27  O   UNL     1      -2.820   3.608   2.376  0.00  0.00    -0.506 OA
ATOM     28  H   UNL     1      -2.372   4.308   2.870  0.00  0.00    +0.292 HD
ENDBRANCH  25  27
ENDBRANCH  19  20
ENDBRANCH  17  19
ENDBRANCH   6  17
TORSDOF 6
