REMARK  Name = ZINC21911618
REMARK  10 active torsions:
REMARK  status: ('A' for Active; 'I' for Inactive)
REMARK    1  A    between atoms: C_1  and  C_2
REMARK    2  A    between atoms: C_2  and  C_3
REMARK    3  A    between atoms: C_2  and  N_4
REMARK    4  A    between atoms: N_7  and  C_8
REMARK    5  A    between atoms: C_8  and  C_9
REMARK    6  A    between atoms: C_12  and  C_15
REMARK    7  A    between atoms: N_17  and  C_18
REMARK    8  A    between atoms: C_18  and  C_19
REMARK    9  A    between atoms: C_19  and  C_21
REMARK   10  A    between atoms: C_19  and  N_28
REMARK                            x       y       z     vdW  Elec       q    Type
REMARK                         _______ _______ _______ _____ _____    ______ ____
ROOT
ATOM      1  C   UNL     1       0.318   1.577   2.272  0.00  0.00    +0.244 C 
ATOM      2  O   UNL     1       1.505   1.321   2.209  0.00  0.00    -0.270 OA
ATOM      3  N   UNL     1      -0.420   1.631   1.146  0.00  0.00    -0.313 N 
ATOM      4  H   UNL     1      -1.494   1.863   1.203  0.00  0.00    +0.149 HD
ENDROOT
BRANCH   1   8
ATOM      5  C   UNL     1      -1.501   2.300   6.042  0.00  0.00    -0.030 A 
ATOM      6  C   UNL     1      -0.150   2.009   5.973  0.00  0.00    +0.006 A 
ATOM      7  C   UNL     1       0.447   1.773   4.752  0.00  0.00    +0.013 A 
ATOM      8  C   UNL     1      -0.315   1.828   3.584  0.00  0.00    +0.037 A 
ATOM      9  C   UNL     1      -1.676   2.128   3.659  0.00  0.00    +0.013 A 
ATOM     10  C   UNL     1      -2.262   2.357   4.887  0.00  0.00    +0.006 A 
BRANCH   5  11
ATOM     11  C   UNL     1      -2.147   2.556   7.379  0.00  0.00    +0.141 C 
BRANCH  11  15
ATOM     12  N   UNL     1      -2.520   5.766   9.134  0.00  0.00    -0.297 N 
ATOM     13  C   UNL     1      -2.589   4.451   8.846  0.00  0.00    +0.300 C 
ATOM     14  O   UNL     1      -3.118   3.684   9.628  0.00  0.00    -0.253 OA
ATOM     15  N   UNL     1      -2.072   3.986   7.692  0.00  0.00    -0.295 N 
ATOM     16  H   UNL     1      -2.042   6.459   8.427  0.00  0.00    +0.150 HD
ATOM     17  H   UNL     1      -1.594   4.679   6.984  0.00  0.00    +0.151 HD
BRANCH  12  19
ATOM     18  C   UNL     1      -2.049   6.122  11.507  0.00  0.00    +0.027 C 
ATOM     19  C   UNL     1      -3.082   6.271  10.389  0.00  0.00    +0.068 C 
ATOM     20  C   UNL     1      -3.447   7.748  10.226  0.00  0.00    +0.027 C 
ENDBRANCH  12  19
ENDBRANCH  11  15
ENDBRANCH   5  11
ENDBRANCH   1   8
BRANCH   3  21
ATOM     21  C   UNL     1       0.207   1.382  -0.154  0.00  0.00    +0.094 C 
BRANCH  21  22
ATOM     22  C   UNL     1      -0.802   1.663  -1.270  0.00  0.00    -0.019 C 
BRANCH  22  23
ATOM     23  C   UNL     1      -0.186   1.319  -2.602  0.00  0.00    -0.041 A 
ATOM     24  C   UNL     1       0.484   2.288  -3.324  0.00  0.00    +0.003 A 
ATOM     25  C   UNL     1       1.052   1.972  -4.544  0.00  0.00    +0.000 A 
ATOM     26  C   UNL     1       0.942   0.689  -5.047  0.00  0.00    +0.001 A 
ATOM     27  C   UNL     1       0.268  -0.280  -4.328  0.00  0.00    +0.020 A 
ATOM     28  C   UNL     1      -0.297   0.035  -3.104  0.00  0.00    +0.043 A 
ATOM     29 CL   UNL     1      -1.145  -1.181  -2.201  0.00  0.00    -0.083 Cl
ENDBRANCH  22  23
BRANCH  22  30
ATOM     30  N   UNL     1      -1.168   3.085  -1.252  0.00  0.00    +0.385 N 
ATOM     31  C   UNL     1      -2.003   3.435  -2.430  0.00  0.00    -0.078 C 
ATOM     32  C   UNL     1      -2.706   4.743  -1.990  0.00  0.00    -0.020 C 
ATOM     33  C   UNL     1      -2.992   4.495  -0.491  0.00  0.00    -0.020 C 
ATOM     34  C   UNL     1      -1.990   3.406  -0.065  0.00  0.00    -0.078 C 
ATOM     35  H   UNL     1      -0.217   3.639  -1.245  0.00  0.00    -0.081 HD
ENDBRANCH  22  30
ENDBRANCH  21  22
ENDBRANCH   3  21
TORSDOF 8
