REMARK  Name = ZINC02211957
REMARK  8 active torsions:
REMARK  status: ('A' for Active; 'I' for Inactive)
REMARK    1  A    between atoms: C_1  and  C_2
REMARK    2  A    between atoms: C_2  and  C_3
REMARK    3  A    between atoms: C_2  and  C_4
REMARK    4  A    between atoms: C_12  and  N_31
REMARK    5  A    between atoms: C_14  and  S_16
REMARK    6  A    between atoms: S_16  and  C_17
REMARK    7  A    between atoms: C_17  and  C_18
REMARK    8  A    between atoms: N_20  and  C_21
REMARK                            x       y       z     vdW  Elec       q    Type
REMARK                         _______ _______ _______ _____ _____    ______ ____
ROOT
ATOM      1  C   UNL     1       2.525  -0.311  -0.355  0.00  0.00    +0.126 C 
ATOM      2  C   UNL     1       2.563   1.152   0.093  0.00  0.00    +0.068 C 
ATOM      3  C   UNL     1       1.131   1.682   0.113  0.00  0.00    -0.020 A 
ATOM      4  C   UNL     1       0.099   0.805   0.122  0.00  0.00    +0.021 A 
ATOM      5  S   UNL     1      -1.363   1.807   0.150  0.00  0.00    -0.071 S 
ATOM      6  C   UNL     1      -0.595   3.395   0.143  0.00  0.00    +0.115 A 
ATOM      7  C   UNL     1       0.791   3.093   0.125  0.00  0.00    +0.051 A 
ATOM      8  C   UNL     1       1.691   4.197   0.120  0.00  0.00    +0.129 A 
ATOM      9  N   UNL     1       1.134   5.405   0.134  0.00  0.00    -0.207 NA
ATOM     10  C   UNL     1      -0.174   5.615   0.151  0.00  0.00    +0.191 A 
ATOM     11  N   UNL     1      -1.070   4.625   0.156  0.00  0.00    -0.214 NA
ATOM     12  C   UNL     1       0.205  -0.687   0.115  0.00  0.00    +0.203 C 
ATOM     13  O   UNL     1       1.565  -1.037   0.418  0.00  0.00    -0.371 OA
ENDROOT
BRANCH   1  15
ATOM     14  C   UNL     1       3.876  -2.395  -0.627  0.00  0.00    +0.010 C 
ATOM     15  C   UNL     1       3.908  -0.937  -0.165  0.00  0.00    +0.012 C 
ATOM     16  C   UNL     1       4.936  -0.162  -0.991  0.00  0.00    +0.010 C 
ENDBRANCH   1  15
BRANCH   8  17
ATOM     17  N   UNL     1       3.063   4.024   0.103  0.00  0.00    -0.343 N 
ATOM     18  H   UNL     1       3.441   3.134   0.177  0.00  0.00    +0.144 HD
ATOM     19  H   UNL     1       3.648   4.793   0.016  0.00  0.00    +0.144 HD
ENDBRANCH   8  17
BRANCH  10  20
ATOM     20  S   UNL     1      -0.759   7.277   0.168  0.00  0.00    -0.077 S 
BRANCH  20  21
ATOM     21  C   UNL     1       0.818   8.165   0.154  0.00  0.00    +0.173 C 
BRANCH  21  22
ATOM     22  C   UNL     1       0.559   9.650   0.166  0.00  0.00    +0.228 C 
ATOM     23  O   UNL     1      -0.580  10.066   0.182  0.00  0.00    -0.275 OA
ATOM     24  N   UNL     1       1.593  10.514   0.159  0.00  0.00    -0.284 N 
ATOM     25  H   UNL     1       2.500  10.185   0.062  0.00  0.00    +0.155 HD
BRANCH  24  26
ATOM     26  C   UNL     1       1.358  11.884   0.291  0.00  0.00    +0.041 A 
ATOM     27  C   UNL     1       0.322  12.340   1.077  0.00  0.00    +0.024 A 
ATOM     28  C   UNL     1       0.079  13.703   1.215  0.00  0.00    +0.002 A 
ATOM     29  C   UNL     1       0.856  14.623   0.580  0.00  0.00    +0.008 A 
ATOM     30  C   UNL     1       1.923  14.201  -0.231  0.00  0.00    -0.016 A 
ATOM     31  C   UNL     1       2.183  12.815  -0.376  0.00  0.00    +0.003 A 
ATOM     32  C   UNL     1       3.246  12.395  -1.189  0.00  0.00    +0.010 A 
ATOM     33  C   UNL     1       4.018  13.321  -1.822  0.00  0.00    +0.001 A 
ATOM     34  C   UNL     1       3.766  14.684  -1.677  0.00  0.00    +0.001 A 
ATOM     35  C   UNL     1       2.741  15.128  -0.899  0.00  0.00    +0.008 A 
ENDBRANCH  24  26
ENDBRANCH  21  22
ENDBRANCH  20  21
ENDBRANCH  10  20
TORSDOF 6
