REMARK  Name = ZINC09599741
REMARK  7 active torsions:
REMARK  status: ('A' for Active; 'I' for Inactive)
REMARK    1  A    between atoms: C_1  and  C_2
REMARK    2  A    between atoms: C_9  and  N_15
REMARK    3  A    between atoms: C_10  and  C_11
REMARK    4  A    between atoms: N_13  and  C_14
REMARK    5  A    between atoms: C_16  and  C_18
REMARK    6  A    between atoms: C_21  and  S_24
REMARK    7  A    between atoms: S_24  and  N_27
REMARK                            x       y       z     vdW  Elec       q    Type
REMARK                         _______ _______ _______ _____ _____    ______ ____
ROOT
ATOM      1  N   UNL     1       4.524   0.943  -4.492  0.00  0.00    -0.275 N 
ATOM      2  C   UNL     1       5.814   1.148  -4.162  0.00  0.00    +0.249 C 
ATOM      3  O   UNL     1       6.111   1.432  -3.018  0.00  0.00    -0.270 OA
ATOM      4  H   UNL     1       4.287   0.716  -5.405  0.00  0.00    +0.156 HD
ENDROOT
BRANCH   1  12
ATOM      5  C   UNL     1      -0.734   1.582   1.262  0.00  0.00    +0.008 C 
ATOM      6  C   UNL     1      -0.013   1.086   0.008  0.00  0.00    -0.009 C 
ATOM      7  C   UNL     1      -0.738   1.596  -1.241  0.00  0.00    +0.008 C 
ATOM      8  C   UNL     1      -0.177   0.908  -2.486  0.00  0.00    +0.037 C 
ATOM      9  C   UNL     1       1.339   1.061  -2.490  0.00  0.00    -0.023 A 
ATOM     10  C   UNL     1       2.009   1.379  -1.361  0.00  0.00    -0.004 A 
ATOM     11  S   UNL     1       3.710   1.445  -1.848  0.00  0.00    -0.077 S 
ATOM     12  C   UNL     1       3.536   1.055  -3.527  0.00  0.00    +0.085 A 
ATOM     13  C   UNL     1       2.166   0.883  -3.672  0.00  0.00    +0.069 A 
ATOM     14  C   UNL     1       1.427   1.620  -0.003  0.00  0.00    +0.046 C 
BRANCH  13  15
ATOM     15  C   UNL     1       1.576   0.536  -4.968  0.00  0.00    +0.246 C 
ATOM     16  O   UNL     1       1.435  -0.633  -5.279  0.00  0.00    -0.270 OA
ATOM     17  N   UNL     1       1.189   1.510  -5.815  0.00  0.00    -0.314 N 
ATOM     18  C   UNL     1       0.599   1.163  -7.110  0.00  0.00    +0.128 C 
ATOM     19  H   UNL     1       1.301   2.441  -5.567  0.00  0.00    +0.149 HD
ENDBRANCH  13  15
ENDBRANCH   1  12
BRANCH   2  20
ATOM     20  C   UNL     1       6.868   1.028  -5.191  0.00  0.00    +0.037 A 
ATOM     21  C   UNL     1       6.531   0.697  -6.505  0.00  0.00    +0.015 A 
ATOM     22  C   UNL     1       7.519   0.593  -7.462  0.00  0.00    +0.029 A 
ATOM     23  C   UNL     1       8.843   0.804  -7.120  0.00  0.00    +0.106 A 
ATOM     24  C   UNL     1       9.185   1.127  -5.818  0.00  0.00    +0.029 A 
ATOM     25  C   UNL     1       8.206   1.240  -4.853  0.00  0.00    +0.015 A 
BRANCH  23  26
ATOM     26  S   UNL     1      10.100   0.661  -8.347  0.00  0.00    +0.061 S 
ATOM     27  O   UNL     1       9.470   0.887  -9.601  0.00  0.00    -0.153 OA
ATOM     28  O   UNL     1      11.199   1.440  -7.895  0.00  0.00    -0.153 OA
BRANCH  26  29
ATOM     29  N   UNL     1      10.606  -0.915  -8.348  0.00  0.00    -0.177 NA
ATOM     30  C   UNL     1      11.702  -1.292  -7.484  0.00  0.00    +0.109 C 
ATOM     31  C   UNL     1      13.043  -1.106  -8.224  0.00  0.00    +0.017 C 
ATOM     32  C   UNL     1      13.195  -2.129  -9.270  0.00  0.00    +0.001 C 
ATOM     33  C   UNL     1      12.141  -2.063 -10.371  0.00  0.00    +0.001 C 
ATOM     34  C   UNL     1      10.914  -2.825  -9.935  0.00  0.00    +0.017 C 
ATOM     35  C   UNL     1       9.923  -1.877  -9.235  0.00  0.00    +0.109 C 
ENDBRANCH  26  29
ENDBRANCH  23  26
ENDBRANCH   2  20
TORSDOF 5
