REMARK  Name = ZINC09692704
REMARK  11 active torsions:
REMARK  status: ('A' for Active; 'I' for Inactive)
REMARK    1  A    between atoms: C_1  and  C_2
REMARK    2  A    between atoms: C_2  and  C_3
REMARK    3  A    between atoms: C_3  and  C_5
REMARK    4  A    between atoms: C_3  and  N_6
REMARK    5  A    between atoms: C_7  and  C_9
REMARK    6  A    between atoms: C_9  and  N_10
REMARK    7  A    between atoms: C_13  and  C_29
REMARK    8  A    between atoms: N_19  and  C_22
REMARK    9  A    between atoms: C_25  and  C_28
REMARK   10  A    between atoms: N_31  and  C_32
REMARK   11  A    between atoms: C_32  and  C_33
REMARK                            x       y       z     vdW  Elec       q    Type
REMARK                         _______ _______ _______ _____ _____    ______ ____
ROOT
ATOM      1  N   UNL     1       2.329   3.773   0.525  0.00  0.00    -0.284 N 
ATOM      2  C   UNL     1       1.163   3.189   0.051  0.00  0.00    +0.060 A 
ATOM      3  C   UNL     1      -0.050   3.857   0.093  0.00  0.00    +0.039 A 
ATOM      4  C   UNL     1      -1.197   3.235  -0.394  0.00  0.00    +0.039 A 
ATOM      5  C   UNL     1      -1.128   1.946  -0.929  0.00  0.00    +0.014 A 
ATOM      6  C   UNL     1       0.074   1.274  -0.969  0.00  0.00    +0.016 A 
ATOM      7  C   UNL     1       1.225   1.890  -0.483  0.00  0.00    +0.064 A 
ATOM      8  C   UNL     1       2.535   1.210  -0.511  0.00  0.00    +0.269 A 
ATOM      9  O   UNL     1       2.645   0.086  -0.961  0.00  0.00    -0.266 OA
ATOM     10  N   UNL     1       3.609   1.869  -0.023  0.00  0.00    -0.228 N 
ATOM     11  C   UNL     1       3.497   3.110   0.477  0.00  0.00    +0.337 A 
ATOM     12  O   UNL     1       4.495   3.657   0.903  0.00  0.00    -0.246 OA
ENDROOT
BRANCH  10  13
ATOM     13  C   UNL     1       4.863   1.245  -0.039  0.00  0.00    +0.054 A 
ATOM     14  C   UNL     1       5.699   1.391  -1.138  0.00  0.00    +0.026 A 
ATOM     15  C   UNL     1       6.937   0.778  -1.148  0.00  0.00    +0.005 A 
ATOM     16  C   UNL     1       7.340   0.012  -0.070  0.00  0.00    -0.050 A 
ATOM     17  C   UNL     1       6.508  -0.140   1.024  0.00  0.00    +0.005 A 
ATOM     18  C   UNL     1       5.271   0.475   1.042  0.00  0.00    +0.026 A 
ATOM     19  C   UNL     1       8.689  -0.659  -0.087  0.00  0.00    +0.044 C 
ENDBRANCH  10  13
BRANCH   4  20
ATOM     20  C   UNL     1      -2.496   3.946  -0.350  0.00  0.00    +0.244 C 
ATOM     21  O   UNL     1      -2.558   5.069   0.110  0.00  0.00    -0.270 OA
ATOM     22  N   UNL     1      -3.608   3.347  -0.820  0.00  0.00    -0.304 N 
ATOM     23  H   UNL     1      -3.558   2.451  -1.187  0.00  0.00    +0.149 HD
BRANCH  22  24
ATOM     24  C   UNL     1      -4.892   4.050  -0.777  0.00  0.00    +0.179 C 
BRANCH  24  25
ATOM     25  C   UNL     1      -5.967   3.169  -1.358  0.00  0.00    +0.122 A 
ATOM     26  C   UNL     1      -6.723   2.293  -0.672  0.00  0.00    +0.046 A 
ATOM     27  C   UNL     1      -7.595   1.685  -1.605  0.00  0.00    +0.041 A 
ATOM     28  C   UNL     1      -7.320   2.227  -2.805  0.00  0.00    +0.195 A 
ATOM     29  O   UNL     1      -6.338   3.129  -2.649  0.00  0.00    -0.466 OA
ENDBRANCH  24  25
ENDBRANCH  22  24
ENDBRANCH   4  20
BRANCH   1  30
ATOM     30  C   UNL     1       2.287   5.126   1.085  0.00  0.00    +0.222 C 
BRANCH  30  32
ATOM     31  N   UNL     1       2.531   7.449   0.271  0.00  0.00    -0.311 N 
ATOM     32  C   UNL     1       2.526   6.131  -0.012  0.00  0.00    +0.233 C 
ATOM     33  O   UNL     1       2.714   5.754  -1.150  0.00  0.00    -0.274 OA
ATOM     34  H   UNL     1       2.381   7.750   1.180  0.00  0.00    +0.149 HD
BRANCH  31  35
ATOM     35  C   UNL     1       2.764   8.426  -0.796  0.00  0.00    +0.070 C 
ATOM     36  C   UNL     1       1.443   8.733  -1.504  0.00  0.00    +0.028 C 
BRANCH  35  38
ATOM     37  C   UNL     1       4.710   9.432   0.406  0.00  0.00    +0.005 C 
ATOM     38  C   UNL     1       3.331   9.713  -0.194  0.00  0.00    +0.018 C 
ENDBRANCH  35  38
ENDBRANCH  31  35
ENDBRANCH  30  32
ENDBRANCH   1  30
TORSDOF 8
