REMARK  Name = ZINC09558758
REMARK  9 active torsions:
REMARK  status: ('A' for Active; 'I' for Inactive)
REMARK    1  A    between atoms: C_1  and  C_2
REMARK    2  A    between atoms: C_5  and  C_36
REMARK    3  A    between atoms: C_6  and  N_8
REMARK    4  A    between atoms: C_21  and  S_22
REMARK    5  A    between atoms: S_22  and  C_23
REMARK    6  A    between atoms: C_23  and  C_25
REMARK    7  A    between atoms: C_23  and  C_26
REMARK    8  A    between atoms: N_28  and  C_29
REMARK    9  A    between atoms: C_29  and  C_30
REMARK                            x       y       z     vdW  Elec       q    Type
REMARK                         _______ _______ _______ _____ _____    ______ ____
ROOT
ATOM      1  N   UNL     1       0.051  -2.798   2.393  0.00  0.00    -0.245 N 
ATOM      2  C   UNL     1       1.232  -3.115   2.964  0.00  0.00    +0.268 A 
ATOM      3  O   UNL     1       2.279  -2.789   2.438  0.00  0.00    -0.267 OA
ATOM      4  C   UNL     1       1.233  -3.861   4.235  0.00  0.00    +0.064 A 
ATOM      5  C   UNL     1       2.425  -4.213   4.866  0.00  0.00    +0.015 A 
ATOM      6  C   UNL     1       2.386  -4.911   6.055  0.00  0.00    +0.001 A 
ATOM      7  C   UNL     1       1.171  -5.263   6.621  0.00  0.00    +0.002 A 
ATOM      8  C   UNL     1      -0.017  -4.920   6.005  0.00  0.00    +0.027 A 
ATOM      9  C   UNL     1       0.003  -4.218   4.810  0.00  0.00    +0.064 A 
ATOM     10  N   UNL     1      -1.175  -3.859   4.167  0.00  0.00    -0.255 N 
ATOM     11  C   UNL     1      -1.148  -3.159   2.988  0.00  0.00    +0.245 A 
ATOM     12  N   UNL     1      -2.396  -2.963   2.634  0.00  0.00    -0.109 NA
ATOM     13  N   UNL     1      -3.189  -3.481   3.502  0.00  0.00    -0.120 NA
ATOM     14  C   UNL     1      -2.498  -4.051   4.460  0.00  0.00    +0.198 A 
ENDROOT
BRANCH   1  20
ATOM     15  C   UNL     1      -0.018   1.503   0.010  0.00  0.00    +0.044 C 
ATOM     16  C   UNL     1       0.002  -0.004   0.002  0.00  0.00    -0.048 A 
ATOM     17  C   UNL     1       0.006  -0.688  -1.200  0.00  0.00    +0.004 A 
ATOM     18  C   UNL     1       0.024  -2.071  -1.212  0.00  0.00    +0.005 A 
ATOM     19  C   UNL     1       0.039  -2.773  -0.023  0.00  0.00    -0.026 A 
ATOM     20  C   UNL     1       0.036  -2.089   1.186  0.00  0.00    +0.056 A 
ATOM     21  C   UNL     1       0.023  -0.700   1.194  0.00  0.00    +0.030 A 
ATOM     22  C   UNL     1       0.059  -4.280  -0.037  0.00  0.00    +0.046 C 
ENDBRANCH   1  20
BRANCH  14  23
ATOM     23  S   UNL     1      -3.149  -4.888   5.868  0.00  0.00    -0.073 S 
BRANCH  23  24
ATOM     24  C   UNL     1      -4.946  -4.785   5.647  0.00  0.00    +0.137 C 
ATOM     25  C   UNL     1      -5.353  -5.577   4.402  0.00  0.00    +0.029 C 
BRANCH  24  26
ATOM     26  C   UNL     1      -5.635  -5.363   6.856  0.00  0.00    +0.226 C 
ATOM     27  O   UNL     1      -5.034  -6.112   7.596  0.00  0.00    -0.275 OA
ATOM     28  N   UNL     1      -6.919  -5.046   7.116  0.00  0.00    -0.314 N 
ATOM     29  H   UNL     1      -7.400  -4.447   6.524  0.00  0.00    +0.149 HD
BRANCH  28  30
ATOM     30  C   UNL     1      -7.588  -5.608   8.292  0.00  0.00    +0.107 C 
BRANCH  30  31
ATOM     31  C   UNL     1      -9.028  -5.093   8.354  0.00  0.00    +0.006 C 
ATOM     32  C   UNL     1      -9.019  -3.579   8.577  0.00  0.00    +0.005 C 
ATOM     33  C   UNL     1     -10.459  -3.064   8.638  0.00  0.00    +0.000 C 
ATOM     34  C   UNL     1     -11.195  -3.746   9.793  0.00  0.00    +0.000 C 
ATOM     35  C   UNL     1     -11.204  -5.260   9.570  0.00  0.00    +0.000 C 
ATOM     36  C   UNL     1      -9.764  -5.774   9.508  0.00  0.00    +0.005 C 
ENDBRANCH  30  31
ENDBRANCH  28  30
ENDBRANCH  24  26
ENDBRANCH  23  24
ENDBRANCH  14  23
TORSDOF 6
