REMARK  Name = ZINC42427779
REMARK  6 active torsions:
REMARK  status: ('A' for Active; 'I' for Inactive)
REMARK    1  A    between atoms: C_1  and  C_2
REMARK    2  A    between atoms: C_6  and  C_21
REMARK    3  A    between atoms: N_9  and  C_10
REMARK    4  A    between atoms: C_12  and  N_20
REMARK    5  A    between atoms: C_14  and  S_16
REMARK    6  A    between atoms: S_16  and  N_19
REMARK                            x       y       z     vdW  Elec       q    Type
REMARK                         _______ _______ _______ _____ _____    ______ ____
ROOT
ATOM      1  C   UNL     1       1.527   0.400   1.929  0.00  0.00    +0.034 A 
ATOM      2  C   UNL     1       1.340   0.406   3.304  0.00  0.00    +0.046 A 
ATOM      3  C   UNL     1       2.056   1.293   4.095  0.00  0.00    +0.028 A 
ATOM      4  C   UNL     1       2.958   2.173   3.507  0.00  0.00    +0.051 A 
ATOM      5  C   UNL     1       3.141   2.164   2.138  0.00  0.00    +0.108 A 
ATOM      6  C   UNL     1       2.434   1.278   1.349  0.00  0.00    +0.051 A 
ENDROOT
BRANCH   1  13
ATOM      7  C   UNL     1      -0.861   1.300   1.020  0.00  0.00    +0.028 C 
ATOM      8  C   UNL     1      -0.460  -0.086   0.509  0.00  0.00    +0.070 C 
ATOM      9  C   UNL     1      -1.543  -1.103   0.881  0.00  0.00    +0.023 C 
ATOM     10  C   UNL     1      -1.074  -2.507   0.492  0.00  0.00    +0.016 C 
ATOM     11  C   UNL     1       0.200  -2.853   1.264  0.00  0.00    +0.092 C 
ATOM     12  C   UNL     1       1.303  -1.856   0.896  0.00  0.00    +0.118 C 
ATOM     13  N   UNL     1       0.808  -0.492   1.130  0.00  0.00    -0.326 N 
BRANCH  11  14
ATOM     14  C   UNL     1       0.643  -4.248   0.905  0.00  0.00    +0.215 C 
ATOM     15  O   UNL     1       1.733  -4.429   0.406  0.00  0.00    -0.276 OA
ATOM     16  N   UNL     1      -0.174  -5.295   1.138  0.00  0.00    -0.329 N 
ATOM     17  H   UNL     1      -1.046  -5.151   1.537  0.00  0.00    +0.145 HD
ATOM     18  H   UNL     1       0.111  -6.193   0.906  0.00  0.00    +0.145 HD
ENDBRANCH  11  14
ENDBRANCH   1  13
BRANCH   5  19
ATOM     19  S   UNL     1       4.285   3.281   1.398  0.00  0.00    +0.056 S 
ATOM     20  O   UNL     1       3.873   3.449   0.048  0.00  0.00    -0.153 OA
ATOM     21  O   UNL     1       4.423   4.375   2.294  0.00  0.00    -0.153 OA
BRANCH  19  22
ATOM     22  N   UNL     1       5.755   2.519   1.353  0.00  0.00    -0.204 NA
ATOM     23  H   UNL     1       5.845   1.619   1.702  0.00  0.00    +0.144 HD
ATOM     24  H   UNL     1       6.525   2.973   0.977  0.00  0.00    +0.144 HD
ENDBRANCH  19  22
ENDBRANCH   5  19
BRANCH   3  25
ATOM     25  N   UNL     1       1.871   1.303   5.479  0.00  0.00    -0.358 N 
ATOM     26  H   UNL     1       1.241   0.689   5.888  0.00  0.00    +0.142 HD
ATOM     27  H   UNL     1       2.372   1.923   6.031  0.00  0.00    +0.142 HD
ENDBRANCH   3  25
TORSDOF 5
