REMARK  Name = ZINC39302959
REMARK  6 active torsions:
REMARK  status: ('A' for Active; 'I' for Inactive)
REMARK    1  A    between atoms: N_8  and  C_11
REMARK    2  A    between atoms: C_11  and  C_12
REMARK    3  A    between atoms: C_15  and  C_18
REMARK    4  A    between atoms: N_20  and  C_21
REMARK    5  A    between atoms: N_25  and  C_27
REMARK    6  A    between atoms: C_27  and  C_28
REMARK                            x       y       z     vdW  Elec       q    Type
REMARK                         _______ _______ _______ _____ _____    ______ ____
ROOT
ATOM      1  C   UNL     1       3.833  -5.412   4.887  0.00  0.00    +0.244 C 
ATOM      2  O   UNL     1       4.784  -4.791   5.319  0.00  0.00    -0.270 OA
ATOM      3  N   UNL     1       3.174  -6.275   5.684  0.00  0.00    -0.310 N 
ATOM      4  H   UNL     1       2.414  -6.771   5.340  0.00  0.00    +0.149 HD
ENDROOT
BRANCH   1   8
ATOM      5  C   UNL     1       2.587  -4.862   0.863  0.00  0.00    -0.026 A 
ATOM      6  C   UNL     1       3.670  -4.154   1.352  0.00  0.00    +0.006 A 
ATOM      7  C   UNL     1       4.080  -4.327   2.658  0.00  0.00    +0.013 A 
ATOM      8  C   UNL     1       3.399  -5.221   3.486  0.00  0.00    +0.037 A 
ATOM      9  C   UNL     1       2.307  -5.933   2.987  0.00  0.00    +0.013 A 
ATOM     10  C   UNL     1       1.905  -5.745   1.681  0.00  0.00    +0.006 A 
BRANCH   5  11
ATOM     11  C   UNL     1       2.145  -4.668  -0.564  0.00  0.00    +0.184 C 
BRANCH  11  19
ATOM     12  C   UNL     1      -2.373  -0.758  -0.719  0.00  0.00    +0.005 A 
ATOM     13  C   UNL     1      -1.314   0.154  -0.912  0.00  0.00    +0.018 A 
ATOM     14  C   UNL     1      -0.041  -0.275  -0.953  0.00  0.00    +0.098 A 
ATOM     15  N   UNL     1       0.256  -1.609  -0.808  0.00  0.00    -0.251 N 
ATOM     16  C   UNL     1      -0.762  -2.526  -0.617  0.00  0.00    +0.162 A 
ATOM     17  C   UNL     1      -2.107  -2.079  -0.573  0.00  0.00    +0.049 A 
ATOM     18  N   UNL     1      -0.229  -3.720  -0.506  0.00  0.00    -0.148 NA
ATOM     19  N   UNL     1       1.161  -3.584  -0.627  0.00  0.00    -0.208 N 
ATOM     20  C   UNL     1       1.428  -2.275  -0.812  0.00  0.00    +0.351 A 
ATOM     21  O   UNL     1       2.533  -1.782  -0.956  0.00  0.00    -0.244 OA
ENDBRANCH  11  19
ENDBRANCH   5  11
ENDBRANCH   1   8
BRANCH   3  22
ATOM     22  C   UNL     1       3.603  -6.465   7.072  0.00  0.00    +0.055 C 
ATOM     23  C   UNL     1       2.899  -5.449   8.009  0.00  0.00    +0.002 C 
ATOM     24  C   UNL     1       2.922  -6.202   9.362  0.00  0.00    -0.077 C 
ATOM     25  N   UNL     1       2.699  -7.620   9.009  0.00  0.00    +0.384 N 
ATOM     26  C   UNL     1       3.125  -7.830   7.610  0.00  0.00    -0.056 C 
ATOM     27  H   UNL     1       1.720  -7.844   9.106  0.00  0.00    -0.081 HD
BRANCH  25  28
ATOM     28  C   UNL     1       3.492  -8.481   9.897  0.00  0.00    -0.040 C 
BRANCH  28  29
ATOM     29  C   UNL     1       2.972  -8.363  11.307  0.00  0.00    -0.027 A 
ATOM     30  C   UNL     1       1.859  -9.085  11.697  0.00  0.00    +0.044 A 
ATOM     31  C   UNL     1       1.382  -8.976  12.991  0.00  0.00    +0.020 A 
ATOM     32  C   UNL     1       2.017  -8.144  13.894  0.00  0.00    +0.003 A 
ATOM     33  C   UNL     1       3.129  -7.422  13.505  0.00  0.00    +0.020 A 
ATOM     34  C   UNL     1       3.611  -7.535  12.213  0.00  0.00    +0.044 A 
ATOM     35 CL   UNL     1       5.012  -6.633  11.726  0.00  0.00    -0.083 Cl
ATOM     36 CL   UNL     1       1.060 -10.129  10.563  0.00  0.00    -0.083 Cl
ENDBRANCH  28  29
ENDBRANCH  25  28
ENDBRANCH   3  22
TORSDOF 6
