REMARK  Name = ZINC39711601
REMARK  7 active torsions:
REMARK  status: ('A' for Active; 'I' for Inactive)
REMARK    1  A    between atoms: C_1  and  O_2
REMARK    2  A    between atoms: O_2  and  C_3
REMARK    3  A    between atoms: C_3  and  C_4
REMARK    4  A    between atoms: C_4  and  N_5
REMARK    5  A    between atoms: C_6  and  C_10
REMARK    6  A    between atoms: C_10  and  C_12
REMARK    7  A    between atoms: C_10  and  N_27
REMARK                            x       y       z     vdW  Elec       q    Type
REMARK                         _______ _______ _______ _____ _____    ______ ____
ROOT
ATOM      1  C   UNL     1      -0.752  -2.832  -3.744  0.00  0.00    +0.018 C 
ENDROOT
BRANCH   1   2
ATOM      2  C   UNL     1      -1.539  -4.141  -3.843  0.00  0.00    +0.092 C 
ATOM      3  C   UNL     1      -1.572  -4.770  -2.464  0.00  0.00    -0.006 C 
ATOM      4  C   UNL     1      -1.059  -6.023  -2.336  0.00  0.00    -0.003 A 
ATOM      5  C   UNL     1      -1.053  -6.700  -1.038  0.00  0.00    +0.059 A 
ATOM      6  C   UNL     1      -0.533  -7.951  -0.943  0.00  0.00    +0.167 A 
ATOM      7  C   UNL     1      -0.000  -8.608  -2.073  0.00  0.00    +0.168 A 
ATOM      8  C   UNL     1       0.017  -8.015  -3.317  0.00  0.00    +0.073 A 
ATOM      9  C   UNL     1      -0.498  -6.726  -3.505  0.00  0.00    +0.044 A 
ATOM     10  N   UNL     1      -0.472  -6.169  -4.718  0.00  0.00    -0.284 N 
ATOM     11  C   UNL     1      -0.939  -4.958  -4.965  0.00  0.00    +0.223 C 
ATOM     12  O   UNL     1      -0.886  -4.503  -6.092  0.00  0.00    -0.275 OA
ATOM     13  O   UNL     1       0.444  -9.837  -1.680  0.00  0.00    -0.453 OA
ATOM     14  C   UNL     1       0.567  -9.766  -0.248  0.00  0.00    +0.466 C 
ATOM     15  O   UNL     1      -0.410  -8.782   0.136  0.00  0.00    -0.453 OA
ATOM     16  H   UNL     1      -0.092  -6.676  -5.452  0.00  0.00    +0.155 HD
ENDBRANCH   1   2
BRANCH   1  17
ATOM     17  N   UNL     1      -0.980  -2.031  -4.954  0.00  0.00    +0.387 N 
ATOM     18  C   UNL     1      -2.372  -1.653  -5.037  0.00  0.00    -0.078 C 
ATOM     19  C   UNL     1      -2.867  -1.662  -6.493  0.00  0.00    -0.019 C 
ATOM     20  C   UNL     1      -1.836  -1.073  -7.475  0.00  0.00    -0.002 C 
ATOM     21  C   UNL     1      -1.162   0.170  -6.957  0.00  0.00    -0.002 C 
ATOM     22  C   UNL     1       0.129  -0.228  -6.200  0.00  0.00    -0.019 C 
ATOM     23  C   UNL     1      -0.183  -0.794  -4.891  0.00  0.00    -0.078 C 
ATOM     24  H   UNL     1      -0.720  -2.564  -5.770  0.00  0.00    -0.081 HD
ENDBRANCH   1  17
BRANCH   1  26
ATOM     25  N   UNL     1       1.460  -3.048  -2.493  0.00  0.00    -0.229 N 
ATOM     26  C   UNL     1       0.717  -3.138  -3.612  0.00  0.00    +0.139 A 
ATOM     27  N   UNL     1       1.521  -3.544  -4.565  0.00  0.00    -0.115 NA
ATOM     28  N   UNL     1       2.695  -3.695  -4.058  0.00  0.00    -0.023 NA
ATOM     29  N   UNL     1       2.663  -3.391  -2.807  0.00  0.00    -0.044 NA
BRANCH  25  30
ATOM     30  C   UNL     1       0.991  -2.633  -1.169  0.00  0.00    +0.175 C 
BRANCH  30  31
ATOM     31  C   UNL     1       1.135  -1.116  -1.029  0.00  0.00    +0.183 C 
BRANCH  31  33
ATOM     32  C   UNL     1       0.771   0.696   0.497  0.00  0.00    +0.194 C 
ATOM     33  O   UNL     1       0.678  -0.711   0.263  0.00  0.00    -0.381 OA
ENDBRANCH  31  33
ENDBRANCH  30  31
ENDBRANCH  25  30
ENDBRANCH   1  26
TORSDOF 6
