REMARK  Name = ZINC01078789
REMARK  5 active torsions:
REMARK  status: ('A' for Active; 'I' for Inactive)
REMARK    1  A    between atoms: C_1  and  C_2
REMARK    2  A    between atoms: C_2  and  C_24
REMARK    3  A    between atoms: C_6  and  C_23
REMARK    4  A    between atoms: C_7  and  N_9
REMARK    5  A    between atoms: C_10  and  C_12
REMARK                            x       y       z     vdW  Elec       q    Type
REMARK                         _______ _______ _______ _____ _____    ______ ____
ROOT
ATOM      1  N   UNL     1       0.404  -2.748   2.432  0.00  0.00    -0.308 N 
ATOM      2  C   UNL     1       1.540  -3.298   2.905  0.00  0.00    +0.251 C 
ATOM      3  O   UNL     1       2.558  -3.258   2.240  0.00  0.00    -0.270 OA
ATOM      4  H   UNL     1      -0.407  -2.780   2.962  0.00  0.00    +0.149 HD
ENDROOT
BRANCH   2   5
ATOM      5  C   UNL     1       1.549  -3.947   4.227  0.00  0.00    +0.122 A 
ATOM      6  C   UNL     1       2.704  -4.517   4.743  0.00  0.00    +0.031 A 
ATOM      7  C   UNL     1       2.627  -5.153   6.009  0.00  0.00    +0.018 A 
ATOM      8  C   UNL     1       3.793  -5.567   6.670  0.00  0.00    +0.011 A 
ATOM      9  C   UNL     1       3.704  -6.139   7.906  0.00  0.00    +0.001 A 
ATOM     10  C   UNL     1       2.470  -6.321   8.514  0.00  0.00    +0.004 A 
ATOM     11  C   UNL     1       1.309  -5.939   7.874  0.00  0.00    +0.047 A 
ATOM     12  C   UNL     1       1.373  -5.362   6.613  0.00  0.00    +0.139 A 
ATOM     13  O   UNL     1       0.238  -5.021   5.956  0.00  0.00    -0.422 OA
ATOM     14  C   UNL     1       0.332  -4.012   5.057  0.00  0.00    +0.350 A 
ATOM     15  O   UNL     1      -0.557  -3.190   4.935  0.00  0.00    -0.244 OA
ENDBRANCH   2   5
BRANCH   1  22
ATOM     16  C   UNL     1       0.055   1.535   0.014  0.00  0.00    +0.012 C 
ATOM     17  C   UNL     1       0.039   0.005   0.006  0.00  0.00    -0.025 C 
ATOM     18  C   UNL     1      -1.375  -0.571   0.368  0.00  0.00    -0.003 C 
ATOM     19  C   UNL     1      -1.536  -0.044   1.827  0.00  0.00    +0.005 C 
ATOM     20  C   UNL     1      -0.104  -0.062   2.409  0.00  0.00    +0.009 C 
ATOM     21  C   UNL     1       0.787  -0.598   1.247  0.00  0.00    -0.008 C 
ATOM     22  C   UNL     1       0.396  -2.102   1.117  0.00  0.00    +0.080 C 
ATOM     23  C   UNL     1      -1.036  -2.084   0.535  0.00  0.00    +0.027 C 
ATOM     24  C   UNL     1       2.282  -0.288   1.353  0.00  0.00    +0.013 C 
ATOM     25  C   UNL     1       0.570  -0.560  -1.313  0.00  0.00    +0.012 C 
ENDBRANCH   1  22
TORSDOF 2
