REMARK  Name = ZINC08783333
REMARK  6 active torsions:
REMARK  status: ('A' for Active; 'I' for Inactive)
REMARK    1  A    between atoms: C_7  and  C_21
REMARK    2  A    between atoms: C_7  and  O_33
REMARK    3  A    between atoms: N_10  and  C_11
REMARK    4  A    between atoms: C_11  and  N_60
REMARK    5  A    between atoms: C_21  and  C_22
REMARK    6  A    between atoms: C_22  and  C_24
REMARK                            x       y       z     vdW  Elec       q    Type
REMARK                         _______ _______ _______ _____ _____    ______ ____
ROOT
ATOM      1  C   UNL     1      -9.329   0.043  -0.203  0.00  0.00    +0.000 A 
ATOM      2  C   UNL     1      -9.918   0.464   0.976  0.00  0.00    +0.002 A 
ATOM      3  C   UNL     1      -9.295   1.404   1.770  0.00  0.00    +0.024 A 
ATOM      4  C   UNL     1      -8.065   1.937   1.389  0.00  0.00    +0.041 A 
ATOM      5  C   UNL     1      -7.484   1.506   0.204  0.00  0.00    +0.014 A 
ATOM      6  C   UNL     1      -8.107   0.567  -0.587  0.00  0.00    +0.009 A 
ATOM      7  C   UNL     1      -6.179   2.257   0.072  0.00  0.00    +0.175 C 
ATOM      8  C   UNL     1      -6.130   3.129   1.308  0.00  0.00    +0.255 C 
ATOM      9  O   UNL     1      -5.247   3.903   1.609  0.00  0.00    -0.272 OA
ATOM     10  N   UNL     1      -7.250   2.884   2.010  0.00  0.00    -0.285 N 
ENDROOT
BRANCH   7  11
ATOM     11  O   UNL     1      -6.180   3.059  -1.110  0.00  0.00    -0.374 OA
ATOM     12  H   UNL     1      -5.378   3.586  -1.229  0.00  0.00    +0.211 HD
ENDBRANCH   7  11
BRANCH  10  13
ATOM     13  C   UNL     1      -7.577   3.537   3.280  0.00  0.00    +0.038 C 
BRANCH  13  23
ATOM     14  C   UNL     1      -5.811   2.041   3.989  0.00  0.00    -0.071 C 
ATOM     15  C   UNL     1      -5.361   1.112   5.119  0.00  0.00    +0.046 C 
ATOM     16  C   UNL     1      -5.113   1.938   6.383  0.00  0.00    +0.167 C 
ATOM     17  C   UNL     1      -6.385   2.704   6.753  0.00  0.00    +0.046 C 
ATOM     18  C   UNL     1      -6.804   3.585   5.573  0.00  0.00    -0.071 C 
ATOM     19  O   UNL     1      -4.748   1.064   7.463  0.00  0.00    -0.346 OA
ATOM     20  C   UNL     1      -3.300   1.079   7.478  0.00  0.00    +0.191 C 
ATOM     21  C   UNL     1      -2.996   2.549   7.093  0.00  0.00    +0.191 C 
ATOM     22  O   UNL     1      -4.043   2.863   6.152  0.00  0.00    -0.346 OA
ATOM     23  N   UNL     1      -7.057   2.724   4.398  0.00  0.00    +0.391 N 
ATOM     24  H   UNL     1      -7.757   2.016   4.649  0.00  0.00    -0.079 HD
ENDBRANCH  13  23
ENDBRANCH  10  13
BRANCH   7  25
ATOM     25  C   UNL     1      -4.999   1.283   0.056  0.00  0.00    +0.129 C 
BRANCH  25  26
ATOM     26  C   UNL     1      -3.707   2.059   0.048  0.00  0.00    +0.167 C 
ATOM     27  O   UNL     1      -3.728   3.272   0.054  0.00  0.00    -0.292 OA
BRANCH  26  28
ATOM     28  C   UNL     1      -2.423   1.347   0.032  0.00  0.00    +0.021 A 
ATOM     29  C   UNL     1      -2.396  -0.053   0.024  0.00  0.00    +0.015 A 
ATOM     30  C   UNL     1      -1.190  -0.717   0.009  0.00  0.00    +0.050 A 
ATOM     31  C   UNL     1       0.002  -0.004   0.002  0.00  0.00    +0.166 A 
ATOM     32  C   UNL     1      -0.017   1.392   0.010  0.00  0.00    +0.167 A 
ATOM     33  C   UNL     1      -1.221   2.066   0.030  0.00  0.00    +0.061 A 
ATOM     34  O   UNL     1       1.271   1.845  -0.000  0.00  0.00    -0.453 OA
ATOM     35  C   UNL     1       2.076   0.720   0.399  0.00  0.00    +0.466 C 
ATOM     36  O   UNL     1       1.300  -0.421  -0.013  0.00  0.00    -0.453 OA
ENDBRANCH  26  28
ENDBRANCH  25  26
ENDBRANCH   7  25
TORSDOF 6
