REMARK  Name = ZINC08598832
REMARK  9 active torsions:
REMARK  status: ('A' for Active; 'I' for Inactive)
REMARK    1  A    between atoms: C_1  and  C_2
REMARK    2  A    between atoms: C_2  and  C_3
REMARK    3  A    between atoms: C_2  and  C_4
REMARK    4  A    between atoms: C_7  and  N_10
REMARK    5  A    between atoms: C_11  and  C_13
REMARK    6  A    between atoms: C_13  and  C_15
REMARK    7  A    between atoms: C_13  and  N_21
REMARK    8  A    between atoms: N_21  and  S_22
REMARK    9  A    between atoms: S_22  and  C_25
REMARK                            x       y       z     vdW  Elec       q    Type
REMARK                         _______ _______ _______ _____ _____    ______ ____
ROOT
ATOM      1  C   UNL     1       2.784  -2.994   6.808  0.00  0.00    +0.192 C 
ENDROOT
BRANCH   1   2
ATOM      2  C   UNL     1       3.976  -3.854   6.475  0.00  0.00    -0.020 A 
ATOM      3  C   UNL     1       3.802  -5.194   6.181  0.00  0.00    +0.006 A 
ATOM      4  C   UNL     1       4.896  -5.982   5.877  0.00  0.00    +0.000 A 
ATOM      5  C   UNL     1       6.164  -5.431   5.865  0.00  0.00    +0.000 A 
ATOM      6  C   UNL     1       6.338  -4.091   6.158  0.00  0.00    +0.000 A 
ATOM      7  C   UNL     1       5.244  -3.302   6.459  0.00  0.00    +0.006 A 
ENDBRANCH   1   2
BRANCH   1   9
ATOM      8  N   UNL     1       2.746  -1.883   4.598  0.00  0.00    -0.284 N 
ATOM      9  C   UNL     1       2.085  -2.592   5.535  0.00  0.00    +0.240 C 
ATOM     10  O   UNL     1       0.927  -2.905   5.354  0.00  0.00    -0.273 OA
ATOM     11  H   UNL     1       3.692  -1.698   4.708  0.00  0.00    +0.155 HD
BRANCH   8  15
ATOM     12  C   UNL     1       0.727  -0.486   1.232  0.00  0.00    -0.045 A 
ATOM     13  C   UNL     1       0.068  -0.576   2.444  0.00  0.00    +0.006 A 
ATOM     14  C   UNL     1       0.734  -1.038   3.562  0.00  0.00    +0.023 A 
ATOM     15  C   UNL     1       2.068  -1.415   3.467  0.00  0.00    +0.033 A 
ATOM     16  C   UNL     1       2.727  -1.324   2.248  0.00  0.00    +0.023 A 
ATOM     17  C   UNL     1       2.053  -0.865   1.133  0.00  0.00    +0.006 A 
BRANCH  12  19
ATOM     18  C   UNL     1      -1.201  -0.888  -0.275  0.00  0.00    +0.012 C 
ATOM     19  C   UNL     1      -0.003   0.019   0.015  0.00  0.00    +0.013 C 
ATOM     20  C   UNL     1      -0.494   1.445   0.270  0.00  0.00    +0.012 C 
ENDBRANCH  12  19
ENDBRANCH   8  15
ENDBRANCH   1   9
BRANCH   1  21
ATOM     21  N   UNL     1       1.858  -3.750   7.655  0.00  0.00    -0.174 NA
ATOM     22  H   UNL     1       1.203  -4.340   7.252  0.00  0.00    +0.149 HD
BRANCH  21  23
ATOM     23  S   UNL     1       1.931  -3.596   9.303  0.00  0.00    +0.059 S 
ATOM     24  O   UNL     1       0.903  -4.422   9.833  0.00  0.00    -0.153 OA
ATOM     25  O   UNL     1       3.296  -3.751   9.665  0.00  0.00    -0.153 OA
BRANCH  23  26
ATOM     26  C   UNL     1       1.492  -1.934   9.690  0.00  0.00    +0.106 A 
ATOM     27  C   UNL     1       2.471  -0.960   9.756  0.00  0.00    +0.030 A 
ATOM     28  C   UNL     1       2.131   0.344  10.059  0.00  0.00    +0.025 A 
ATOM     29  C   UNL     1       0.804   0.675  10.298  0.00  0.00    +0.037 A 
ATOM     30  C   UNL     1      -0.177  -0.305  10.232  0.00  0.00    -0.024 A 
ATOM     31  C   UNL     1       0.169  -1.606   9.923  0.00  0.00    +0.034 A 
ATOM     32  C   UNL     1      -1.616   0.055  10.490  0.00  0.00    +0.046 C 
ATOM     33  C   UNL     1      -1.685   1.160  11.545  0.00  0.00    +0.101 C 
ATOM     34  C   UNL     1      -0.728   2.266  11.192  0.00  0.00    +0.218 C 
ATOM     35  O   UNL     1      -1.023   3.416  11.438  0.00  0.00    -0.275 OA
ATOM     36  N   UNL     1       0.453   1.993  10.606  0.00  0.00    -0.285 N 
ATOM     37  H   UNL     1       1.064   2.716  10.395  0.00  0.00    +0.155 HD
ENDBRANCH  23  26
ENDBRANCH  21  23
ENDBRANCH   1  21
TORSDOF 7
