REMARK  Name = ZINC30750521
REMARK  12 active torsions:
REMARK  status: ('A' for Active; 'I' for Inactive)
REMARK    1  A    between atoms: C_1  and  C_2
REMARK    2  A    between atoms: C_5  and  N_9
REMARK    3  A    between atoms: C_6  and  C_8
REMARK    4  A    between atoms: C_10  and  C_12
REMARK    5  A    between atoms: C_12  and  C_13
REMARK    6  A    between atoms: N_18  and  N_19
REMARK    7  A    between atoms: N_19  and  C_20
REMARK    8  A    between atoms: N_19  and  C_29
REMARK    9  A    between atoms: C_21  and  C_22
REMARK   10  A    between atoms: C_29  and  C_30
REMARK   11  A    between atoms: C_29  and  C_31
REMARK   12  A    between atoms: C_29  and  C_32
REMARK                            x       y       z     vdW  Elec       q    Type
REMARK                         _______ _______ _______ _____ _____    ______ ____
ROOT
ATOM      1  C   UNL     1      -0.467  -6.730  -3.196  0.00  0.00    +0.149 C 
ATOM      2  C   UNL     1      -0.602  -8.243  -3.134  0.00  0.00    +0.233 C 
ATOM      3  N   UNL     1       0.421  -8.934  -3.606  0.00  0.00    -0.263 N 
ATOM      4  C   UNL     1       1.552  -8.319  -4.127  0.00  0.00    +0.178 C 
ATOM      5  N   UNL     1       2.618  -8.880  -4.619  0.00  0.00    -0.157 NA
ATOM      6  S   UNL     1       1.198  -6.574  -3.964  0.00  0.00    -0.076 S 
ATOM      7  O   UNL     1      -1.588  -8.783  -2.680  0.00  0.00    -0.274 OA
ATOM      8  H   UNL     1       0.381  -9.903  -3.588  0.00  0.00    +0.157 HD
ENDROOT
BRANCH   1   9
ATOM      9  C   UNL     1      -0.491  -6.115  -1.795  0.00  0.00    +0.120 C 
BRANCH   9  11
ATOM     10  N   UNL     1      -0.387  -3.858  -0.789  0.00  0.00    -0.285 N 
ATOM     11  C   UNL     1      -0.386  -4.616  -1.903  0.00  0.00    +0.219 C 
ATOM     12  O   UNL     1      -0.300  -4.091  -2.993  0.00  0.00    -0.275 OA
ATOM     13  H   UNL     1      -0.400  -4.280   0.085  0.00  0.00    +0.155 HD
BRANCH  10  18
ATOM     14  C   UNL     1      -0.317   1.800  -1.206  0.00  0.00    +0.044 C 
ATOM     15  C   UNL     1      -0.335   0.297  -1.095  0.00  0.00    -0.050 A 
ATOM     16  C   UNL     1       0.340  -0.472  -2.026  0.00  0.00    +0.005 A 
ATOM     17  C   UNL     1       0.324  -1.850  -1.927  0.00  0.00    +0.024 A 
ATOM     18  C   UNL     1      -0.369  -2.462  -0.891  0.00  0.00    +0.036 A 
ATOM     19  C   UNL     1      -1.045  -1.688   0.042  0.00  0.00    -0.029 A 
ATOM     20  C   UNL     1      -1.022  -0.310  -0.060  0.00  0.00    +0.008 A 
ATOM     21  C   UNL     1      -1.799  -2.348   1.167  0.00  0.00    +0.045 C 
ENDBRANCH  10  18
ENDBRANCH   9  11
ENDBRANCH   1   9
BRANCH   5  22
ATOM     22  N   UNL     1       2.673 -10.272  -4.767  0.00  0.00    -0.224 N 
BRANCH  22  23
ATOM     23  C   UNL     1       3.696 -11.044  -4.058  0.00  0.00    +0.048 C 
ATOM     24  C   UNL     1       4.587 -10.094  -3.256  0.00  0.00    +0.033 C 
ATOM     25  C   UNL     1       3.020 -12.035  -3.108  0.00  0.00    +0.033 C 
ATOM     26  C   UNL     1       4.549 -11.810  -5.071  0.00  0.00    +0.033 C 
ENDBRANCH  22  23
BRANCH  22  27
ATOM     27  C   UNL     1       1.764 -10.914  -5.578  0.00  0.00    +0.096 C 
ATOM     28  C   UNL     1       1.820 -12.245  -5.725  0.00  0.00    +0.025 C 
BRANCH  28  29
ATOM     29  C   UNL     1       0.886 -12.926  -6.640  0.00  0.00    -0.024 A 
ATOM     30  C   UNL     1      -0.054 -12.186  -7.361  0.00  0.00    +0.009 A 
ATOM     31  C   UNL     1      -0.924 -12.829  -8.216  0.00  0.00    +0.020 A 
ATOM     32  C   UNL     1      -0.868 -14.205  -8.361  0.00  0.00    +0.041 A 
ATOM     33  C   UNL     1       0.062 -14.945  -7.649  0.00  0.00    +0.020 A 
ATOM     34  C   UNL     1       0.942 -14.314  -6.795  0.00  0.00    +0.009 A 
ATOM     35 CL   UNL     1      -1.967 -15.007  -9.439  0.00  0.00    -0.084 Cl
ENDBRANCH  28  29
ENDBRANCH  22  27
ENDBRANCH   5  22
TORSDOF 7
