REMARK  Name = ZINC40517293
REMARK  4 active torsions:
REMARK  status: ('A' for Active; 'I' for Inactive)
REMARK    1  A    between atoms: C_1  and  C_2
REMARK    2  A    between atoms: C_2  and  C_14
REMARK    3  A    between atoms: C_3  and  C_4
REMARK    4  A    between atoms: C_4  and  N_5
REMARK                            x       y       z     vdW  Elec       q    Type
REMARK                         _______ _______ _______ _____ _____    ______ ____
ROOT
ATOM      1  N   UNL     1      -0.837  -0.544   3.354  0.00  0.00    -0.264 N 
ATOM      2  C   UNL     1      -0.569  -0.998   4.598  0.00  0.00    +0.126 A 
ATOM      3  C   UNL     1      -1.718  -1.498   5.110  0.00  0.00    +0.086 A 
ATOM      4  C   UNL     1      -2.721  -1.345   4.147  0.00  0.00    +0.249 A 
ATOM      5  N   UNL     1      -2.195  -0.769   3.096  0.00  0.00    -0.145 NA
ATOM      6  N   UNL     1      -4.135  -1.759   4.293  0.00  0.00    +0.078 N 
ATOM      7  O   UNL     1      -4.509  -2.281   5.317  0.00  0.00    -0.125 OA
ATOM      8  O   UNL     1      -4.915  -1.575   3.388  0.00  0.00    -0.125 OA
ATOM      9 BR   UNL     1      -1.929  -2.268   6.824  0.00  0.00    -0.045 Br
ENDROOT
BRANCH   1  10
ATOM     10  C   UNL     1       0.123   0.078   2.439  0.00  0.00    +0.170 C 
BRANCH  10  13
ATOM     11  C   UNL     1      -0.201   1.488   0.018  0.00  0.00    +0.038 C 
ATOM     12  C   UNL     1      -0.087  -0.015   0.009  0.00  0.00    -0.078 C 
ATOM     13  C   UNL     1       0.121  -0.664   1.128  0.00  0.00    -0.005 C 
ATOM     14  C   UNL     1      -0.213  -0.772  -1.289  0.00  0.00    +0.038 C 
ENDBRANCH  10  13
ENDBRANCH   1  10
TORSDOF 2
