REMARK  Name = ZINC16133536
REMARK  7 active torsions:
REMARK  status: ('A' for Active; 'I' for Inactive)
REMARK    1  A    between atoms: C_1  and  C_2
REMARK    2  A    between atoms: C_5  and  N_8
REMARK    3  A    between atoms: C_12  and  S_13
REMARK    4  A    between atoms: S_13  and  C_14
REMARK    5  A    between atoms: C_14  and  C_15
REMARK    6  A    between atoms: C_18  and  C_24
REMARK    7  A    between atoms: C_20  and  N_21
REMARK                            x       y       z     vdW  Elec       q    Type
REMARK                         _______ _______ _______ _____ _____    ______ ____
ROOT
ATOM      1  N   UNL     1       4.294   2.515   1.399  0.00  0.00    -0.259 N 
ATOM      2  C   UNL     1       4.238   1.149   1.455  0.00  0.00    +0.225 A 
ATOM      3  N   UNL     1       5.461   0.689   1.358  0.00  0.00    -0.112 NA
ATOM      4  N   UNL     1       6.327   1.782   1.228  0.00  0.00    -0.120 NA
ATOM      5  C   UNL     1       5.607   2.877   1.257  0.00  0.00    +0.198 A 
ATOM      6  N   UNL     1       3.087   0.384   1.596  0.00  0.00    -0.299 N 
ATOM      7  C   UNL     1       2.911  -0.519   0.452  0.00  0.00    +0.108 C 
ATOM      8  C   UNL     1       1.565  -1.237   0.569  0.00  0.00    +0.019 C 
ATOM      9  C   UNL     1       1.527  -2.030   1.879  0.00  0.00    +0.003 C 
ATOM     10  C   UNL     1       1.761  -1.073   3.051  0.00  0.00    +0.019 C 
ATOM     11  C   UNL     1       3.101  -0.360   2.862  0.00  0.00    +0.108 C 
ENDROOT
BRANCH   1  16
ATOM     12  C   UNL     1      -0.133   6.055   1.696  0.00  0.00    +0.044 C 
ATOM     13  C   UNL     1       1.042   5.115   1.617  0.00  0.00    -0.050 A 
ATOM     14  C   UNL     1       1.975   5.090   2.637  0.00  0.00    +0.005 A 
ATOM     15  C   UNL     1       3.054   4.230   2.568  0.00  0.00    +0.026 A 
ATOM     16  C   UNL     1       3.200   3.390   1.472  0.00  0.00    +0.052 A 
ATOM     17  C   UNL     1       2.265   3.421   0.447  0.00  0.00    +0.026 A 
ATOM     18  C   UNL     1       1.186   4.280   0.525  0.00  0.00    +0.005 A 
ENDBRANCH   1  16
BRANCH   5  19
ATOM     19  S   UNL     1       6.220   4.525   1.136  0.00  0.00    -0.081 S 
BRANCH  19  20
ATOM     20  C   UNL     1       8.014   4.314   0.969  0.00  0.00    +0.114 C 
BRANCH  20  21
ATOM     21  C   UNL     1       8.670   5.666   0.855  0.00  0.00    -0.007 A 
ATOM     22  C   UNL     1       9.210   6.267   1.979  0.00  0.00    +0.007 A 
ATOM     23  C   UNL     1       9.812   7.503   1.881  0.00  0.00    +0.013 A 
ATOM     24  C   UNL     1       9.877   8.149   0.645  0.00  0.00    +0.039 A 
ATOM     25  C   UNL     1       9.331   7.538  -0.484  0.00  0.00    +0.046 A 
ATOM     26  C   UNL     1       8.736   6.298  -0.374  0.00  0.00    +0.131 A 
BRANCH  24  27
ATOM     27  C   UNL     1      10.521   9.475   0.533  0.00  0.00    +0.242 C 
ATOM     28  O   UNL     1      10.576  10.035  -0.545  0.00  0.00    -0.270 OA
ATOM     29  N   UNL     1      11.047  10.063   1.625  0.00  0.00    -0.325 N 
ATOM     30  H   UNL     1      11.004   9.617   2.485  0.00  0.00    +0.145 HD
ATOM     31  H   UNL     1      11.470  10.933   1.552  0.00  0.00    +0.145 HD
ENDBRANCH  24  27
BRANCH  26  32
ATOM     32  N   UNL     1       8.161   5.645  -1.571  0.00  0.00    +0.057 N 
ATOM     33  O   UNL     1       8.313   6.147  -2.671  0.00  0.00    -0.126 OA
ATOM     34  O   UNL     1       7.537   4.605  -1.458  0.00  0.00    -0.126 OA
ENDBRANCH  26  32
ENDBRANCH  20  21
ENDBRANCH  19  20
ENDBRANCH   5  19
TORSDOF 6
