REMARK  Name = ZINC35991372
REMARK  11 active torsions:
REMARK  status: ('A' for Active; 'I' for Inactive)
REMARK    1  A    between atoms: C_1  and  C_2
REMARK    2  A    between atoms: C_2  and  N_3
REMARK    3  A    between atoms: C_4  and  C_24
REMARK    4  A    between atoms: C_5  and  C_19
REMARK    5  A    between atoms: C_6  and  C_11
REMARK    6  A    between atoms: C_19  and  O_21
REMARK    7  A    between atoms: O_21  and  C_22
REMARK    8  A    between atoms: C_22  and  C_23
REMARK    9  A    between atoms: C_24  and  N_25
REMARK   10  A    between atoms: N_28  and  C_31
REMARK   11  A    between atoms: C_31  and  C_32
REMARK                            x       y       z     vdW  Elec       q    Type
REMARK                         _______ _______ _______ _____ _____    ______ ____
ROOT
ATOM      1  N   UNL     1       0.588  -0.295  -1.347  0.00  0.00    -0.258 N 
ATOM      2  C   UNL     1      -0.065  -0.547  -2.520  0.00  0.00    +0.041 C 
ATOM      3  C   UNL     1       0.585  -1.075  -3.580  0.00  0.00    +0.080 C 
ATOM      4  C   UNL     1       2.061  -1.376  -3.423  0.00  0.00    +0.145 C 
ATOM      5  N   UNL     1       2.671  -1.067  -2.119  0.00  0.00    -0.288 N 
ATOM      6  C   UNL     1       1.891  -0.537  -1.156  0.00  0.00    +0.307 C 
ATOM      7  O   UNL     1       2.386  -0.274  -0.077  0.00  0.00    -0.252 OA
ATOM      8  H   UNL     1       3.612  -1.237  -1.958  0.00  0.00    +0.151 HD
ENDROOT
BRANCH   4   9
ATOM      9  C   UNL     1       2.267  -2.844  -3.695  0.00  0.00    -0.003 A 
ATOM     10  C   UNL     1       2.242  -3.750  -2.651  0.00  0.00    +0.007 A 
ATOM     11  C   UNL     1       2.430  -5.097  -2.899  0.00  0.00    +0.002 A 
ATOM     12  C   UNL     1       2.645  -5.539  -4.192  0.00  0.00    +0.021 A 
ATOM     13  C   UNL     1       2.670  -4.634  -5.237  0.00  0.00    +0.060 A 
ATOM     14  C   UNL     1       2.475  -3.285  -4.989  0.00  0.00    +0.064 A 
ATOM     15 CL   UNL     1       2.499  -2.149  -6.301  0.00  0.00    -0.082 Cl
ATOM     16 CL   UNL     1       2.939  -5.188  -6.860  0.00  0.00    -0.082 Cl
ENDBRANCH   4   9
BRANCH   1  18
ATOM     17  C   UNL     1      -0.130   1.806  -0.320  0.00  0.00    +0.025 C 
ATOM     18  C   UNL     1      -0.179   0.279  -0.238  0.00  0.00    +0.111 C 
ENDBRANCH   1  18
BRANCH   3  19
ATOM     19  C   UNL     1      -0.091  -1.337  -4.794  0.00  0.00    +0.339 C 
ATOM     20  O   UNL     1      -0.490  -2.461  -5.038  0.00  0.00    -0.245 OA
BRANCH  19  21
ATOM     21  O   UNL     1      -0.292  -0.342  -5.683  0.00  0.00    -0.462 OA
BRANCH  21  22
ATOM     22  C   UNL     1      -0.981  -0.679  -6.889  0.00  0.00    +0.229 C 
ATOM     23  C   UNL     1      -1.115   0.568  -7.766  0.00  0.00    +0.048 C 
ENDBRANCH  21  22
ENDBRANCH  19  21
ENDBRANCH   3  19
BRANCH   2  24
ATOM     24  C   UNL     1      -1.534  -0.232  -2.632  0.00  0.00    +0.136 C 
BRANCH  24  25
ATOM     25  N   UNL     1      -2.295  -1.120  -1.744  0.00  0.00    -0.300 NA
ATOM     26  C   UNL     1      -2.207  -2.517  -2.193  0.00  0.00    +0.066 C 
ATOM     27  C   UNL     1      -2.961  -3.415  -1.210  0.00  0.00    -0.063 C 
ATOM     28  N   UNL     1      -4.366  -2.993  -1.140  0.00  0.00    +0.384 N 
ATOM     29  C   UNL     1      -4.439  -1.604  -0.666  0.00  0.00    -0.063 C 
ATOM     30  C   UNL     1      -3.698  -0.691  -1.645  0.00  0.00    +0.066 C 
ATOM     31  H   UNL     1      -4.783  -3.057  -2.057  0.00  0.00    -0.081 HD
BRANCH  28  32
ATOM     32  C   UNL     1      -5.094  -3.866  -0.210  0.00  0.00    -0.043 C 
BRANCH  32  33
ATOM     33  C   UNL     1      -6.559  -3.513  -0.230  0.00  0.00    -0.064 A 
ATOM     34  C   UNL     1      -7.051  -2.556   0.638  0.00  0.00    +0.002 A 
ATOM     35  C   UNL     1      -8.395  -2.232   0.619  0.00  0.00    +0.000 A 
ATOM     36  C   UNL     1      -9.246  -2.864  -0.268  0.00  0.00    +0.000 A 
ATOM     37  C   UNL     1      -8.753  -3.820  -1.137  0.00  0.00    +0.000 A 
ATOM     38  C   UNL     1      -7.409  -4.141  -1.121  0.00  0.00    +0.002 A 
ENDBRANCH  32  33
ENDBRANCH  28  32
ENDBRANCH  24  25
ENDBRANCH   2  24
TORSDOF 9
