REMARK  Name = ZINC35671747
REMARK  12 active torsions:
REMARK  status: ('A' for Active; 'I' for Inactive)
REMARK    1  A    between atoms: C_1  and  C_2
REMARK    2  A    between atoms: C_5  and  C_8
REMARK    3  A    between atoms: N_10  and  C_11
REMARK    4  A    between atoms: N_10  and  C_15
REMARK    5  A    between atoms: C_11  and  C_12
REMARK    6  A    between atoms: C_12  and  O_13
REMARK    7  A    between atoms: O_13  and  C_14
REMARK    8  A    between atoms: C_15  and  C_16
REMARK    9  A    between atoms: C_21  and  C_32
REMARK   10  A    between atoms: N_23  and  C_24
REMARK   11  A    between atoms: C_27  and  C_31
REMARK   12  A    between atoms: C_28  and  C_30
REMARK                            x       y       z     vdW  Elec       q    Type
REMARK                         _______ _______ _______ _____ _____    ______ ____
ROOT
ATOM      1  C   UNL     1       1.696  -6.628   0.971  0.00  0.00    +0.237 C 
ATOM      2  O   UNL     1       2.469  -5.696   0.900  0.00  0.00    -0.274 OA
ATOM      3  N   UNL     1       2.160  -7.893   0.922  0.00  0.00    -0.254 N 
ATOM      4  C   UNL     1       3.522  -8.128   0.792  0.00  0.00    +0.207 A 
ATOM      5  N   UNL     1       4.452  -7.209   0.712  0.00  0.00    -0.214 NA
ATOM      6  C   UNL     1       5.658  -7.804   0.594  0.00  0.00    +0.091 A 
ATOM      7  C   UNL     1       5.466  -9.147   0.601  0.00  0.00    +0.122 A 
ATOM      8  N   UNL     1       4.115  -9.355   0.732  0.00  0.00    -0.287 N 
ATOM      9  H   UNL     1       1.542  -8.639   0.979  0.00  0.00    +0.158 HD
ENDROOT
BRANCH   8  10
ATOM     10  C   UNL     1       3.465 -10.596   0.789  0.00  0.00    +0.049 A 
ATOM     11  C   UNL     1       2.545 -10.854   1.796  0.00  0.00    +0.026 A 
ATOM     12  C   UNL     1       1.907 -12.078   1.850  0.00  0.00    +0.005 A 
ATOM     13  C   UNL     1       2.184 -13.046   0.903  0.00  0.00    -0.047 A 
ATOM     14  C   UNL     1       3.101 -12.792  -0.101  0.00  0.00    -0.046 A 
ATOM     15  C   UNL     1       3.737 -11.568  -0.164  0.00  0.00    +0.029 A 
ATOM     16  C   UNL     1       3.400 -13.850  -1.132  0.00  0.00    +0.044 C 
ATOM     17  C   UNL     1       1.487 -14.380   0.965  0.00  0.00    +0.044 C 
ENDBRANCH   8  10
BRANCH   6  18
ATOM     18  C   UNL     1       6.964  -7.110   0.476  0.00  0.00    +0.002 A 
ATOM     19  C   UNL     1       8.139  -7.849   0.353  0.00  0.00    +0.011 A 
ATOM     20  C   UNL     1       9.352  -7.199   0.243  0.00  0.00    +0.020 A 
ATOM     21  C   UNL     1       9.402  -5.816   0.255  0.00  0.00    +0.041 A 
ATOM     22  C   UNL     1       8.237  -5.077   0.377  0.00  0.00    +0.020 A 
ATOM     23  C   UNL     1       7.019  -5.718   0.481  0.00  0.00    +0.011 A 
ATOM     24 CL   UNL     1      10.930  -5.004   0.118  0.00  0.00    -0.084 Cl
ENDBRANCH   6  18
BRANCH   1  25
ATOM     25  C   UNL     1       0.218  -6.373   1.113  0.00  0.00    +0.204 C 
BRANCH  25  28
ATOM     26  C   UNL     1      -0.332  -4.275   0.002  0.00  0.00    +0.247 C 
ATOM     27  O   UNL     1      -0.476  -3.068   0.014  0.00  0.00    -0.270 OA
ATOM     28  N   UNL     1      -0.028  -4.929   1.140  0.00  0.00    -0.287 N 
BRANCH  26  33
ATOM     29  C   UNL     1      -0.952  -7.198  -4.916  0.00  0.00    +0.044 C 
ATOM     30  C   UNL     1      -0.790  -6.433  -3.628  0.00  0.00    -0.050 A 
ATOM     31  C   UNL     1       0.336  -6.628  -2.848  0.00  0.00    +0.004 A 
ATOM     32  C   UNL     1       0.491  -5.931  -1.668  0.00  0.00    +0.013 A 
ATOM     33  C   UNL     1      -0.491  -5.026  -1.262  0.00  0.00    +0.037 A 
ATOM     34  C   UNL     1      -1.625  -4.833  -2.054  0.00  0.00    +0.013 A 
ATOM     35  C   UNL     1      -1.764  -5.533  -3.234  0.00  0.00    +0.004 A 
ENDBRANCH  26  33
BRANCH  28  36
ATOM     36  C   UNL     1       0.058  -4.196   2.406  0.00  0.00    +0.136 C 
BRANCH  36  37
ATOM     37  C   UNL     1      -1.339  -4.069   3.017  0.00  0.00    +0.178 C 
BRANCH  37  38
ATOM     38  O   UNL     1      -1.826  -5.367   3.365  0.00  0.00    -0.381 OA
ATOM     39  C   UNL     1      -3.131  -5.362   3.947  0.00  0.00    +0.194 C 
ENDBRANCH  37  38
ENDBRANCH  36  37
ENDBRANCH  28  36
ENDBRANCH  25  28
ENDBRANCH   1  25
TORSDOF 8
