REMARK  Name = ZINC67166979
REMARK  4 active torsions:
REMARK  status: ('A' for Active; 'I' for Inactive)
REMARK    1  A    between atoms: C_1  and  C_2
REMARK    2  A    between atoms: C_3  and  C_17
REMARK    3  A    between atoms: N_6  and  C_7
REMARK    4  A    between atoms: C_27  and  C_29
REMARK                            x       y       z     vdW  Elec       q    Type
REMARK                         _______ _______ _______ _____ _____    ______ ____
ROOT
ATOM      1  C   UNL     1       0.072   1.251   0.277  0.00  0.00    +0.068 C 
ATOM      2  C   UNL     1       0.022  -0.250   0.154  0.00  0.00    +0.074 A 
ATOM      3  C   UNL     1      -0.198  -0.967  -0.988  0.00  0.00    +0.171 A 
ATOM      4  N   UNL     1      -0.167  -2.276  -0.682  0.00  0.00    -0.124 NA
ATOM      5  N   UNL     1       0.058  -2.419   0.578  0.00  0.00    -0.060 NA
ATOM      6  N   UNL     1       0.191  -1.146   1.151  0.00  0.00    -0.214 N 
ENDROOT
BRANCH   3   7
ATOM      7  C   UNL     1      -0.430  -0.401  -2.330  0.00  0.00    +0.273 C 
ATOM      8  O   UNL     1      -0.537   0.802  -2.473  0.00  0.00    -0.268 OA
ATOM      9  N   UNL     1      -0.524  -1.217  -3.399  0.00  0.00    -0.254 N 
ATOM     10  C   UNL     1      -0.844  -0.806  -4.696  0.00  0.00    +0.041 A 
ATOM     11  C   UNL     1      -1.126   0.476  -5.173  0.00  0.00    +0.024 A 
ATOM     12  C   UNL     1      -1.421   0.672  -6.505  0.00  0.00    +0.002 A 
ATOM     13  C   UNL     1      -1.439  -0.400  -7.379  0.00  0.00    +0.000 A 
ATOM     14  C   UNL     1      -1.161  -1.671  -6.914  0.00  0.00    +0.005 A 
ATOM     15  C   UNL     1      -0.865  -1.873  -5.580  0.00  0.00    -0.024 A 
ATOM     16  C   UNL     1      -0.528  -3.135  -4.818  0.00  0.00    +0.069 C 
ATOM     17  C   UNL     1      -0.301  -2.665  -3.372  0.00  0.00    +0.171 C 
BRANCH  17  18
ATOM     18  C   UNL     1       1.109  -2.969  -2.936  0.00  0.00    +0.232 C 
ATOM     19  O   UNL     1       1.870  -2.062  -2.668  0.00  0.00    -0.274 OA
ATOM     20  N   UNL     1       1.526  -4.247  -2.843  0.00  0.00    -0.328 N 
ATOM     21  H   UNL     1       0.917  -4.972  -3.057  0.00  0.00    +0.145 HD
ATOM     22  H   UNL     1       2.433  -4.442  -2.562  0.00  0.00    +0.145 HD
ENDBRANCH  17  18
ENDBRANCH   3   7
BRANCH   6  23
ATOM     23  C   UNL     1       0.447  -0.859   2.497  0.00  0.00    +0.093 A 
ATOM     24  C   UNL     1       1.427   0.046   2.839  0.00  0.00    +0.030 A 
ATOM     25  C   UNL     1       1.692   0.341   4.173  0.00  0.00    +0.003 A 
ATOM     26  C   UNL     1       0.989  -0.257   5.176  0.00  0.00    +0.010 A 
ATOM     27  C   UNL     1      -0.018  -1.185   4.867  0.00  0.00    +0.002 A 
ATOM     28  C   UNL     1      -0.302  -1.490   3.513  0.00  0.00    +0.096 A 
ATOM     29  N   UNL     1      -1.263  -2.369   3.216  0.00  0.00    -0.253 NA
ATOM     30  C   UNL     1      -1.961  -2.959   4.156  0.00  0.00    +0.111 A 
ATOM     31  C   UNL     1      -1.738  -2.700   5.506  0.00  0.00    +0.020 A 
ATOM     32  C   UNL     1      -0.763  -1.820   5.880  0.00  0.00    +0.011 A 
ENDBRANCH   6  23
TORSDOF 3
