REMARK  Name = ZINC39685977
REMARK  6 active torsions:
REMARK  status: ('A' for Active; 'I' for Inactive)
REMARK    1  A    between atoms: C_1  and  C_2
REMARK    2  A    between atoms: C_2  and  C_3
REMARK    3  A    between atoms: C_2  and  C_4
REMARK    4  A    between atoms: C_9  and  N_12
REMARK    5  A    between atoms: C_13  and  C_15
REMARK    6  A    between atoms: C_26  and  C_28
REMARK                            x       y       z     vdW  Elec       q    Type
REMARK                         _______ _______ _______ _____ _____    ______ ____
ROOT
ATOM      1  C   UNL     1      -7.230   3.848  -3.650  0.00  0.00    +0.100 C 
ATOM      2  C   UNL     1      -6.344   4.601  -4.667  0.00  0.00    +0.121 C 
ATOM      3  N   UNL     1      -6.908   4.247  -5.991  0.00  0.00    -0.296 N 
ATOM      4  C   UNL     1      -8.375   4.246  -5.778  0.00  0.00    +0.115 C 
ATOM      5  C   UNL     1      -8.563   3.619  -4.382  0.00  0.00    -0.004 C 
ATOM      6  C   UNL     1      -8.847   2.126  -4.509  0.00  0.00    -0.010 C 
ATOM      7  C   UNL     1     -10.204   1.925  -5.189  0.00  0.00    -0.082 C 
ATOM      8  N   UNL     1     -11.253   2.577  -4.395  0.00  0.00    +0.379 N 
ATOM      9  C   UNL     1     -11.023   4.026  -4.355  0.00  0.00    -0.082 C 
ATOM     10  C   UNL     1      -9.700   4.315  -3.640  0.00  0.00    -0.010 C 
ATOM     11  C   UNL     1      -6.238   3.985  -7.131  0.00  0.00    +0.247 C 
ATOM     12  O   UNL     1      -5.025   3.910  -7.120  0.00  0.00    -0.270 OA
ATOM     13  H   UNL     1     -12.153   2.392  -4.812  0.00  0.00    -0.086 HD
ATOM     14  H   UNL     1     -11.238   2.209  -3.455  0.00  0.00    -0.086 HD
ENDROOT
BRANCH  11  15
ATOM     15  C   UNL     1      -6.979   3.788  -8.395  0.00  0.00    +0.040 A 
ATOM     16  C   UNL     1      -8.275   4.286  -8.532  0.00  0.00    +0.033 A 
ATOM     17  C   UNL     1      -8.963   4.099  -9.715  0.00  0.00    +0.043 A 
ATOM     18  C   UNL     1      -8.368   3.418 -10.764  0.00  0.00    +0.040 A 
ATOM     19  C   UNL     1      -7.083   2.921 -10.633  0.00  0.00    +0.043 A 
ATOM     20  C   UNL     1      -6.383   3.107  -9.457  0.00  0.00    +0.033 A 
ATOM     21 CL   UNL     1      -6.346   2.067 -11.954  0.00  0.00    -0.083 Cl
ATOM     22 CL   UNL     1     -10.575   4.718  -9.887  0.00  0.00    -0.083 Cl
ENDBRANCH  11  15
BRANCH   1  24
ATOM     23  N   UNL     1      -6.914   1.936  -2.113  0.00  0.00    -0.312 N 
ATOM     24  C   UNL     1      -6.601   2.529  -3.282  0.00  0.00    +0.218 C 
ATOM     25  O   UNL     1      -5.813   2.001  -4.038  0.00  0.00    -0.275 OA
ATOM     26  H   UNL     1      -7.544   2.358  -1.508  0.00  0.00    +0.149 HD
BRANCH  23  32
ATOM     27  C   UNL     1      -6.786  -2.982   0.096  0.00  0.00    +0.218 C 
ATOM     28  O   UNL     1      -7.267  -3.914  -0.513  0.00  0.00    -0.275 OA
ATOM     29  N   UNL     1      -6.303  -1.917  -0.575  0.00  0.00    -0.301 N 
ATOM     30  C   UNL     1      -5.625  -0.827   0.140  0.00  0.00    +0.109 C 
ATOM     31  C   UNL     1      -6.296   0.499  -0.232  0.00  0.00    +0.041 C 
ATOM     32  C   UNL     1      -6.302   0.654  -1.755  0.00  0.00    +0.076 C 
ATOM     33  C   UNL     1      -7.106  -0.487  -2.382  0.00  0.00    +0.041 C 
ATOM     34  C   UNL     1      -6.439  -1.827  -2.035  0.00  0.00    +0.109 C 
BRANCH  27  36
ATOM     35  C   UNL     1      -7.924  -2.251   2.174  0.00  0.00    +0.017 C 
ATOM     36  C   UNL     1      -6.728  -3.014   1.601  0.00  0.00    +0.069 C 
ATOM     37  C   UNL     1      -6.771  -4.465   2.083  0.00  0.00    +0.017 C 
ENDBRANCH  27  36
ENDBRANCH  23  32
ENDBRANCH   1  24
TORSDOF 4
