REMARK  Name = ZINC40342089
REMARK  8 active torsions:
REMARK  status: ('A' for Active; 'I' for Inactive)
REMARK    1  A    between atoms: C_1  and  O_2
REMARK    2  A    between atoms: O_2  and  C_3
REMARK    3  A    between atoms: C_6  and  C_9
REMARK    4  A    between atoms: C_9  and  C_10
REMARK    5  A    between atoms: C_10  and  N_11
REMARK    6  A    between atoms: C_12  and  C_29
REMARK    7  A    between atoms: C_15  and  C_22
REMARK    8  A    between atoms: C_33  and  N_35
REMARK                            x       y       z     vdW  Elec       q    Type
REMARK                         _______ _______ _______ _____ _____    ______ ____
ROOT
ATOM      1  N   UNL     1      -6.739  -3.548  -1.396  0.00  0.00    -0.285 N 
ATOM      2  C   UNL     1      -6.945  -5.002  -1.390  0.00  0.00    +0.141 C 
ATOM      3  C   UNL     1      -8.435  -5.211  -1.381  0.00  0.00    +0.035 A 
ATOM      4  C   UNL     1      -9.498  -6.120  -1.373  0.00  0.00    +0.099 A 
ATOM      5  N   UNL     1     -10.616  -5.421  -1.370  0.00  0.00    -0.173 NA
ATOM      6  N   UNL     1     -10.363  -4.160  -1.375  0.00  0.00    -0.272 N 
ATOM      7  H   UNL     1     -11.033  -3.458  -1.373  0.00  0.00    +0.189 HD
ATOM      8  C   UNL     1      -9.013  -3.956  -1.382  0.00  0.00    +0.126 A 
ATOM      9  C   UNL     1      -7.944  -2.951  -1.386  0.00  0.00    +0.265 C 
ATOM     10  O   UNL     1      -8.123  -1.748  -1.383  0.00  0.00    -0.268 OA
ENDROOT
BRANCH   4  11
ATOM     11  C   UNL     1      -9.388  -7.601  -1.369  0.00  0.00    +0.003 A 
ATOM     12  C   UNL     1      -8.352  -8.227  -2.059  0.00  0.00    +0.011 A 
ATOM     13  C   UNL     1      -8.254  -9.603  -2.052  0.00  0.00    +0.020 A 
ATOM     14  C   UNL     1      -9.184 -10.362  -1.362  0.00  0.00    +0.041 A 
ATOM     15  C   UNL     1     -10.215  -9.745  -0.674  0.00  0.00    +0.020 A 
ATOM     16  C   UNL     1     -10.318  -8.369  -0.671  0.00  0.00    +0.011 A 
ATOM     17 CL   UNL     1      -9.056 -12.093  -1.357  0.00  0.00    -0.084 Cl
ENDBRANCH   4  11
BRANCH   2  18
ATOM     18  C   UNL     1      -6.341  -5.617  -2.626  0.00  0.00    -0.020 A 
ATOM     19  C   UNL     1      -6.454  -4.973  -3.844  0.00  0.00    +0.006 A 
ATOM     20  C   UNL     1      -5.900  -5.536  -4.978  0.00  0.00    +0.003 A 
ATOM     21  C   UNL     1      -5.232  -6.744  -4.894  0.00  0.00    +0.033 A 
ATOM     22  C   UNL     1      -5.119  -7.388  -3.676  0.00  0.00    +0.127 A 
ATOM     23  C   UNL     1      -5.669  -6.822  -2.541  0.00  0.00    +0.038 A 
BRANCH  22  24
ATOM     24  N   UNL     1      -4.404  -8.681  -3.586  0.00  0.00    +0.056 N 
ATOM     25  O   UNL     1      -3.920  -9.174  -4.578  0.00  0.00    -0.126 OA
ATOM     26  O   UNL     1      -4.305  -9.244  -2.521  0.00  0.00    -0.126 OA
ENDBRANCH  22  24
ENDBRANCH   2  18
BRANCH   1  27
ATOM     27  C   UNL     1      -5.443  -2.865  -1.405  0.00  0.00    +0.114 C 
BRANCH  27  28
ATOM     28  C   UNL     1      -4.981  -2.629   0.035  0.00  0.00    +0.054 C 
BRANCH  28  32
ATOM     29  C   UNL     1      -1.200  -0.637   0.010  0.00  0.00    +0.120 A 
ATOM     30  C   UNL     1      -2.375   0.101   0.019  0.00  0.00    +0.046 A 
ATOM     31  C   UNL     1      -3.596  -0.545   0.027  0.00  0.00    +0.007 A 
ATOM     32  C   UNL     1      -3.648  -1.927   0.026  0.00  0.00    -0.046 A 
ATOM     33  C   UNL     1      -2.479  -2.665   0.017  0.00  0.00    +0.007 A 
ATOM     34  C   UNL     1      -1.255  -2.024   0.003  0.00  0.00    +0.046 A 
BRANCH  29  36
ATOM     35  C   UNL     1      -0.017   1.425   0.010  0.00  0.00    +0.277 C 
ATOM     36  O   UNL     1       0.002  -0.004   0.002  0.00  0.00    -0.495 OA
ENDBRANCH  29  36
ENDBRANCH  28  32
ENDBRANCH  27  28
ENDBRANCH   1  27
TORSDOF 7
