REMARK  Name = ZINC39912405
REMARK  15 active torsions:
REMARK  status: ('A' for Active; 'I' for Inactive)
REMARK    1  A    between atoms: C_1  and  C_2
REMARK    2  A    between atoms: C_2  and  C_3
REMARK    3  A    between atoms: C_3  and  C_4
REMARK    4  A    between atoms: C_4  and  C_5
REMARK    5  A    between atoms: C_5  and  C_6
REMARK    6  A    between atoms: C_6  and  O_7
REMARK    7  A    between atoms: O_7  and  C_8
REMARK    8  A    between atoms: C_11  and  C_14
REMARK    9  A    between atoms: C_17  and  C_33
REMARK   10  A    between atoms: N_24  and  C_25
REMARK   11  A    between atoms: C_25  and  C_26
REMARK   12  A    between atoms: C_29  and  C_32
REMARK   13  A    between atoms: C_35  and  C_41
REMARK   14  A    between atoms: C_37  and  C_40
REMARK   15  A    between atoms: C_38  and  O_39
REMARK                            x       y       z     vdW  Elec       q    Type
REMARK                         _______ _______ _______ _____ _____    ______ ____
ROOT
ATOM      1  C   UNL     1      -5.050  -9.785   0.169  0.00  0.00    +0.142 C 
ATOM      2  C   UNL     1      -5.124 -10.532   1.472  0.00  0.00    +0.035 A 
ATOM      3  C   UNL     1      -4.508 -10.844   2.689  0.00  0.00    +0.102 A 
ATOM      4  N   UNL     1      -5.317 -11.653   3.344  0.00  0.00    -0.173 NA
ATOM      5  N   UNL     1      -6.382 -11.883   2.661  0.00  0.00    -0.272 N 
ATOM      6  H   UNL     1      -7.115 -12.450   2.947  0.00  0.00    +0.189 HD
ATOM      7  C   UNL     1      -6.327 -11.210   1.474  0.00  0.00    +0.126 A 
ATOM      8  C   UNL     1      -7.027 -10.923   0.216  0.00  0.00    +0.266 C 
ATOM      9  O   UNL     1      -8.115 -11.370  -0.090  0.00  0.00    -0.268 OA
ATOM     10  N   UNL     1      -6.292 -10.095  -0.551  0.00  0.00    -0.281 N 
ENDROOT
BRANCH   3  11
ATOM     11  C   UNL     1      -3.187 -10.354   3.157  0.00  0.00    +0.044 A 
ATOM     12  C   UNL     1      -2.381  -9.598   2.309  0.00  0.00    +0.017 A 
ATOM     13  C   UNL     1      -1.154  -9.145   2.748  0.00  0.00    -0.049 A 
ATOM     14  C   UNL     1      -0.721  -9.439   4.029  0.00  0.00    +0.010 A 
ATOM     15  C   UNL     1      -1.512 -10.189   4.878  0.00  0.00    -0.008 A 
ATOM     16  C   UNL     1      -2.750 -10.645   4.452  0.00  0.00    +0.129 A 
ATOM     17  C   UNL     1      -1.033 -10.505   6.271  0.00  0.00    +0.047 C 
ATOM     18  C   UNL     1      -0.283  -8.328   1.829  0.00  0.00    +0.044 C 
BRANCH  16  19
ATOM     19  O   UNL     1      -3.532 -11.376   5.288  0.00  0.00    -0.506 OA
ATOM     20  H   UNL     1      -3.379 -12.329   5.235  0.00  0.00    +0.292 HD
ENDBRANCH  16  19
ENDBRANCH   3  11
BRANCH   1  24
ATOM     21  C   UNL     1      -4.783  -5.582   0.895  0.00  0.00    +0.121 A 
ATOM     22  C   UNL     1      -5.955  -6.264   1.186  0.00  0.00    +0.046 A 
ATOM     23  C   UNL     1      -6.039  -7.623   0.950  0.00  0.00    +0.009 A 
ATOM     24  C   UNL     1      -4.956  -8.303   0.425  0.00  0.00    -0.022 A 
ATOM     25  C   UNL     1      -3.786  -7.625   0.135  0.00  0.00    +0.009 A 
ATOM     26  C   UNL     1      -3.699  -6.265   0.363  0.00  0.00    +0.046 A 
BRANCH  21  27
ATOM     27  O   UNL     1      -4.698  -4.245   1.126  0.00  0.00    -0.492 OA
BRANCH  27  28
ATOM     28  C   UNL     1      -5.853  -3.607   1.675  0.00  0.00    +0.229 C 
BRANCH  28  29
ATOM     29  C   UNL     1      -5.570  -2.116   1.864  0.00  0.00    +0.041 C 
BRANCH  29  30
ATOM     30  C   UNL     1      -6.806  -1.433   2.452  0.00  0.00    +0.003 C 
BRANCH  30  31
ATOM     31  C   UNL     1      -6.524   0.059   2.641  0.00  0.00    -0.000 C 
BRANCH  31  33
ATOM     32  C   UNL     1      -7.477   2.234   3.417  0.00  0.00    +0.004 C 
ATOM     33  C   UNL     1      -7.760   0.742   3.228  0.00  0.00    -0.003 C 
ENDBRANCH  31  33
ENDBRANCH  30  31
ENDBRANCH  29  30
ENDBRANCH  28  29
ENDBRANCH  27  28
ENDBRANCH  21  27
ENDBRANCH   1  24
BRANCH  10  34
ATOM     34  C   UNL     1      -6.667  -9.591  -1.874  0.00  0.00    +0.144 C 
BRANCH  34  35
ATOM     35  C   UNL     1      -6.164 -10.537  -2.933  0.00  0.00    -0.030 A 
ATOM     36  C   UNL     1      -4.904 -10.364  -3.474  0.00  0.00    +0.005 A 
ATOM     37  C   UNL     1      -4.443 -11.233  -4.445  0.00  0.00    +0.003 A 
ATOM     38  C   UNL     1      -5.242 -12.274  -4.877  0.00  0.00    -0.050 A 
ATOM     39  C   UNL     1      -6.503 -12.448  -4.336  0.00  0.00    +0.003 A 
ATOM     40  C   UNL     1      -6.962 -11.582  -3.361  0.00  0.00    +0.005 A 
ATOM     41  C   UNL     1      -4.740 -13.220  -5.937  0.00  0.00    +0.044 C 
ENDBRANCH  34  35
ENDBRANCH  10  34
TORSDOF 11
