REMARK  Name = ZINC35383137
REMARK  14 active torsions:
REMARK  status: ('A' for Active; 'I' for Inactive)
REMARK    1  A    between atoms: C_1  and  C_2
REMARK    2  A    between atoms: C_2  and  C_3
REMARK    3  A    between atoms: C_2  and  C_4
REMARK    4  A    between atoms: C_2  and  C_5
REMARK    5  A    between atoms: C_8  and  C_11
REMARK    6  A    between atoms: N_13  and  C_14
REMARK    7  A    between atoms: N_13  and  C_21
REMARK    8  A    between atoms: C_14  and  C_15
REMARK    9  A    between atoms: C_15  and  N_16
REMARK   10  A    between atoms: C_21  and  C_22
REMARK   11  A    between atoms: N_24  and  C_25
REMARK   12  A    between atoms: N_24  and  C_33
REMARK   13  A    between atoms: C_25  and  C_26
REMARK   14  A    between atoms: C_33  and  C_34
REMARK                            x       y       z     vdW  Elec       q    Type
REMARK                         _______ _______ _______ _____ _____    ______ ____
ROOT
ATOM      1  C   UNL     1       2.748  -0.800  -4.693  0.00  0.00    +0.247 C 
ATOM      2  O   UNL     1       2.328  -0.388  -3.629  0.00  0.00    -0.270 OA
ATOM      3  N   UNL     1       3.946  -0.385  -5.150  0.00  0.00    -0.290 N 
ENDROOT
BRANCH   1   7
ATOM      4  C   UNL     1       0.441  -3.547  -6.968  0.00  0.00    -0.042 A 
ATOM      5  C   UNL     1       0.970  -2.422  -7.576  0.00  0.00    +0.005 A 
ATOM      6  C   UNL     1       1.720  -1.526  -6.843  0.00  0.00    +0.013 A 
ATOM      7  C   UNL     1       1.944  -1.756  -5.485  0.00  0.00    +0.037 A 
ATOM      8  C   UNL     1       1.407  -2.892  -4.877  0.00  0.00    +0.013 A 
ATOM      9  C   UNL     1       0.655  -3.777  -5.621  0.00  0.00    +0.005 A 
BRANCH   4  11
ATOM     10  C   UNL     1      -1.823  -4.512  -7.273  0.00  0.00    +0.015 C 
ATOM     11  C   UNL     1      -0.377  -4.521  -7.775  0.00  0.00    -0.013 C 
ATOM     12  C   UNL     1       0.207  -5.927  -7.622  0.00  0.00    +0.015 C 
ATOM     13  C   UNL     1      -0.347  -4.114  -9.250  0.00  0.00    +0.015 C 
ENDBRANCH   4  11
ENDBRANCH   1   7
BRANCH   3  14
ATOM     14  C   UNL     1       4.690   0.647  -4.424  0.00  0.00    +0.090 C 
BRANCH  14  15
ATOM     15  C   UNL     1       5.685  -0.019  -3.471  0.00  0.00    -0.060 C 
BRANCH  15  16
ATOM     16  N   UNL     1       6.432   1.016  -2.742  0.00  0.00    +0.381 N 
ATOM     17  C   UNL     1       5.532   1.729  -1.800  0.00  0.00    -0.079 C 
ATOM     18  C   UNL     1       6.511   2.333  -0.762  0.00  0.00    -0.020 C 
ATOM     19  C   UNL     1       7.583   1.228  -0.615  0.00  0.00    -0.020 C 
ATOM     20  C   UNL     1       7.481   0.394  -1.905  0.00  0.00    -0.079 C 
ATOM     21  H   UNL     1       6.846   1.669  -3.391  0.00  0.00    -0.082 HD
ENDBRANCH  15  16
ENDBRANCH  14  15
ENDBRANCH   3  14
BRANCH   3  22
ATOM     22  C   UNL     1       4.503  -0.966  -6.374  0.00  0.00    +0.203 C 
BRANCH  22  23
ATOM     23  C   UNL     1       4.189  -0.069  -7.544  0.00  0.00    +0.234 C 
ATOM     24  O   UNL     1       3.499   0.916  -7.385  0.00  0.00    -0.274 OA
ATOM     25  N   UNL     1       4.676  -0.360  -8.767  0.00  0.00    -0.291 N 
BRANCH  25  26
ATOM     26  C   UNL     1       4.465   0.568  -9.880  0.00  0.00    +0.143 C 
BRANCH  26  27
ATOM     27  C   UNL     1       5.606   1.551  -9.937  0.00  0.00    -0.030 A 
ATOM     28  C   UNL     1       5.533   2.736  -9.230  0.00  0.00    +0.008 A 
ATOM     29  C   UNL     1       6.579   3.638  -9.281  0.00  0.00    +0.038 A 
ATOM     30  C   UNL     1       7.701   3.354 -10.041  0.00  0.00    +0.123 A 
ATOM     31  C   UNL     1       7.773   2.166 -10.749  0.00  0.00    +0.038 A 
ATOM     32  C   UNL     1       6.728   1.264 -10.692  0.00  0.00    +0.008 A 
ATOM     33  F   UNL     1       8.724   4.234 -10.093  0.00  0.00    -0.205 F 
ENDBRANCH  26  27
ENDBRANCH  25  26
BRANCH  25  34
ATOM     34  C   UNL     1       5.416  -1.607  -8.982  0.00  0.00    +0.150 C 
BRANCH  34  35
ATOM     35  C   UNL     1       4.479  -2.662  -9.512  0.00  0.00    +0.007 A 
ATOM     36  C   UNL     1       4.165  -2.958 -10.797  0.00  0.00    +0.013 A 
ATOM     37  C   UNL     1       3.270  -3.980 -11.050  0.00  0.00    +0.008 A 
ATOM     38  C   UNL     1       2.732  -4.656 -10.006  0.00  0.00    +0.045 A 
ATOM     39  S   UNL     1       3.499  -3.851  -8.610  0.00  0.00    -0.100 S 
ENDBRANCH  34  35
ENDBRANCH  25  34
ENDBRANCH  22  23
ENDBRANCH   3  22
TORSDOF 11
