REMARK  Name = ZINC25584219
REMARK  11 active torsions:
REMARK  status: ('A' for Active; 'I' for Inactive)
REMARK    1  A    between atoms: C_1  and  C_2
REMARK    2  A    between atoms: C_2  and  O_3
REMARK    3  A    between atoms: O_3  and  C_4
REMARK    4  A    between atoms: C_9  and  C_10
REMARK    5  A    between atoms: N_11  and  N_12
REMARK    6  A    between atoms: C_13  and  C_15
REMARK    7  A    between atoms: N_17  and  C_18
REMARK    8  A    between atoms: C_19  and  C_27
REMARK    9  A    between atoms: C_27  and  O_29
REMARK   10  A    between atoms: O_29  and  C_30
REMARK   11  A    between atoms: C_30  and  C_31
REMARK                            x       y       z     vdW  Elec       q    Type
REMARK                         _______ _______ _______ _____ _____    ______ ____
ROOT
ATOM      1  C   UNL     1       3.431   7.794   0.010  0.00  0.00    +0.305 C 
ATOM      2  O   UNL     1       2.375   8.393   0.023  0.00  0.00    -0.265 OA
ATOM      3  N   UNL     1       4.593   8.478   0.002  0.00  0.00    -0.271 N 
ATOM      4  H   UNL     1       5.550   7.936  -0.009  0.00  0.00    +0.156 HD
ENDROOT
BRANCH   3   5
ATOM      5  C   UNL     1       4.581   9.861   0.009  0.00  0.00    +0.087 A 
ATOM      6  C   UNL     1       5.663  10.734   0.009  0.00  0.00    +0.091 A 
ATOM      7  C   UNL     1       5.376  12.158   0.013  0.00  0.00    -0.021 A 
ATOM      8  C   UNL     1       4.064  12.480   0.028  0.00  0.00    -0.004 A 
ATOM      9  S   UNL     1       3.215  10.927   0.028  0.00  0.00    -0.077 S 
ATOM     10  C   UNL     1       3.472  13.856   0.042  0.00  0.00    +0.043 C 
ATOM     11  C   UNL     1       4.578  14.854   0.414  0.00  0.00    +0.005 C 
ATOM     12  C   UNL     1       5.817  14.559  -0.436  0.00  0.00    +0.005 C 
ATOM     13  C   UNL     1       6.449  13.239   0.007  0.00  0.00    +0.037 C 
BRANCH   6  14
ATOM     14  C   UNL     1       7.040  10.236   0.001  0.00  0.00    +0.342 C 
ATOM     15  O   UNL     1       7.608  10.035  -1.056  0.00  0.00    -0.245 OA
BRANCH  14  16
ATOM     16  O   UNL     1       7.679  10.001   1.166  0.00  0.00    -0.461 OA
BRANCH  16  17
ATOM     17  C   UNL     1       9.043   9.509   1.082  0.00  0.00    +0.229 C 
ATOM     18  C   UNL     1       9.598   9.303   2.492  0.00  0.00    +0.048 C 
ENDBRANCH  16  17
ENDBRANCH  14  16
ENDBRANCH   6  14
ENDBRANCH   3   5
BRANCH   1  20
ATOM     19  N   UNL     1       2.282   5.620   0.009  0.00  0.00    -0.199 N 
ATOM     20  C   UNL     1       3.443   6.304   0.002  0.00  0.00    +0.318 C 
ATOM     21  O   UNL     1       4.500   5.705  -0.011  0.00  0.00    -0.263 OA
ATOM     22  H   UNL     1       1.325   6.163   0.021  0.00  0.00    +0.178 HD
BRANCH  19  24
ATOM     23  C   UNL     1       1.173   3.561   0.009  0.00  0.00    +0.142 C 
ATOM     24  N   UNL     1       2.293   4.220   0.002  0.00  0.00    -0.187 NA
BRANCH  23  30
ATOM     25  C   UNL     1       2.403   1.393  -0.013  0.00  0.00    +0.129 A 
ATOM     26  C   UNL     1       2.403   0.008  -0.021  0.00  0.00    +0.047 A 
ATOM     27  C   UNL     1       1.208  -0.686  -0.013  0.00  0.00    +0.019 A 
ATOM     28  C   UNL     1       0.002  -0.004   0.002  0.00  0.00    +0.019 A 
ATOM     29  C   UNL     1      -0.017   1.375   0.010  0.00  0.00    +0.028 A 
ATOM     30  C   UNL     1       1.185   2.088   0.002  0.00  0.00    +0.037 A 
ATOM     31 BR   UNL     1      -1.625  -0.968   0.012  0.00  0.00    -0.050 Br
BRANCH  25  32
ATOM     32  O   UNL     1       3.577   2.075  -0.021  0.00  0.00    -0.492 OA
BRANCH  32  34
ATOM     33  C   UNL     1       5.989   2.235  -0.042  0.00  0.00    +0.048 C 
ATOM     34  C   UNL     1       4.778   1.300  -0.036  0.00  0.00    +0.226 C 
ENDBRANCH  32  34
ENDBRANCH  25  32
ENDBRANCH  23  30
ENDBRANCH  19  24
ENDBRANCH   1  20
TORSDOF 9
