REMARK  Name = ZINC23954431
REMARK  5 active torsions:
REMARK  status: ('A' for Active; 'I' for Inactive)
REMARK    1  A    between atoms: C_1  and  C_2
REMARK    2  A    between atoms: C_2  and  C_3
REMARK    3  A    between atoms: C_3  and  C_23
REMARK    4  A    between atoms: N_6  and  N_10
REMARK    5  A    between atoms: C_11  and  C_13
REMARK                            x       y       z     vdW  Elec       q    Type
REMARK                         _______ _______ _______ _____ _____    ______ ____
ROOT
ATOM      1  C   UNL     1      -3.128  11.707   0.705  0.00  0.00    +0.139 C 
ATOM      2  C   UNL     1      -2.351  10.486   1.156  0.00  0.00    +0.268 C 
ATOM      3  O   UNL     1      -1.898  10.273   2.260  0.00  0.00    -0.271 OA
ATOM      4  N   UNL     1      -2.268   9.687   0.074  0.00  0.00    -0.137 N 
ATOM      5  C   UNL     1      -2.874  10.230  -0.988  0.00  0.00    +0.327 C 
ATOM      6  O   UNL     1      -2.929   9.699  -2.080  0.00  0.00    -0.251 OA
ATOM      7  N   UNL     1      -3.420  11.428  -0.711  0.00  0.00    -0.280 N 
ATOM      8  H   UNL     1      -3.989  12.156  -1.309  0.00  0.00    +0.152 HD
ENDROOT
BRANCH   1   9
ATOM      9  C   UNL     1      -4.405  11.844   1.493  0.00  0.00    -0.015 A 
ATOM     10  C   UNL     1      -4.420  12.579   2.664  0.00  0.00    +0.006 A 
ATOM     11  C   UNL     1      -5.593  12.707   3.384  0.00  0.00    +0.000 A 
ATOM     12  C   UNL     1      -6.749  12.093   2.939  0.00  0.00    +0.000 A 
ATOM     13  C   UNL     1      -6.733  11.354   1.771  0.00  0.00    +0.000 A 
ATOM     14  C   UNL     1      -5.561  11.229   1.048  0.00  0.00    +0.006 A 
ENDBRANCH   1   9
BRANCH   4  15
ATOM     15  N   UNL     1      -1.622   8.444   0.061  0.00  0.00    -0.217 N 
ATOM     16  C   UNL     1      -2.347   7.308   0.062  0.00  0.00    +0.296 C 
ATOM     17  O   UNL     1      -3.563   7.362   0.074  0.00  0.00    -0.265 OA
ATOM     18  H   UNL     1      -0.523   8.396   0.050  0.00  0.00    +0.174 HD
BRANCH  16  19
ATOM     19  C   UNL     1      -1.670   6.004   0.048  0.00  0.00    +0.192 A 
ATOM     20  C   UNL     1      -2.295   4.798   0.048  0.00  0.00    +0.063 A 
ATOM     21  C   UNL     1      -1.234   3.792   0.033  0.00  0.00    +0.022 A 
ATOM     22  C   UNL     1      -1.217   2.395   0.021  0.00  0.00    +0.031 A 
ATOM     23  C   UNL     1      -0.021   1.732   0.012  0.00  0.00    +0.042 A 
ATOM     24  C   UNL     1       1.175   2.438   0.004  0.00  0.00    +0.023 A 
ATOM     25  C   UNL     1       1.179   3.816   0.011  0.00  0.00    +0.048 A 
ATOM     26  C   UNL     1      -0.025   4.512   0.026  0.00  0.00    +0.136 A 
ATOM     27  O   UNL     1      -0.332   5.824   0.035  0.00  0.00    -0.450 OA
ATOM     28 CL   UNL     1       0.002  -0.004   0.002  0.00  0.00    -0.084 Cl
ENDBRANCH  16  19
ENDBRANCH   4  15
BRANCH   1  30
ATOM     29  C   UNL     1      -1.075  12.880  -0.101  0.00  0.00    +0.007 C 
ATOM     30  C   UNL     1      -2.275  12.970   0.844  0.00  0.00    +0.037 C 
ENDBRANCH   1  30
TORSDOF 4
