REMARK  Name = ZINC64610904
REMARK  7 active torsions:
REMARK  status: ('A' for Active; 'I' for Inactive)
REMARK    1  A    between atoms: C_1  and  C_2
REMARK    2  A    between atoms: C_5  and  C_8
REMARK    3  A    between atoms: C_10  and  C_13
REMARK    4  A    between atoms: C_17  and  S_19
REMARK    5  A    between atoms: S_19  and  N_22
REMARK    6  A    between atoms: N_22  and  C_23
REMARK    7  A    between atoms: C_23  and  C_24
REMARK                            x       y       z     vdW  Elec       q    Type
REMARK                         _______ _______ _______ _____ _____    ______ ____
ROOT
ATOM      1  C   UNL     1       0.100  -7.468   1.618  0.00  0.00    +0.041 A 
ATOM      2  C   UNL     1       0.092  -7.273   3.001  0.00  0.00    +0.013 A 
ATOM      3  C   UNL     1       0.106  -8.362   3.847  0.00  0.00    +0.003 A 
ATOM      4  C   UNL     1       0.128  -9.645   3.329  0.00  0.00    +0.028 A 
ATOM      5  C   UNL     1       0.136  -9.845   1.960  0.00  0.00    +0.106 A 
ATOM      6  C   UNL     1       0.116  -8.764   1.102  0.00  0.00    +0.041 A 
ENDROOT
BRANCH   1   9
ATOM      7  C   UNL     1       0.058  -4.256  -0.021  0.00  0.00    +0.202 A 
ATOM      8  N   UNL     1       0.069  -5.043   1.066  0.00  0.00    -0.187 NA
ATOM      9  C   UNL     1       0.084  -6.305   0.705  0.00  0.00    +0.259 A 
ATOM     10  O   UNL     1       0.085  -6.358  -0.638  0.00  0.00    -0.332 OA
ATOM     11  N   UNL     1       0.062  -5.013  -1.092  0.00  0.00    -0.056 NA
BRANCH   7  16
ATOM     12  C   UNL     1      -0.018   1.503   0.010  0.00  0.00    +0.044 C 
ATOM     13  C   UNL     1       0.002  -0.004   0.002  0.00  0.00    -0.050 A 
ATOM     14  C   UNL     1       0.006  -0.687  -1.201  0.00  0.00    +0.004 A 
ATOM     15  C   UNL     1       0.024  -2.067  -1.214  0.00  0.00    +0.012 A 
ATOM     16  C   UNL     1       0.039  -2.772  -0.013  0.00  0.00    +0.022 A 
ATOM     17  C   UNL     1       0.036  -2.080   1.196  0.00  0.00    +0.012 A 
ATOM     18  C   UNL     1       0.023  -0.700   1.198  0.00  0.00    +0.004 A 
ENDBRANCH   7  16
ENDBRANCH   1   9
BRANCH   5  19
ATOM     19  S   UNL     1       0.163 -11.482   1.311  0.00  0.00    +0.059 S 
ATOM     20  O   UNL     1       0.717 -11.392   0.005  0.00  0.00    -0.153 OA
ATOM     21  O   UNL     1       0.724 -12.310   2.321  0.00  0.00    -0.153 OA
BRANCH  19  22
ATOM     22  N   UNL     1      -1.411 -11.962   1.125  0.00  0.00    -0.187 NA
ATOM     23  H   UNL     1      -1.760 -12.697   1.654  0.00  0.00    +0.148 HD
BRANCH  22  24
ATOM     24  C   UNL     1      -2.277 -11.277   0.162  0.00  0.00    +0.137 C 
BRANCH  24  25
ATOM     25  C   UNL     1      -3.527 -12.121  -0.090  0.00  0.00    +0.134 C 
ATOM     26  C   UNL     1      -4.387 -11.467  -1.193  0.00  0.00    +0.035 C 
ATOM     27  C   UNL     1      -5.830 -11.697  -0.666  0.00  0.00    +0.031 C 
ATOM     28  C   UNL     1      -5.606 -11.583   0.863  0.00  0.00    +0.160 C 
ATOM     29  O   UNL     1      -4.321 -12.183   1.101  0.00  0.00    -0.375 OA
ENDBRANCH  24  25
ENDBRANCH  22  24
ENDBRANCH  19  22
ENDBRANCH   5  19
TORSDOF 6
