REMARK  Name = ZINC36605943
REMARK  11 active torsions:
REMARK  status: ('A' for Active; 'I' for Inactive)
REMARK    1  A    between atoms: C_1  and  C_2
REMARK    2  A    between atoms: C_5  and  S_8
REMARK    3  A    between atoms: S_8  and  C_11
REMARK    4  A    between atoms: C_11  and  N_12
REMARK    5  A    between atoms: C_13  and  C_15
REMARK    6  A    between atoms: C_15  and  C_17
REMARK    7  A    between atoms: C_15  and  N_22
REMARK    8  A    between atoms: N_22  and  C_23
REMARK    9  A    between atoms: C_29  and  C_31
REMARK   10  A    between atoms: C_31  and  C_32
REMARK   11  A    between atoms: C_32  and  C_33
REMARK                            x       y       z     vdW  Elec       q    Type
REMARK                         _______ _______ _______ _____ _____    ______ ____
ROOT
ATOM      1  C   UNL     1       2.254  -5.020   3.232  0.00  0.00    +0.233 C 
ENDROOT
BRANCH   1   2
ATOM      2  C   UNL     1       3.627  -4.831   2.641  0.00  0.00    +0.135 A 
ATOM      3  C   UNL     1       4.170  -3.657   2.272  0.00  0.00    +0.047 A 
ATOM      4  C   UNL     1       5.462  -3.942   1.774  0.00  0.00    +0.041 A 
ATOM      5  C   UNL     1       5.632  -5.273   1.869  0.00  0.00    +0.195 A 
ATOM      6  O   UNL     1       4.519  -5.806   2.400  0.00  0.00    -0.465 OA
ENDBRANCH   1   2
BRANCH   1   8
ATOM      7  N   UNL     1       1.180  -5.453   1.046  0.00  0.00    -0.294 N 
ATOM      8  C   UNL     1       1.421  -5.868   2.305  0.00  0.00    +0.243 C 
ATOM      9  O   UNL     1       0.968  -6.924   2.693  0.00  0.00    -0.273 OA
ATOM     10  H   UNL     1       1.542  -4.608   0.736  0.00  0.00    +0.150 HD
BRANCH   7  11
ATOM     11  C   UNL     1       0.370  -6.278   0.145  0.00  0.00    +0.278 C 
BRANCH  11  12
ATOM     12  S   UNL     1      -1.354  -5.717   0.198  0.00  0.00    +0.013 S 
ATOM     13  O   UNL     1      -1.773  -5.551   1.546  0.00  0.00    -0.168 OA
ATOM     14  O   UNL     1      -2.141  -6.466  -0.718  0.00  0.00    -0.168 OA
BRANCH  12  19
ATOM     15  C   UNL     1      -1.243  -0.131  -2.079  0.00  0.00    +0.044 C 
ATOM     16  C   UNL     1      -1.271  -1.526  -1.510  0.00  0.00    -0.050 A 
ATOM     17  C   UNL     1      -1.461  -2.610  -2.347  0.00  0.00    +0.005 A 
ATOM     18  C   UNL     1      -1.486  -3.890  -1.825  0.00  0.00    +0.027 A 
ATOM     19  C   UNL     1      -1.321  -4.086  -0.467  0.00  0.00    +0.090 A 
ATOM     20  C   UNL     1      -1.130  -3.002   0.370  0.00  0.00    +0.027 A 
ATOM     21  C   UNL     1      -1.101  -1.722  -0.153  0.00  0.00    +0.005 A 
ENDBRANCH  12  19
ENDBRANCH  11  12
ENDBRANCH   7  11
ENDBRANCH   1   8
BRANCH   1  22
ATOM     22  N   UNL     1       2.368  -5.685   4.532  0.00  0.00    -0.252 N 
ATOM     23  C   UNL     1       1.994  -5.039   5.654  0.00  0.00    +0.221 C 
ATOM     24  O   UNL     1       2.011  -3.827   5.691  0.00  0.00    -0.275 OA
BRANCH  22  25
ATOM     25  C   UNL     1       2.865  -6.990   4.609  0.00  0.00    +0.038 A 
ATOM     26  C   UNL     1       3.161  -7.692   3.447  0.00  0.00    +0.023 A 
ATOM     27  C   UNL     1       3.652  -8.980   3.526  0.00  0.00    +0.002 A 
ATOM     28  C   UNL     1       3.850  -9.572   4.760  0.00  0.00    +0.000 A 
ATOM     29  C   UNL     1       3.557  -8.876   5.918  0.00  0.00    +0.002 A 
ATOM     30  C   UNL     1       3.070  -7.586   5.846  0.00  0.00    +0.023 A 
ENDBRANCH  22  25
BRANCH  23  31
ATOM     31  C   UNL     1       1.556  -5.823   6.864  0.00  0.00    +0.096 C 
BRANCH  31  32
ATOM     32  C   UNL     1       0.272  -5.213   7.430  0.00  0.00    +0.013 C 
BRANCH  32  33
ATOM     33  C   UNL     1      -0.173  -6.009   8.658  0.00  0.00    -0.011 C 
ATOM     34  C   UNL     1      -0.553  -7.429   8.235  0.00  0.00    +0.003 C 
ATOM     35  C   UNL     1      -0.998  -8.225   9.463  0.00  0.00    +0.000 C 
ATOM     36  C   UNL     1      -2.209  -7.542  10.102  0.00  0.00    +0.000 C 
ATOM     37  C   UNL     1      -1.829  -6.122  10.525  0.00  0.00    +0.000 C 
ATOM     38  C   UNL     1      -1.384  -5.326   9.297  0.00  0.00    +0.003 C 
ENDBRANCH  32  33
ENDBRANCH  31  32
ENDBRANCH  23  31
ENDBRANCH   1  22
TORSDOF 10
