REMARK  Name = ZINC15062534
REMARK  5 active torsions:
REMARK  status: ('A' for Active; 'I' for Inactive)
REMARK    1  A    between atoms: C_10  and  C_11
REMARK    2  A    between atoms: C_11  and  N_65
REMARK    3  A    between atoms: C_17  and  C_19
REMARK    4  A    between atoms: C_19  and  C_20
REMARK    5  A    between atoms: N_22  and  C_23
REMARK                            x       y       z     vdW  Elec       q    Type
REMARK                         _______ _______ _______ _____ _____    ______ ____
ROOT
ATOM      1  C   UNL     1       1.738   5.396   1.682  0.00  0.00    -0.058 C 
ATOM      2  C   UNL     1       1.847   5.663   3.184  0.00  0.00    +0.085 C 
ATOM      3  N   UNL     1       3.225   5.993   3.535  0.00  0.00    -0.318 N 
ATOM      4  C   UNL     1       4.265   5.710   2.743  0.00  0.00    +0.200 C 
ATOM      5  O   UNL     1       5.381   5.992   3.125  0.00  0.00    -0.278 OA
ATOM      6  C   UNL     1       4.108   5.055   1.399  0.00  0.00    +0.028 C 
ATOM      7  H   UNL     1       3.395   6.439   4.380  0.00  0.00    +0.149 HD
ATOM      8  N   UNL     1       2.780   4.418   1.314  0.00  0.00    +0.391 N 
ATOM      9  H   UNL     1       2.745   3.628   1.968  0.00  0.00    -0.080 HD
ENDROOT
BRANCH   8  10
ATOM     10  C   UNL     1       2.546   3.917  -0.059  0.00  0.00    -0.041 C 
BRANCH  10  20
ATOM     11  C   UNL     1      -2.358   5.157  -0.841  0.00  0.00    +0.001 A 
ATOM     12  C   UNL     1      -1.160   5.868  -0.815  0.00  0.00    +0.001 A 
ATOM     13  C   UNL     1       0.023   5.239  -0.573  0.00  0.00    +0.009 A 
ATOM     14  C   UNL     1       0.039   3.852  -0.345  0.00  0.00    -0.017 A 
ATOM     15  C   UNL     1      -1.181   3.129  -0.371  0.00  0.00    -0.018 A 
ATOM     16  C   UNL     1      -2.382   3.814  -0.624  0.00  0.00    +0.008 A 
ATOM     17  C   UNL     1      -1.164   1.742  -0.149  0.00  0.00    +0.008 A 
ATOM     18  C   UNL     1       0.018   1.114   0.098  0.00  0.00    +0.001 A 
ATOM     19  C   UNL     1       1.216   1.824   0.124  0.00  0.00    +0.002 A 
ATOM     20  C   UNL     1       1.239   3.168  -0.092  0.00  0.00    -0.056 A 
ENDBRANCH  10  20
ENDBRANCH   8  10
BRANCH   6  21
ATOM     21  C   UNL     1       5.186   3.983   1.228  0.00  0.00    +0.089 C 
BRANCH  21  22
ATOM     22  C   UNL     1       4.985   2.899   2.255  0.00  0.00    +0.212 C 
ATOM     23  O   UNL     1       4.127   3.020   3.104  0.00  0.00    -0.276 OA
ATOM     24  N   UNL     1       5.759   1.796   2.232  0.00  0.00    -0.312 N 
ATOM     25  H   UNL     1       6.445   1.700   1.553  0.00  0.00    +0.149 HD
BRANCH  24  26
ATOM     26  C   UNL     1       5.563   0.743   3.230  0.00  0.00    +0.079 C 
ATOM     27  C   UNL     1       6.350   1.088   4.497  0.00  0.00    +0.010 C 
ATOM     28  C   UNL     1       6.146  -0.012   5.540  0.00  0.00    +0.009 C 
ATOM     29  C   UNL     1       6.643  -1.346   4.979  0.00  0.00    -0.010 C 
ATOM     30  C   UNL     1       8.131  -1.234   4.640  0.00  0.00    +0.007 C 
ATOM     31  C   UNL     1       8.335  -0.133   3.597  0.00  0.00    -0.010 C 
ATOM     32  C   UNL     1       7.838   1.200   4.158  0.00  0.00    +0.009 C 
ATOM     33  C   UNL     1       7.549  -0.479   2.331  0.00  0.00    +0.009 C 
ATOM     34  C   UNL     1       6.061  -0.591   2.669  0.00  0.00    +0.010 C 
ATOM     35  C   UNL     1       5.857  -1.691   3.712  0.00  0.00    +0.009 C 
ENDBRANCH  24  26
ENDBRANCH  21  22
ENDBRANCH   6  21
TORSDOF 5
