REMARK  Name = ZINC18054751
REMARK  13 active torsions:
REMARK  status: ('A' for Active; 'I' for Inactive)
REMARK    1  A    between atoms: C_1  and  C_2
REMARK    2  A    between atoms: C_2  and  C_3
REMARK    3  A    between atoms: C_2  and  N_4
REMARK    4  A    between atoms: N_9  and  C_13
REMARK    5  A    between atoms: C_13  and  C_14
REMARK    6  A    between atoms: C_13  and  C_15
REMARK    7  A    between atoms: C_17  and  C_19
REMARK    8  A    between atoms: N_26  and  C_34
REMARK    9  A    between atoms: N_30  and  C_31
REMARK   10  A    between atoms: C_31  and  C_32
REMARK   11  A    between atoms: C_31  and  C_33
REMARK   12  A    between atoms: C_34  and  C_35
REMARK   13  A    between atoms: C_34  and  C_36
REMARK                            x       y       z     vdW  Elec       q    Type
REMARK                         _______ _______ _______ _____ _____    ______ ____
ROOT
ATOM      1  N   UNL     1      -1.372  -0.511   0.012  0.00  0.00    -0.132 NA
ATOM      2  C   UNL     1      -2.437  -0.310   0.991  0.00  0.00    +0.259 C 
ATOM      3  C   UNL     1      -3.016  -1.753   1.174  0.00  0.00    +0.259 C 
ATOM      4  N   UNL     1      -3.384  -2.193  -0.150  0.00  0.00    -0.132 NA
ATOM      5  S   UNL     1      -2.175  -1.489  -1.109  0.00  0.00    +0.105 S 
ATOM      6  O   UNL     1      -1.276  -2.519  -1.496  0.00  0.00    -0.141 OA
ATOM      7  O   UNL     1      -2.822  -0.628  -2.037  0.00  0.00    -0.141 OA
ATOM      8  O   UNL     1      -3.915  -1.563   2.235  0.00  0.00    -0.322 OA
ATOM      9  C   UNL     1      -3.318  -0.515   3.045  0.00  0.00    +0.311 C 
ATOM     10  O   UNL     1      -2.143   0.001   2.344  0.00  0.00    -0.322 OA
ENDROOT
BRANCH   9  11
ATOM     11  C   UNL     1      -2.909  -1.083   4.405  0.00  0.00    +0.311 C 
ATOM     12  O   UNL     1      -4.085  -1.585   5.103  0.00  0.00    -0.322 OA
ATOM     13  C   UNL     1      -3.793  -1.278   6.452  0.00  0.00    +0.259 C 
ATOM     14  C   UNL     1      -3.219   0.169   6.274  0.00  0.00    +0.259 C 
ATOM     15  O   UNL     1      -2.313  -0.035   5.215  0.00  0.00    -0.322 OA
ATOM     16  N   UNL     1      -2.787   0.523   7.618  0.00  0.00    -0.132 NA
ATOM     17  S   UNL     1      -4.132   0.012   8.507  0.00  0.00    +0.105 S 
ATOM     18  O   UNL     1      -5.045   1.099   8.559  0.00  0.00    -0.141 OA
ATOM     19  O   UNL     1      -3.649  -0.654   9.665  0.00  0.00    -0.141 OA
ATOM     20  N   UNL     1      -4.806  -1.134   7.475  0.00  0.00    -0.132 NA
BRANCH  20  21
ATOM     21  C   UNL     1      -6.092  -1.826   7.596  0.00  0.00    +0.078 C 
ATOM     22  C   UNL     1      -6.948  -1.530   6.363  0.00  0.00    +0.026 C 
ATOM     23  C   UNL     1      -5.853  -3.333   7.700  0.00  0.00    +0.026 C 
ENDBRANCH  20  21
BRANCH  16  24
ATOM     24  C   UNL     1      -1.540   1.144   8.073  0.00  0.00    +0.078 C 
ATOM     25  C   UNL     1      -0.356   0.258   7.681  0.00  0.00    +0.026 C 
ATOM     26  C   UNL     1      -1.387   2.518   7.418  0.00  0.00    +0.026 C 
ENDBRANCH  16  24
ENDBRANCH   9  11
BRANCH   1  28
ATOM     27  C   UNL     1      -0.019   1.526   0.010  0.00  0.00    +0.026 C 
ATOM     28  C   UNL     1       0.002  -0.004   0.002  0.00  0.00    +0.078 C 
ATOM     29  C   UNL     1       0.742  -0.511   1.242  0.00  0.00    +0.026 C 
ENDBRANCH   1  28
BRANCH   4  30
ATOM     30  C   UNL     1      -4.510  -3.039  -0.557  0.00  0.00    +0.078 C 
ATOM     31  C   UNL     1      -4.398  -4.402   0.129  0.00  0.00    +0.026 C 
ATOM     32  C   UNL     1      -5.824  -2.369  -0.150  0.00  0.00    +0.026 C 
ENDBRANCH   4  30
TORSDOF 5
