REMARK  Name = ZINC38887441
REMARK  9 active torsions:
REMARK  status: ('A' for Active; 'I' for Inactive)
REMARK    1  A    between atoms: C_1  and  C_2
REMARK    2  A    between atoms: C_7  and  C_8
REMARK    3  A    between atoms: C_10  and  C_13
REMARK    4  A    between atoms: C_13  and  N_14
REMARK    5  A    between atoms: C_18  and  C_21
REMARK    6  A    between atoms: N_23  and  C_24
REMARK    7  A    between atoms: C_24  and  C_25
REMARK    8  A    between atoms: C_30  and  C_31
REMARK    9  A    between atoms: C_31  and  N_32
REMARK                            x       y       z     vdW  Elec       q    Type
REMARK                         _______ _______ _______ _____ _____    ______ ____
ROOT
ATOM      1  N   UNL     1       1.168   0.601   6.987  0.00  0.00    +0.386 N 
ATOM      2  C   UNL     1       1.533   2.021   7.065  0.00  0.00    -0.078 C 
ATOM      3  C   UNL     1       3.011   2.152   7.438  0.00  0.00    -0.018 C 
ATOM      4  C   UNL     1       3.250   1.487   8.796  0.00  0.00    +0.009 C 
ATOM      5  C   UNL     1       2.796   0.026   8.726  0.00  0.00    +0.058 C 
ATOM      6  C   UNL     1       1.326  -0.026   8.305  0.00  0.00    -0.065 C 
ATOM      7  H   UNL     1       1.767   0.138   6.321  0.00  0.00    -0.081 HD
ENDROOT
BRANCH   5   8
ATOM      8  C   UNL     1       2.957  -0.616  10.079  0.00  0.00    +0.215 C 
ATOM      9  O   UNL     1       1.990  -1.075  10.651  0.00  0.00    -0.276 OA
ATOM     10  N   UNL     1       4.173  -0.681  10.655  0.00  0.00    -0.311 N 
ATOM     11  H   UNL     1       4.946  -0.314  10.197  0.00  0.00    +0.149 HD
BRANCH  10  12
ATOM     12  C   UNL     1       4.329  -1.306  11.971  0.00  0.00    +0.139 C 
BRANCH  12  13
ATOM     13  C   UNL     1       5.777  -1.249  12.386  0.00  0.00    -0.026 A 
ATOM     14  C   UNL     1       6.559  -2.388  12.323  0.00  0.00    +0.005 A 
ATOM     15  C   UNL     1       7.887  -2.336  12.704  0.00  0.00    +0.000 A 
ATOM     16  C   UNL     1       8.433  -1.145  13.146  0.00  0.00    +0.000 A 
ATOM     17  C   UNL     1       7.652  -0.007  13.207  0.00  0.00    +0.005 A 
ATOM     18  C   UNL     1       6.324  -0.058  12.822  0.00  0.00    -0.025 A 
BRANCH  18  19
ATOM     19  C   UNL     1       5.474   1.185  12.884  0.00  0.00    +0.143 C 
BRANCH  19  20
ATOM     20  N   UNL     1       6.237   2.269  13.507  0.00  0.00    -0.297 N 
ATOM     21  C   UNL     1       6.338   2.485  14.955  0.00  0.00    +0.108 C 
ATOM     22  C   UNL     1       7.551   3.422  15.149  0.00  0.00    +0.028 C 
ATOM     23  C   UNL     1       7.606   4.151  13.786  0.00  0.00    +0.097 C 
ATOM     24  C   UNL     1       6.940   3.190  12.826  0.00  0.00    +0.216 C 
ATOM     25  O   UNL     1       7.025   3.245  11.617  0.00  0.00    -0.276 OA
ENDBRANCH  19  20
ENDBRANCH  18  19
ENDBRANCH  12  13
ENDBRANCH  10  12
ENDBRANCH   5   8
BRANCH   1  26
ATOM     26  C   UNL     1      -0.231   0.480   6.554  0.00  0.00    +0.022 C 
BRANCH  26  29
ATOM     27  C   UNL     1      -0.426   1.109   2.985  0.00  0.00    +0.202 A 
ATOM     28  N   UNL     1      -0.236   0.319   4.057  0.00  0.00    -0.193 NA
ATOM     29  C   UNL     1      -0.370   1.013   5.151  0.00  0.00    +0.211 A 
ATOM     30  O   UNL     1      -0.651   2.279   4.819  0.00  0.00    -0.340 OA
ATOM     31  N   UNL     1      -0.678   2.326   3.401  0.00  0.00    -0.056 NA
BRANCH  27  38
ATOM     32  C   UNL     1       1.785  -0.531   2.095  0.00  0.00    +0.044 C 
ATOM     33  C   UNL     1       0.706  -0.114   1.129  0.00  0.00    -0.040 A 
ATOM     34  C   UNL     1       0.764  -0.518  -0.189  0.00  0.00    +0.004 A 
ATOM     35  C   UNL     1      -0.225  -0.136  -1.077  0.00  0.00    +0.000 A 
ATOM     36  C   UNL     1      -1.278   0.653  -0.649  0.00  0.00    +0.001 A 
ATOM     37  C   UNL     1      -1.345   1.064   0.667  0.00  0.00    +0.012 A 
ATOM     38  C   UNL     1      -0.355   0.676   1.567  0.00  0.00    +0.025 A 
ENDBRANCH  27  38
ENDBRANCH  26  29
ENDBRANCH   1  26
TORSDOF 8
