REMARK  Name = ZINC06973174
REMARK  6 active torsions:
REMARK  status: ('A' for Active; 'I' for Inactive)
REMARK    1  A    between atoms: C_1  and  C_2
REMARK    2  A    between atoms: C_15  and  C_17
REMARK    3  A    between atoms: C_17  and  C_19
REMARK    4  A    between atoms: C_17  and  S_20
REMARK    5  A    between atoms: S_20  and  C_21
REMARK    6  A    between atoms: N_26  and  C_27
REMARK                            x       y       z     vdW  Elec       q    Type
REMARK                         _______ _______ _______ _____ _____    ______ ____
ROOT
ATOM      1  C   UNL     1       3.546   2.093  -1.322  0.00  0.00    +0.008 C 
ATOM      2  C   UNL     1       2.194   1.398  -1.157  0.00  0.00    -0.009 C 
ATOM      3  C   UNL     1       1.421   2.037  -0.001  0.00  0.00    +0.008 C 
ATOM      4  C   UNL     1      -0.019   1.522   0.010  0.00  0.00    +0.037 C 
ATOM      5  C   UNL     1       0.002  -0.004   0.002  0.00  0.00    -0.023 A 
ATOM      6  C   UNL     1       1.113  -0.674  -0.386  0.00  0.00    -0.004 A 
ATOM      7  S   UNL     1       0.692  -2.393  -0.240  0.00  0.00    -0.073 S 
ATOM      8  C   UNL     1      -0.965  -2.210   0.338  0.00  0.00    +0.116 A 
ATOM      9  C   UNL     1      -1.139  -0.809   0.399  0.00  0.00    +0.075 A 
ATOM     10  C   UNL     1      -2.417  -0.330   0.843  0.00  0.00    +0.260 A 
ATOM     11  O   UNL     1      -2.669   0.859   0.931  0.00  0.00    -0.267 OA
ATOM     12  N   UNL     1      -3.325  -1.284   1.159  0.00  0.00    -0.309 N 
ATOM     13  H   UNL     1      -4.229  -0.996   1.473  0.00  0.00    +0.170 HD
ATOM     14  C   UNL     1      -3.065  -2.611   1.068  0.00  0.00    +0.124 A 
ATOM     15  N   UNL     1      -1.908  -3.088   0.665  0.00  0.00    -0.225 NA
ATOM     16  C   UNL     1       2.414  -0.088  -0.839  0.00  0.00    +0.046 C 
ENDROOT
BRANCH  14  17
ATOM     17  C   UNL     1      -4.152  -3.584   1.445  0.00  0.00    +0.116 C 
ATOM     18  C   UNL     1      -3.972  -4.010   2.904  0.00  0.00    +0.027 C 
BRANCH  17  19
ATOM     19  S   UNL     1      -5.771  -2.790   1.243  0.00  0.00    -0.086 S 
BRANCH  19  20
ATOM     20  C   UNL     1      -6.923  -4.082   1.574  0.00  0.00    +0.161 A 
ATOM     21  N   UNL     1      -6.697  -5.341   1.896  0.00  0.00    -0.133 NA
ATOM     22  N   UNL     1      -7.756  -6.191   2.115  0.00  0.00    -0.125 NA
ATOM     23  C   UNL     1      -8.992  -5.744   2.001  0.00  0.00    +0.183 A 
ATOM     24  S   UNL     1      -8.709  -4.034   1.570  0.00  0.00    -0.025 S 
ATOM     25  N   UNL     1     -10.193  -6.421   2.175  0.00  0.00    -0.319 N 
ATOM     26  H   UNL     1     -11.035  -5.955   2.055  0.00  0.00    +0.148 HD
BRANCH  25  27
ATOM     27  C   UNL     1     -10.188  -7.840   2.539  0.00  0.00    +0.072 C 
ATOM     28  C   UNL     1     -11.166  -8.761   1.807  0.00  0.00    +0.024 C 
ATOM     29  C   UNL     1     -11.416  -8.387   3.270  0.00  0.00    +0.024 C 
ENDBRANCH  25  27
ENDBRANCH  19  20
ENDBRANCH  17  19
ENDBRANCH  14  17
TORSDOF 4
