REMARK  Name = ZINC47146109
REMARK  5 active torsions:
REMARK  status: ('A' for Active; 'I' for Inactive)
REMARK    1  A    between atoms: C_1  and  O_2
REMARK    2  A    between atoms: O_2  and  C_3
REMARK    3  A    between atoms: C_8  and  C_9
REMARK    4  A    between atoms: N_25  and  C_28
REMARK    5  A    between atoms: C_31  and  N_34
REMARK                            x       y       z     vdW  Elec       q    Type
REMARK                         _______ _______ _______ _____ _____    ______ ____
ROOT
ATOM      1  C   UNL     1       0.052  -2.828   0.005  0.00  0.00    +0.075 C 
ATOM      2  C   UNL     1       1.137  -3.508  -0.749  0.00  0.00    +0.033 A 
ATOM      3  C   UNL     1       1.221  -4.797  -1.126  0.00  0.00    +0.088 A 
ATOM      4  N   UNL     1       2.348  -5.117  -1.849  0.00  0.00    -0.311 N 
ATOM      5  H   UNL     1       2.474  -6.022  -2.175  0.00  0.00    +0.170 HD
ATOM      6  C   UNL     1       3.274  -4.175  -2.105  0.00  0.00    +0.289 A 
ATOM      7  O   UNL     1       4.320  -4.291  -2.719  0.00  0.00    -0.260 OA
ATOM      8  S   UNL     1       2.640  -2.800  -1.375  0.00  0.00    -0.030 S 
ATOM      9  S   UNL     1      -0.033  -5.970  -0.681  0.00  0.00    -0.093 S 
ATOM     10  C   UNL     1      -1.445  -4.931  -0.186  0.00  0.00    +0.152 C 
ATOM     11  C   UNL     1      -0.953  -3.725   0.622  0.00  0.00    +0.110 C 
ATOM     12  C   UNL     1      -0.689  -4.296   1.980  0.00  0.00    +0.232 C 
ATOM     13  O   UNL     1       0.100  -3.886   2.804  0.00  0.00    -0.274 OA
ATOM     14  N   UNL     1      -1.511  -5.366   2.099  0.00  0.00    -0.209 N 
ATOM     15  C   UNL     1      -2.138  -5.702   0.952  0.00  0.00    +0.240 C 
ATOM     16  O   UNL     1      -3.067  -6.472   0.837  0.00  0.00    -0.274 OA
ENDROOT
BRANCH   1  22
ATOM     17  C   UNL     1       0.147  -0.767   1.430  0.00  0.00    +0.124 A 
ATOM     18  C   UNL     1       0.727  -0.012   2.440  0.00  0.00    +0.046 A 
ATOM     19  C   UNL     1       1.837  -0.490   3.108  0.00  0.00    +0.004 A 
ATOM     20  C   UNL     1       2.372  -1.720   2.771  0.00  0.00    +0.001 A 
ATOM     21  C   UNL     1       1.797  -2.474   1.765  0.00  0.00    +0.008 A 
ATOM     22  C   UNL     1       0.682  -2.003   1.097  0.00  0.00    +0.003 A 
BRANCH  17  24
ATOM     23  C   UNL     1      -1.442   0.981   1.167  0.00  0.00    +0.277 C 
ATOM     24  O   UNL     1      -0.946  -0.299   0.772  0.00  0.00    -0.495 OA
ENDBRANCH  17  24
ENDBRANCH   1  22
BRANCH  14  25
ATOM     25  C   UNL     1      -1.701  -6.054   3.306  0.00  0.00    +0.044 A 
ATOM     26  C   UNL     1      -1.035  -5.644   4.453  0.00  0.00    +0.026 A 
ATOM     27  C   UNL     1      -1.225  -6.324   5.640  0.00  0.00    +0.034 A 
ATOM     28  C   UNL     1      -2.077  -7.412   5.687  0.00  0.00    +0.126 A 
ATOM     29  C   UNL     1      -2.741  -7.823   4.546  0.00  0.00    +0.034 A 
ATOM     30  C   UNL     1      -2.560  -7.144   3.357  0.00  0.00    +0.026 A 
BRANCH  28  31
ATOM     31  N   UNL     1      -2.278  -8.138   6.961  0.00  0.00    +0.056 N 
ATOM     32  O   UNL     1      -1.698  -7.780   7.959  0.00  0.00    -0.126 OA
ATOM     33  O   UNL     1      -3.023  -9.089   7.003  0.00  0.00    -0.126 OA
ENDBRANCH  28  31
ENDBRANCH  14  25
TORSDOF 4
