REMARK  Name = ZINC58836508
REMARK  4 active torsions:
REMARK  status: ('A' for Active; 'I' for Inactive)
REMARK    1  A    between atoms: C_6  and  C_7
REMARK    2  A    between atoms: N_8  and  N_9
REMARK    3  A    between atoms: C_13  and  C_18
REMARK    4  A    between atoms: N_20  and  C_21
REMARK                            x       y       z     vdW  Elec       q    Type
REMARK                         _______ _______ _______ _____ _____    ______ ____
ROOT
ATOM      1  N   UNL     1      -3.569  -0.885  -0.056  0.00  0.00    -0.137 N 
ATOM      2  C   UNL     1      -4.747  -0.283  -0.113  0.00  0.00    +0.243 C 
ATOM      3  O   UNL     1      -4.716   0.920  -0.261  0.00  0.00    -0.273 OA
ATOM      4  C   UNL     1      -6.106  -0.887  -0.020  0.00  0.00    +0.122 C 
ATOM      5  C   UNL     1      -6.136  -2.337  -0.509  0.00  0.00    +0.149 C 
ATOM      6  S   UNL     1      -4.817  -3.249   0.358  0.00  0.00    -0.076 S 
ATOM      7  C   UNL     1      -3.397  -2.262  -0.038  0.00  0.00    +0.177 C 
ATOM      8  N   UNL     1      -2.242  -2.805  -0.298  0.00  0.00    -0.278 NA
ATOM      9  H   UNL     1      -2.145  -3.770  -0.280  0.00  0.00    +0.189 HD
ENDROOT
BRANCH   5  10
ATOM     10  C   UNL     1      -7.475  -2.953  -0.194  0.00  0.00    +0.231 C 
ATOM     11  O   UNL     1      -8.101  -2.579   0.775  0.00  0.00    -0.274 OA
ATOM     12  N   UNL     1      -7.976  -3.919  -0.988  0.00  0.00    -0.283 N 
ATOM     13  H   UNL     1      -7.440  -4.277  -1.713  0.00  0.00    +0.155 HD
BRANCH  12  14
ATOM     14  C   UNL     1      -9.270  -4.406  -0.768  0.00  0.00    +0.053 A 
ATOM     15  C   UNL     1     -10.211  -3.613  -0.125  0.00  0.00    +0.044 A 
ATOM     16  C   UNL     1     -11.488  -4.096   0.091  0.00  0.00    +0.043 A 
ATOM     17  C   UNL     1     -11.828  -5.369  -0.332  0.00  0.00    +0.021 A 
ATOM     18  C   UNL     1     -10.893  -6.161  -0.972  0.00  0.00    +0.023 A 
ATOM     19  C   UNL     1      -9.616  -5.681  -1.196  0.00  0.00    +0.062 A 
ATOM     20 CL   UNL     1      -8.444  -6.674  -2.006  0.00  0.00    -0.082 Cl
ATOM     21 CL   UNL     1     -12.666  -3.106   0.895  0.00  0.00    -0.083 Cl
ENDBRANCH  12  14
ENDBRANCH   5  10
BRANCH   1  23
ATOM     22  C   UNL     1      -1.566  -0.218   0.949  0.00  0.00    +0.139 C 
ATOM     23  N   UNL     1      -2.422  -0.081  -0.017  0.00  0.00    -0.178 NA
BRANCH  22  29
ATOM     24  C   UNL     1      -0.033   1.423  -0.122  0.00  0.00    +0.013 A 
ATOM     25  C   UNL     1       1.145   2.139  -0.136  0.00  0.00    +0.050 A 
ATOM     26  C   UNL     1       2.062   1.995   0.895  0.00  0.00    +0.166 A 
ATOM     27  C   UNL     1       1.795   1.123   1.951  0.00  0.00    +0.167 A 
ATOM     28  C   UNL     1       0.616   0.403   1.971  0.00  0.00    +0.059 A 
ATOM     29  C   UNL     1      -0.307   0.549   0.932  0.00  0.00    -0.002 A 
ATOM     30  O   UNL     1       2.844   1.163   2.825  0.00  0.00    -0.453 OA
ATOM     31  C   UNL     1       3.932   1.754   2.091  0.00  0.00    +0.466 C 
ATOM     32  O   UNL     1       3.277   2.579   1.110  0.00  0.00    -0.453 OA
ENDBRANCH  22  29
ENDBRANCH   1  23
TORSDOF 4
