REMARK  Name = ZINC36548563
REMARK  13 active torsions:
REMARK  status: ('A' for Active; 'I' for Inactive)
REMARK    1  A    between atoms: C_1  and  C_2
REMARK    2  A    between atoms: C_2  and  C_3
REMARK    3  A    between atoms: C_2  and  C_4
REMARK    4  A    between atoms: C_2  and  C_5
REMARK    5  A    between atoms: C_5  and  C_6
REMARK    6  A    between atoms: C_6  and  C_7
REMARK    7  A    between atoms: C_6  and  C_8
REMARK    8  A    between atoms: C_6  and  N_9
REMARK    9  A    between atoms: C_10  and  C_12
REMARK   10  A    between atoms: C_12  and  C_14
REMARK   11  A    between atoms: C_12  and  N_23
REMARK   12  A    between atoms: N_23  and  C_24
REMARK   13  A    between atoms: C_31  and  C_33
REMARK                            x       y       z     vdW  Elec       q    Type
REMARK                         _______ _______ _______ _____ _____    ______ ____
ROOT
ATOM      1  C   UNL     1       5.357  -0.492  -4.240  0.00  0.00    +0.197 C 
ENDROOT
BRANCH   1   2
ATOM      2  C   UNL     1       5.253  -1.905  -4.754  0.00  0.00    -0.014 A 
ATOM      3  C   UNL     1       6.013  -2.906  -4.178  0.00  0.00    +0.010 A 
ATOM      4  C   UNL     1       5.921  -4.203  -4.646  0.00  0.00    +0.050 A 
ATOM      5  C   UNL     1       5.067  -4.503  -5.695  0.00  0.00    +0.166 A 
ATOM      6  C   UNL     1       4.301  -3.495  -6.275  0.00  0.00    +0.167 A 
ATOM      7  C   UNL     1       4.394  -2.198  -5.797  0.00  0.00    +0.055 A 
ATOM      8  O   UNL     1       3.550  -4.039  -7.276  0.00  0.00    -0.453 OA
ATOM      9  C   UNL     1       4.164  -5.307  -7.572  0.00  0.00    +0.466 C 
ATOM     10  O   UNL     1       4.795  -5.679  -6.333  0.00  0.00    -0.453 OA
ENDBRANCH   1   2
BRANCH   1  12
ATOM     11  N   UNL     1       3.359  -0.719  -2.799  0.00  0.00    -0.308 N 
ATOM     12  C   UNL     1       4.662  -0.391  -2.906  0.00  0.00    +0.239 C 
ATOM     13  O   UNL     1       5.274  -0.014  -1.930  0.00  0.00    -0.273 OA
ATOM     14  H   UNL     1       2.869  -1.020  -3.580  0.00  0.00    +0.149 HD
BRANCH  11  15
ATOM     15  C   UNL     1       2.683  -0.620  -1.503  0.00  0.00    +0.030 C 
ATOM     16  C   UNL     1       2.878   0.785  -0.931  0.00  0.00    +0.031 C 
ATOM     17  C   UNL     1       3.277  -1.650  -0.539  0.00  0.00    +0.031 C 
BRANCH  15  18
ATOM     18  C   UNL     1       1.189  -0.894  -1.685  0.00  0.00    +0.031 C 
BRANCH  18  20
ATOM     19  C   UNL     1       1.018  -0.964  -4.176  0.00  0.00    +0.010 C 
ATOM     20  C   UNL     1       0.681  -0.153  -2.923  0.00  0.00    -0.036 C 
ATOM     21  C   UNL     1       1.353   1.219  -3.008  0.00  0.00    +0.010 C 
ATOM     22  C   UNL     1      -0.835   0.027  -2.825  0.00  0.00    +0.010 C 
ENDBRANCH  18  20
ENDBRANCH  15  18
ENDBRANCH  11  15
ENDBRANCH   1  12
BRANCH   1  23
ATOM     23  N   UNL     1       6.768  -0.131  -4.083  0.00  0.00    -0.252 N 
ATOM     24  C   UNL     1       7.577  -0.093  -5.160  0.00  0.00    +0.241 C 
ATOM     25  O   UNL     1       7.137  -0.357  -6.259  0.00  0.00    -0.273 OA
BRANCH  23  26
ATOM     26  C   UNL     1       7.276   0.173  -2.815  0.00  0.00    +0.056 A 
ATOM     27  C   UNL     1       7.867  -0.820  -2.046  0.00  0.00    +0.025 A 
ATOM     28  C   UNL     1       8.368  -0.516  -0.794  0.00  0.00    +0.002 A 
ATOM     29  C   UNL     1       8.281   0.775  -0.307  0.00  0.00    +0.002 A 
ATOM     30  C   UNL     1       7.692   1.767  -1.070  0.00  0.00    +0.022 A 
ATOM     31  C   UNL     1       7.195   1.471  -2.326  0.00  0.00    +0.062 A 
ATOM     32 CL   UNL     1       6.463   2.718  -3.287  0.00  0.00    -0.082 Cl
ENDBRANCH  23  26
BRANCH  24  33
ATOM     33  C   UNL     1       9.029   0.278  -5.000  0.00  0.00    +0.160 C 
ATOM     34  C   UNL     1       9.183   1.813  -4.924  0.00  0.00    +0.041 C 
ATOM     35  C   UNL     1       9.460   2.175  -6.402  0.00  0.00    +0.098 C 
ATOM     36  C   UNL     1      10.044   0.910  -6.991  0.00  0.00    +0.214 C 
ATOM     37  O   UNL     1      10.651   0.848  -8.039  0.00  0.00    -0.276 OA
ATOM     38  N   UNL     1       9.793  -0.137  -6.182  0.00  0.00    -0.304 N 
ATOM     39  H   UNL     1      10.080  -1.046  -6.357  0.00  0.00    +0.149 HD
ENDBRANCH  24  33
ENDBRANCH   1  23
TORSDOF 8
