REMARK  Name = ZINC03457828
REMARK  10 active torsions:
REMARK  status: ('A' for Active; 'I' for Inactive)
REMARK    1  A    between atoms: C_1  and  C_2
REMARK    2  A    between atoms: C_7  and  N_8
REMARK    3  A    between atoms: C_9  and  C_21
REMARK    4  A    between atoms: C_12  and  S_13
REMARK    5  A    between atoms: S_13  and  C_14
REMARK    6  A    between atoms: C_14  and  C_15
REMARK    7  A    between atoms: C_24  and  C_27
REMARK    8  A    between atoms: C_27  and  C_28
REMARK    9  A    between atoms: C_27  and  C_29
REMARK   10  A    between atoms: C_27  and  C_30
REMARK                            x       y       z     vdW  Elec       q    Type
REMARK                         _______ _______ _______ _____ _____    ______ ____
ROOT
ATOM      1  N   UNL     1      -1.239   2.070   0.019  0.00  0.00    -0.270 N 
ATOM      2  C   UNL     1      -1.961   2.472   1.122  0.00  0.00    +0.169 A 
ATOM      3  N   UNL     1      -3.038   3.077   0.678  0.00  0.00    -0.128 NA
ATOM      4  N   UNL     1      -3.041   3.082  -0.607  0.00  0.00    -0.122 NA
ATOM      5  C   UNL     1      -1.963   2.486  -1.065  0.00  0.00    +0.197 A 
ENDROOT
BRANCH   1  12
ATOM      6  C   UNL     1       1.161   3.599   0.010  0.00  0.00    +0.046 C 
ATOM      7  C   UNL     1       1.177   2.092   0.002  0.00  0.00    -0.026 A 
ATOM      8  C   UNL     1       2.381   1.413  -0.013  0.00  0.00    +0.005 A 
ATOM      9  C   UNL     1       2.396   0.031  -0.021  0.00  0.00    +0.000 A 
ATOM     10  C   UNL     1       1.208  -0.677  -0.013  0.00  0.00    +0.002 A 
ATOM     11  C   UNL     1       0.002  -0.004   0.002  0.00  0.00    +0.026 A 
ATOM     12  C   UNL     1      -0.017   1.384   0.010  0.00  0.00    +0.053 A 
ENDBRANCH   1  12
BRANCH   2  13
ATOM     13  C   UNL     1      -1.592   2.260   2.538  0.00  0.00    +0.020 A 
ATOM     14  C   UNL     1      -0.600   1.337   2.874  0.00  0.00    +0.012 A 
ATOM     15  C   UNL     1      -0.258   1.148   4.197  0.00  0.00    +0.005 A 
ATOM     16  C   UNL     1      -0.902   1.863   5.190  0.00  0.00    -0.042 A 
ATOM     17  C   UNL     1      -1.890   2.776   4.865  0.00  0.00    +0.005 A 
ATOM     18  C   UNL     1      -2.239   2.978   3.545  0.00  0.00    +0.012 A 
BRANCH  16  19
ATOM     19  C   UNL     1      -0.527   1.647   6.634  0.00  0.00    -0.013 C 
ATOM     20  C   UNL     1      -1.752   1.163   7.412  0.00  0.00    +0.015 C 
ATOM     21  C   UNL     1       0.581   0.596   6.721  0.00  0.00    +0.015 C 
ATOM     22  C   UNL     1      -0.029   2.964   7.234  0.00  0.00    +0.015 C 
ENDBRANCH  16  19
ENDBRANCH   2  13
BRANCH   5  23
ATOM     23  S   UNL     1      -1.532   2.260  -2.758  0.00  0.00    -0.076 S 
BRANCH  23  24
ATOM     24  C   UNL     1      -2.948   3.061  -3.552  0.00  0.00    +0.173 C 
BRANCH  24  25
ATOM     25  C   UNL     1      -2.793   2.988  -5.049  0.00  0.00    +0.231 C 
ATOM     26  O   UNL     1      -1.821   2.448  -5.532  0.00  0.00    -0.274 OA
ATOM     27  N   UNL     1      -3.734   3.523  -5.852  0.00  0.00    -0.240 N 
ATOM     28  C   UNL     1      -3.595   3.458  -7.191  0.00  0.00    +0.303 C 
ATOM     29  O   UNL     1      -2.620   2.916  -7.674  0.00  0.00    -0.253 OA
ATOM     30  N   UNL     1      -4.536   3.993  -7.993  0.00  0.00    -0.313 N 
ATOM     31  H   UNL     1      -4.512   3.956  -5.465  0.00  0.00    +0.159 HD
ATOM     32  H   UNL     1      -5.314   4.425  -7.607  0.00  0.00    +0.146 HD
ATOM     33  H   UNL     1      -4.436   3.946  -8.957  0.00  0.00    +0.146 HD
ENDBRANCH  24  25
ENDBRANCH  23  24
ENDBRANCH   5  23
TORSDOF 6
