REMARK  Name = ZINC27324526
REMARK  9 active torsions:
REMARK  status: ('A' for Active; 'I' for Inactive)
REMARK    1  A    between atoms: C_1  and  C_2
REMARK    2  A    between atoms: C_2  and  C_40
REMARK    3  A    between atoms: C_7  and  C_22
REMARK    4  A    between atoms: C_8  and  C_10
REMARK    5  A    between atoms: C_8  and  O_21
REMARK    6  A    between atoms: C_10  and  N_11
REMARK    7  A    between atoms: C_12  and  C_14
REMARK    8  A    between atoms: C_22  and  S_23
REMARK    9  A    between atoms: S_23  and  N_26
REMARK                            x       y       z     vdW  Elec       q    Type
REMARK                         _______ _______ _______ _____ _____    ______ ____
ROOT
ATOM      1  C   UNL     1      -8.432   0.406  -0.940  0.00  0.00    +0.012 C 
ATOM      2  C   UNL     1      -8.187   1.228   0.327  0.00  0.00    -0.022 C 
ATOM      3  C   UNL     1      -9.255   2.367   0.485  0.00  0.00    -0.002 C 
ATOM      4  C   UNL     1      -8.956   3.221  -0.784  0.00  0.00    +0.005 C 
ATOM      5  C   UNL     1      -7.429   3.099  -0.986  0.00  0.00    +0.012 C 
ATOM      6  C   UNL     1      -6.949   2.182   0.180  0.00  0.00    +0.027 C 
ATOM      7  C   UNL     1      -7.088   3.067   1.456  0.00  0.00    +0.089 C 
ATOM      8  C   UNL     1      -8.636   3.183   1.661  0.00  0.00    +0.041 C 
ATOM      9  C   UNL     1      -8.082   0.340   1.568  0.00  0.00    +0.012 C 
ENDROOT
BRANCH   7  10
ATOM     10  O   UNL     1      -6.468   2.430   2.574  0.00  0.00    -0.386 OA
ATOM     11  H   UNL     1      -6.473   2.920   3.559  0.00  0.00    +0.210 HD
ENDBRANCH   7  10
BRANCH   7  12
ATOM     12  C   UNL     1      -6.472   4.447   1.217  0.00  0.00    +0.139 C 
BRANCH  12  13
ATOM     13  N   UNL     1      -6.554   5.238   2.448  0.00  0.00    -0.312 N 
ATOM     14  C   UNL     1      -6.070   6.495   2.474  0.00  0.00    +0.214 C 
ATOM     15  O   UNL     1      -5.567   6.973   1.479  0.00  0.00    -0.276 OA
ATOM     16  H   UNL     1      -7.010   4.805   3.350  0.00  0.00    +0.149 HD
BRANCH  14  17
ATOM     17  C   UNL     1      -6.154   7.309   3.740  0.00  0.00    +0.058 C 
ATOM     18  C   UNL     1      -5.539   8.691   3.501  0.00  0.00    +0.009 C 
ATOM     19  C   UNL     1      -5.682   9.531   4.773  0.00  0.00    -0.018 C 
ATOM     20  C   UNL     1      -7.162   9.629   5.150  0.00  0.00    -0.083 C 
ATOM     21  N   UNL     1      -7.704   8.282   5.368  0.00  0.00    +0.380 N 
ATOM     22  C   UNL     1      -7.620   7.471   4.147  0.00  0.00    -0.070 C 
ATOM     23  H   UNL     1      -7.130   7.780   6.162  0.00  0.00    -0.086 HD
ATOM     24  H   UNL     1      -8.759   8.355   5.669  0.00  0.00    -0.086 HD
ENDBRANCH  14  17
ENDBRANCH  12  13
ENDBRANCH   7  12
BRANCH   6  25
ATOM     25  C   UNL     1      -5.592   1.503  -0.018  0.00  0.00    +0.195 C 
BRANCH  25  26
ATOM     26  S   UNL     1      -4.291   2.764  -0.101  0.00  0.00    +0.032 S 
ATOM     27  O   UNL     1      -3.971   3.224   1.205  0.00  0.00    -0.158 OA
ATOM     28  O   UNL     1      -4.569   3.686  -1.146  0.00  0.00    -0.158 OA
BRANCH  26  29
ATOM     29  N   UNL     1      -2.940   1.949  -0.605  0.00  0.00    -0.181 NA
ATOM     30  C   UNL     1      -2.636   1.818  -2.037  0.00  0.00    +0.110 C 
ATOM     31  C   UNL     1      -1.213   2.328  -2.287  0.00  0.00    +0.033 C 
ATOM     32  C   UNL     1      -0.243   1.596  -1.360  0.00  0.00    +0.017 C 
ATOM     33  C   UNL     1      -0.606   1.857   0.101  0.00  0.00    +0.033 C 
ATOM     34  C   UNL     1      -2.024   1.344   0.371  0.00  0.00    +0.110 C 
ATOM     35  C   UNL     1      -0.272   0.115  -1.645  0.00  0.00    -0.015 C 
ATOM     36  C   UNL     1       0.938  -0.255  -2.028  0.00  0.00    +0.005 C 
ATOM     37  C   UNL     1       1.864   0.893  -2.038  0.00  0.00    -0.021 A 
ATOM     38  C   UNL     1       1.171   2.037  -1.634  0.00  0.00    -0.030 A 
ATOM     39  C   UNL     1       1.814   3.251  -1.558  0.00  0.00    +0.005 A 
ATOM     40  C   UNL     1       3.157   3.344  -1.882  0.00  0.00    +0.000 A 
ATOM     41  C   UNL     1       3.854   2.219  -2.285  0.00  0.00    +0.001 A 
ATOM     42  C   UNL     1       3.218   0.997  -2.365  0.00  0.00    +0.008 A 
ENDBRANCH  26  29
ENDBRANCH  25  26
ENDBRANCH   6  25
TORSDOF 7
