REMARK  Name = ZINC33959443
REMARK  10 active torsions:
REMARK  status: ('A' for Active; 'I' for Inactive)
REMARK    1  A    between atoms: C_4  and  C_7
REMARK    2  A    between atoms: N_9  and  C_10
REMARK    3  A    between atoms: C_10  and  C_11
REMARK    4  A    between atoms: C_11  and  C_12
REMARK    5  A    between atoms: C_12  and  C_13
REMARK    6  A    between atoms: C_13  and  C_14
REMARK    7  A    between atoms: C_14  and  C_16
REMARK    8  A    between atoms: C_14  and  N_28
REMARK    9  A    between atoms: N_18  and  N_19
REMARK   10  A    between atoms: C_20  and  C_21
REMARK                            x       y       z     vdW  Elec       q    Type
REMARK                         _______ _______ _______ _____ _____    ______ ____
ROOT
ATOM      1  C   UNL     1       7.161  -7.248  -0.107  0.00  0.00    +0.145 C 
ENDROOT
BRANCH   1   2
ATOM      2  N   UNL     1       7.899  -6.966  -1.345  0.00  0.00    -0.287 NA
ATOM      3  C   UNL     1       7.105  -7.330  -2.527  0.00  0.00    +0.113 C 
ATOM      4  C   UNL     1       7.885  -6.965  -3.792  0.00  0.00    +0.175 C 
ATOM      5  O   UNL     1       9.155  -7.623  -3.769  0.00  0.00    -0.377 OA
ATOM      6  C   UNL     1       9.956  -7.291  -2.632  0.00  0.00    +0.175 C 
ATOM      7  C   UNL     1       9.196  -7.659  -1.355  0.00  0.00    +0.113 C 
ENDBRANCH   1   2
BRANCH   1   8
ATOM      8  C   UNL     1       7.003  -8.738   0.055  0.00  0.00    +0.249 C 
ATOM      9  O   UNL     1       6.996  -9.457  -0.922  0.00  0.00    -0.272 OA
ATOM     10  N   UNL     1       6.868  -9.272   1.286  0.00  0.00    -0.206 N 
ATOM     11  H   UNL     1       6.874  -8.697   2.067  0.00  0.00    +0.177 HD
BRANCH  10  12
ATOM     12  N   UNL     1       6.721 -10.657   1.436  0.00  0.00    -0.188 NA
ATOM     13  C   UNL     1       6.592 -11.171   2.620  0.00  0.00    +0.138 C 
BRANCH  13  14
ATOM     14  C   UNL     1       6.436 -12.629   2.779  0.00  0.00    -0.004 A 
ATOM     15  C   UNL     1       6.434 -13.460   1.656  0.00  0.00    +0.009 A 
ATOM     16  C   UNL     1       6.288 -14.823   1.811  0.00  0.00    +0.002 A 
ATOM     17  C   UNL     1       6.145 -15.368   3.075  0.00  0.00    +0.015 A 
ATOM     18  C   UNL     1       6.146 -14.550   4.192  0.00  0.00    +0.018 A 
ATOM     19  C   UNL     1       6.297 -13.185   4.052  0.00  0.00    +0.024 A 
ATOM     20 BR   UNL     1       5.950 -15.306   5.914  0.00  0.00    -0.050 Br
ENDBRANCH  13  14
ENDBRANCH  10  12
ENDBRANCH   1   8
BRANCH   1  21
ATOM     21  C   UNL     1       5.780  -6.593  -0.175  0.00  0.00    +0.028 C 
BRANCH  21  22
ATOM     22  C   UNL     1       5.939  -5.072  -0.214  0.00  0.00    +0.004 C 
BRANCH  22  23
ATOM     23  C   UNL     1       4.558  -4.416  -0.283  0.00  0.00    +0.019 C 
BRANCH  23  24
ATOM     24  C   UNL     1       4.717  -2.895  -0.322  0.00  0.00    +0.104 C 
BRANCH  24  27
ATOM     25  C   UNL     1       3.288  -0.925  -0.431  0.00  0.00    +0.244 C 
ATOM     26  O   UNL     1       4.288  -0.234  -0.415  0.00  0.00    -0.270 OA
ATOM     27  N   UNL     1       3.395  -2.267  -0.388  0.00  0.00    -0.311 N 
ATOM     28  H   UNL     1       2.597  -2.818  -0.400  0.00  0.00    +0.149 HD
BRANCH  25  32
ATOM     29  C   UNL     1      -0.546   0.895  -0.623  0.00  0.00    +0.000 A 
ATOM     30  C   UNL     1       0.591   1.684  -0.605  0.00  0.00    +0.001 A 
ATOM     31  C   UNL     1       1.839   1.099  -0.542  0.00  0.00    +0.013 A 
ATOM     32  C   UNL     1       1.954  -0.291  -0.497  0.00  0.00    +0.037 A 
ATOM     33  C   UNL     1       0.803  -1.081  -0.516  0.00  0.00    +0.013 A 
ATOM     34  C   UNL     1      -0.439  -0.484  -0.579  0.00  0.00    +0.001 A 
ENDBRANCH  25  32
ENDBRANCH  24  27
ENDBRANCH  23  24
ENDBRANCH  22  23
ENDBRANCH  21  22
ENDBRANCH   1  21
TORSDOF 10
