REMARK  Name = ZINC63835706
REMARK  7 active torsions:
REMARK  status: ('A' for Active; 'I' for Inactive)
REMARK    1  A    between atoms: C_7  and  C_10
REMARK    2  A    between atoms: C_13  and  S_18
REMARK    3  A    between atoms: N_14  and  C_15
REMARK    4  A    between atoms: S_18  and  C_19
REMARK    5  A    between atoms: C_19  and  C_20
REMARK    6  A    between atoms: C_24  and  S_26
REMARK    7  A    between atoms: S_26  and  N_29
REMARK                            x       y       z     vdW  Elec       q    Type
REMARK                         _______ _______ _______ _____ _____    ______ ____
ROOT
ATOM      1  C   UNL     1       0.661  -3.155  -0.273  0.00  0.00    +0.163 A 
ATOM      2  N   UNL     1      -0.658  -3.083  -0.161  0.00  0.00    -0.129 NA
ATOM      3  N   UNL     1      -1.133  -4.241   0.131  0.00  0.00    -0.122 NA
ATOM      4  C   UNL     1      -0.152  -5.126   0.225  0.00  0.00    +0.192 A 
ATOM      5  N   UNL     1       1.014  -4.471  -0.033  0.00  0.00    -0.299 N 
ENDROOT
BRANCH   1  12
ATOM      6  C   UNL     1      -0.079   1.240  -1.118  0.00  0.00    +0.001 A 
ATOM      7  C   UNL     1       1.087   1.962  -1.386  0.00  0.00    +0.002 A 
ATOM      8  C   UNL     1       2.308   1.374  -1.386  0.00  0.00    +0.026 A 
ATOM      9  C   UNL     1       2.424  -0.013  -1.107  0.00  0.00    +0.043 A 
ATOM     10  N   UNL     1       3.475  -0.806  -1.048  0.00  0.00    -0.380 N 
ATOM     11  C   UNL     1       3.038  -2.166  -0.719  0.00  0.00    +0.152 C 
ATOM     12  C   UNL     1       1.533  -2.099  -0.581  0.00  0.00    +0.025 C 
ATOM     13  C   UNL     1       1.192  -0.769  -0.825  0.00  0.00    +0.006 A 
ATOM     14  C   UNL     1      -0.045  -0.089  -0.843  0.00  0.00    +0.010 A 
ATOM     15  H   UNL     1       4.394  -0.532  -1.198  0.00  0.00    +0.160 HD
ENDBRANCH   1  12
BRANCH   5  16
ATOM     16  C   UNL     1       2.363  -5.042  -0.050  0.00  0.00    +0.091 C 
ATOM     17  C   UNL     1       2.485  -6.564  -0.146  0.00  0.00    +0.027 C 
ATOM     18  C   UNL     1       2.803  -5.852   1.171  0.00  0.00    +0.027 C 
ENDBRANCH   5  16
BRANCH   4  19
ATOM     19  S   UNL     1      -0.324  -6.838   0.605  0.00  0.00    -0.081 S 
BRANCH  19  20
ATOM     20  C   UNL     1      -2.111  -7.061   0.824  0.00  0.00    +0.112 C 
BRANCH  20  21
ATOM     21  C   UNL     1      -2.400  -8.501   1.158  0.00  0.00    -0.035 A 
ATOM     22  C   UNL     1      -2.639  -9.411   0.145  0.00  0.00    +0.004 A 
ATOM     23  C   UNL     1      -2.905 -10.733   0.451  0.00  0.00    +0.002 A 
ATOM     24  C   UNL     1      -2.931 -11.145   1.771  0.00  0.00    +0.028 A 
ATOM     25  C   UNL     1      -2.691 -10.235   2.783  0.00  0.00    +0.106 A 
ATOM     26  C   UNL     1      -2.421  -8.914   2.477  0.00  0.00    +0.033 A 
BRANCH  25  27
ATOM     27  S   UNL     1      -2.725 -10.760   4.465  0.00  0.00    +0.061 S 
ATOM     28  O   UNL     1      -3.008  -9.606   5.245  0.00  0.00    -0.153 OA
ATOM     29  O   UNL     1      -3.534 -11.927   4.510  0.00  0.00    -0.153 OA
BRANCH  27  30
ATOM     30  N   UNL     1      -1.188 -11.234   4.861  0.00  0.00    -0.172 NA
ATOM     31  C   UNL     1      -0.750 -12.624   4.664  0.00  0.00    +0.137 C 
ATOM     32  C   UNL     1       0.575 -12.610   3.894  0.00  0.00    +0.177 C 
ATOM     33  O   UNL     1       1.496 -11.742   4.559  0.00  0.00    -0.377 OA
ATOM     34  C   UNL     1       1.079 -10.376   4.612  0.00  0.00    +0.177 C 
ATOM     35  C   UNL     1      -0.219 -10.275   5.414  0.00  0.00    +0.137 C 
ENDBRANCH  27  30
ENDBRANCH  25  27
ENDBRANCH  20  21
ENDBRANCH  19  20
ENDBRANCH   4  19
TORSDOF 7
