REMARK  Name = ZINC12003508
REMARK  9 active torsions:
REMARK  status: ('A' for Active; 'I' for Inactive)
REMARK    1  A    between atoms: C_1  and  O_2
REMARK    2  A    between atoms: O_2  and  C_3
REMARK    3  A    between atoms: C_8  and  C_9
REMARK    4  A    between atoms: C_9  and  C_10
REMARK    5  A    between atoms: C_10  and  N_61
REMARK    6  A    between atoms: C_11  and  N_61
REMARK    7  A    between atoms: N_22  and  C_25
REMARK    8  A    between atoms: C_25  and  C_26
REMARK    9  A    between atoms: C_26  and  C_27
REMARK                            x       y       z     vdW  Elec       q    Type
REMARK                         _______ _______ _______ _____ _____    ______ ____
ROOT
ATOM      1  C   UNL     1      -0.062   1.117  -2.413  0.00  0.00    -0.067 C 
ATOM      2  C   UNL     1      -1.080   1.075  -3.557  0.00  0.00    -0.011 C 
ATOM      3  C   UNL     1      -0.469   0.371  -4.769  0.00  0.00    +0.035 C 
ATOM      4  C   UNL     1       0.866   1.032  -5.104  0.00  0.00    -0.023 A 
ATOM      5  C   UNL     1       1.506   1.792  -4.184  0.00  0.00    -0.006 A 
ATOM      6  S   UNL     1       2.987   2.347  -4.991  0.00  0.00    -0.073 S 
ATOM      7  C   UNL     1       2.747   1.560  -6.552  0.00  0.00    +0.116 A 
ATOM      8  C   UNL     1       1.514   0.888  -6.395  0.00  0.00    +0.076 A 
ATOM      9  C   UNL     1       1.034   0.137  -7.520  0.00  0.00    +0.262 A 
ATOM     10  O   UNL     1      -0.018  -0.478  -7.488  0.00  0.00    -0.267 OA
ATOM     11  N   UNL     1       1.824   0.157  -8.620  0.00  0.00    -0.298 N 
ATOM     12  C   UNL     1       2.996   0.834  -8.677  0.00  0.00    +0.203 A 
ATOM     13  N   UNL     1       3.469   1.532  -7.668  0.00  0.00    -0.230 NA
ATOM     14  C   UNL     1       1.058   2.097  -2.788  0.00  0.00    +0.027 C 
ENDROOT
BRANCH   1  15
ATOM     15  N   UNL     1      -0.732   1.579  -1.182  0.00  0.00    +0.381 N 
ATOM     16  H   UNL     1      -0.746   2.605  -1.168  0.00  0.00    -0.086 HD
ATOM     17  H   UNL     1      -1.695   1.223  -1.167  0.00  0.00    -0.086 HD
BRANCH  15  18
ATOM     18  C   UNL     1      -0.013   1.086   0.008  0.00  0.00    -0.077 C 
BRANCH  18  19
ATOM     19  C   UNL     1      -0.729   1.579   1.267  0.00  0.00    +0.020 C 
BRANCH  19  25
ATOM     20  C   UNL     1       1.087   1.785   2.984  0.00  0.00    +0.123 A 
ATOM     21  C   UNL     1       1.753   1.325   4.111  0.00  0.00    +0.046 A 
ATOM     22  C   UNL     1       1.339   0.162   4.730  0.00  0.00    +0.004 A 
ATOM     23  C   UNL     1       0.258  -0.542   4.230  0.00  0.00    +0.000 A 
ATOM     24  C   UNL     1      -0.410  -0.083   3.110  0.00  0.00    +0.007 A 
ATOM     25  C   UNL     1       0.000   1.080   2.488  0.00  0.00    -0.007 A 
BRANCH  20  27
ATOM     26  C   UNL     1       2.621   3.600   2.937  0.00  0.00    +0.277 C 
ATOM     27  O   UNL     1       1.495   2.927   2.370  0.00  0.00    -0.495 OA
ENDBRANCH  20  27
ENDBRANCH  19  25
ENDBRANCH  18  19
ENDBRANCH  15  18
ENDBRANCH   1  15
BRANCH  11  28
ATOM     28  C   UNL     1       1.391  -0.590  -9.804  0.00  0.00    +0.131 C 
BRANCH  28  29
ATOM     29  C   UNL     1       0.542   0.318 -10.697  0.00  0.00    +0.058 C 
BRANCH  29  30
ATOM     30  C   UNL     1       0.097  -0.450 -11.914  0.00  0.00    -0.027 A 
ATOM     31  C   UNL     1       0.821  -0.365 -13.089  0.00  0.00    +0.005 A 
ATOM     32  C   UNL     1       0.415  -1.072 -14.204  0.00  0.00    +0.000 A 
ATOM     33  C   UNL     1      -0.720  -1.859 -14.150  0.00  0.00    +0.001 A 
ATOM     34  C   UNL     1      -1.448  -1.941 -12.978  0.00  0.00    +0.020 A 
ATOM     35  C   UNL     1      -1.040  -1.237 -11.859  0.00  0.00    +0.044 A 
ATOM     36 CL   UNL     1      -1.954  -1.339 -10.387  0.00  0.00    -0.083 Cl
ENDBRANCH  29  30
ENDBRANCH  28  29
ENDBRANCH  11  28
TORSDOF 8
