REMARK  Name = ZINC64610728
REMARK  6 active torsions:
REMARK  status: ('A' for Active; 'I' for Inactive)
REMARK    1  A    between atoms: C_1  and  C_2
REMARK    2  A    between atoms: C_5  and  C_7
REMARK    3  A    between atoms: C_7  and  N_8
REMARK    4  A    between atoms: C_9  and  C_11
REMARK    5  A    between atoms: C_13  and  N_21
REMARK    6  A    between atoms: C_22  and  C_24
REMARK                            x       y       z     vdW  Elec       q    Type
REMARK                         _______ _______ _______ _____ _____    ______ ____
ROOT
ATOM      1  C   UNL     1       3.206  -5.023  -3.560  0.00  0.00    +0.211 C 
ATOM      2  C   UNL     1       1.981  -5.910  -3.593  0.00  0.00    +0.051 C 
ATOM      3  C   UNL     1       2.442  -7.196  -3.364  0.00  0.00    +0.018 A 
ATOM      4  C   UNL     1       1.783  -8.445  -3.277  0.00  0.00    +0.011 A 
ATOM      5  C   UNL     1       2.502  -9.569  -3.038  0.00  0.00    +0.001 A 
ATOM      6  C   UNL     1       3.889  -9.530  -2.872  0.00  0.00    +0.002 A 
ATOM      7  C   UNL     1       4.586  -8.370  -2.941  0.00  0.00    +0.026 A 
ATOM      8  C   UNL     1       3.904  -7.151  -3.189  0.00  0.00    +0.045 A 
ATOM      9  N   UNL     1       4.343  -5.912  -3.301  0.00  0.00    -0.369 N 
ATOM     10  H   UNL     1       5.269  -5.633  -3.224  0.00  0.00    +0.161 HD
ENDROOT
BRANCH   1  12
ATOM     11  N   UNL     1       2.352  -2.888  -2.648  0.00  0.00    -0.306 N 
ATOM     12  C   UNL     1       3.081  -4.005  -2.456  0.00  0.00    +0.242 C 
ATOM     13  O   UNL     1       3.636  -4.192  -1.393  0.00  0.00    -0.273 OA
ATOM     14  H   UNL     1       1.908  -2.739  -3.498  0.00  0.00    +0.149 HD
BRANCH  11  15
ATOM     15  C   UNL     1       2.230  -1.899  -1.575  0.00  0.00    +0.178 C 
BRANCH  15  20
ATOM     16  C   UNL     1       0.836   2.499  -3.613  0.00  0.00    +0.086 C 
ATOM     17  C   UNL     1       0.763   1.159  -2.928  0.00  0.00    +0.102 A 
ATOM     18  C   UNL     1      -0.358   0.562  -2.484  0.00  0.00    +0.045 A 
ATOM     19  C   UNL     1       0.033  -0.671  -1.913  0.00  0.00    +0.046 A 
ATOM     20  C   UNL     1       1.369  -0.754  -2.042  0.00  0.00    +0.122 A 
ATOM     21  O   UNL     1       1.805   0.354  -2.663  0.00  0.00    -0.463 OA
ENDBRANCH  15  20
ENDBRANCH  11  15
ENDBRANCH   1  12
BRANCH   2  22
ATOM     22  N   UNL     1       0.694  -5.524  -3.803  0.00  0.00    -0.282 N 
ATOM     23  C   UNL     1      -0.168  -6.359  -4.417  0.00  0.00    +0.248 C 
ATOM     24  O   UNL     1       0.196  -7.469  -4.752  0.00  0.00    -0.270 OA
ATOM     25  H   UNL     1       0.396  -4.648  -3.512  0.00  0.00    +0.155 HD
BRANCH  23  26
ATOM     26  C   UNL     1      -1.555  -5.925  -4.681  0.00  0.00    +0.037 A 
ATOM     27  C   UNL     1      -1.975  -4.648  -4.302  0.00  0.00    +0.014 A 
ATOM     28  C   UNL     1      -3.271  -4.249  -4.552  0.00  0.00    +0.021 A 
ATOM     29  C   UNL     1      -4.156  -5.112  -5.177  0.00  0.00    +0.041 A 
ATOM     30  C   UNL     1      -3.746  -6.380  -5.555  0.00  0.00    +0.021 A 
ATOM     31  C   UNL     1      -2.451  -6.788  -5.317  0.00  0.00    +0.014 A 
ATOM     32 CL   UNL     1      -5.786  -4.601  -5.488  0.00  0.00    -0.084 Cl
ENDBRANCH  23  26
ENDBRANCH   2  22
TORSDOF 5
