REMARK  Name = ZINC39686153
REMARK  7 active torsions:
REMARK  status: ('A' for Active; 'I' for Inactive)
REMARK    1  A    between atoms: C_1  and  C_2
REMARK    2  A    between atoms: C_2  and  C_3
REMARK    3  A    between atoms: C_2  and  C_4
REMARK    4  A    between atoms: C_4  and  C_5
REMARK    5  A    between atoms: C_10  and  N_13
REMARK    6  A    between atoms: C_14  and  C_16
REMARK    7  A    between atoms: C_27  and  C_29
REMARK                            x       y       z     vdW  Elec       q    Type
REMARK                         _______ _______ _______ _____ _____    ______ ____
ROOT
ATOM      1  C   UNL     1      -7.326  -6.568   3.530  0.00  0.00    +0.100 C 
ATOM      2  C   UNL     1      -8.345  -5.417   3.686  0.00  0.00    +0.121 C 
ATOM      3  N   UNL     1      -9.505  -5.829   2.860  0.00  0.00    -0.296 N 
ATOM      4  C   UNL     1      -9.626  -7.287   3.097  0.00  0.00    +0.115 C 
ATOM      5  C   UNL     1      -8.171  -7.794   3.147  0.00  0.00    -0.004 C 
ATOM      6  C   UNL     1      -8.028  -8.886   4.203  0.00  0.00    -0.010 C 
ATOM      7  C   UNL     1      -8.830 -10.116   3.772  0.00  0.00    -0.082 C 
ATOM      8  N   UNL     1      -8.336 -10.595   2.475  0.00  0.00    +0.379 N 
ATOM      9  C   UNL     1      -8.563  -9.574   1.445  0.00  0.00    -0.082 C 
ATOM     10  C   UNL     1      -7.749  -8.320   1.778  0.00  0.00    -0.010 C 
ATOM     11  C   UNL     1     -10.275  -5.053   2.073  0.00  0.00    +0.247 C 
ATOM     12  O   UNL     1      -9.973  -3.891   1.882  0.00  0.00    -0.270 OA
ATOM     13  H   UNL     1      -7.348 -10.788   2.543  0.00  0.00    -0.086 HD
ATOM     14  H   UNL     1      -8.825 -11.441   2.221  0.00  0.00    -0.086 HD
ENDROOT
BRANCH  11  15
ATOM     15  C   UNL     1     -11.487  -5.614   1.440  0.00  0.00    +0.038 A 
ATOM     16  C   UNL     1     -12.085  -6.762   1.966  0.00  0.00    +0.014 A 
ATOM     17  C   UNL     1     -13.215  -7.282   1.373  0.00  0.00    +0.022 A 
ATOM     18  C   UNL     1     -13.759  -6.669   0.256  0.00  0.00    +0.059 A 
ATOM     19  C   UNL     1     -13.171  -5.529  -0.271  0.00  0.00    +0.060 A 
ATOM     20  C   UNL     1     -12.043  -4.997   0.319  0.00  0.00    +0.034 A 
ATOM     21 CL   UNL     1     -13.860  -4.768  -1.671  0.00  0.00    -0.082 Cl
ATOM     22 CL   UNL     1     -15.182  -7.330  -0.486  0.00  0.00    -0.082 Cl
ENDBRANCH  11  15
BRANCH   1  24
ATOM     23  N   UNL     1      -5.124  -6.833   2.436  0.00  0.00    -0.312 N 
ATOM     24  C   UNL     1      -6.339  -6.249   2.437  0.00  0.00    +0.218 C 
ATOM     25  O   UNL     1      -6.637  -5.468   1.559  0.00  0.00    -0.275 OA
ATOM     26  H   UNL     1      -4.885  -7.458   3.138  0.00  0.00    +0.149 HD
BRANCH  23  32
ATOM     27  C   UNL     1      -1.159  -7.924  -1.053  0.00  0.00    +0.216 C 
ATOM     28  O   UNL     1      -1.454  -8.536  -2.058  0.00  0.00    -0.276 OA
ATOM     29  N   UNL     1      -2.083  -7.163  -0.432  0.00  0.00    -0.301 N 
ATOM     30  C   UNL     1      -1.739  -6.411   0.782  0.00  0.00    +0.109 C 
ATOM     31  C   UNL     1      -2.742  -6.769   1.884  0.00  0.00    +0.041 C 
ATOM     32  C   UNL     1      -4.163  -6.523   1.374  0.00  0.00    +0.076 C 
ATOM     33  C   UNL     1      -4.435  -7.419   0.164  0.00  0.00    +0.041 C 
ATOM     34  C   UNL     1      -3.450  -7.064  -0.961  0.00  0.00    +0.109 C 
BRANCH  27  35
ATOM     35  C   UNL     1       0.239  -8.014  -0.498  0.00  0.00    +0.099 C 
BRANCH  35  37
ATOM     36  C   UNL     1       2.530  -8.929  -0.895  0.00  0.00    +0.008 C 
ATOM     37  C   UNL     1       1.080  -8.935  -1.384  0.00  0.00    -0.008 C 
ATOM     38  C   UNL     1       0.524 -10.359  -1.314  0.00  0.00    +0.008 C 
ENDBRANCH  35  37
ENDBRANCH  27  35
ENDBRANCH  23  32
ENDBRANCH   1  24
TORSDOF 5
