REMARK  Name = ZINC19460358
REMARK  6 active torsions:
REMARK  status: ('A' for Active; 'I' for Inactive)
REMARK    1  A    between atoms: C_1  and  C_2
REMARK    2  A    between atoms: C_2  and  C_28
REMARK    3  A    between atoms: C_9  and  C_11
REMARK    4  A    between atoms: C_11  and  C_12
REMARK    5  A    between atoms: C_12  and  C_13
REMARK    6  A    between atoms: C_13  and  C_14
REMARK                            x       y       z     vdW  Elec       q    Type
REMARK                         _______ _______ _______ _____ _____    ______ ____
ROOT
ATOM      1  C   UNL     1      -1.879   7.282   3.247  0.00  0.00    +0.096 C 
ENDROOT
BRANCH   1   2
ATOM      2  C   UNL     1      -2.851   7.805   4.273  0.00  0.00    +0.219 C 
ATOM      3  O   UNL     1      -3.795   7.125   4.616  0.00  0.00    -0.275 OA
ATOM      4  N   UNL     1      -2.670   9.027   4.811  0.00  0.00    -0.265 N 
ATOM      5  C   UNL     1      -3.566   9.509   5.758  0.00  0.00    +0.165 A 
ATOM      6  N   UNL     1      -3.562  10.657   6.390  0.00  0.00    -0.229 NA
ATOM      7  C   UNL     1      -4.505  10.995   7.288  0.00  0.00    +0.054 A 
ATOM      8  C   UNL     1      -5.457  10.076   7.510  0.00  0.00    +0.014 A 
ATOM      9  S   UNL     1      -4.985   8.752   6.407  0.00  0.00    -0.057 S 
ATOM     10  C   UNL     1      -6.652  10.033   8.415  0.00  0.00    +0.044 C 
ATOM     11  C   UNL     1      -6.774  11.318   9.237  0.00  0.00    +0.005 C 
ATOM     12  C   UNL     1      -5.862  11.216  10.453  0.00  0.00    +0.000 C 
ATOM     13  C   UNL     1      -4.415  10.988  10.055  0.00  0.00    +0.000 C 
ATOM     14  C   UNL     1      -3.911  12.262   9.376  0.00  0.00    +0.006 C 
ATOM     15  C   UNL     1      -4.436  12.355   7.953  0.00  0.00    +0.056 C 
ATOM     16  H   UNL     1      -1.813   9.643   4.501  0.00  0.00    +0.157 HD
ENDBRANCH   1   2
BRANCH   1  17
ATOM     17  C   UNL     1      -2.311   5.883   2.802  0.00  0.00    +0.018 C 
BRANCH  17  18
ATOM     18  C   UNL     1      -1.325   5.353   1.759  0.00  0.00    +0.096 C 
BRANCH  18  27
ATOM     19  C   UNL     1      -2.063   1.890  -1.315  0.00  0.00    +0.041 C 
ATOM     20  C   UNL     1      -1.343   1.917   0.035  0.00  0.00    +0.108 C 
ATOM     21  C   UNL     1      -0.061   1.136  -0.062  0.00  0.00    +0.236 C 
ATOM     22  O   UNL     1      -0.124  -0.074  -0.119  0.00  0.00    -0.273 OA
ATOM     23  N   UNL     1       1.141   1.712  -0.092  0.00  0.00    -0.312 N 
ATOM     24  C   UNL     1       1.376   3.142   0.059  0.00  0.00    +0.123 C 
ATOM     25  C   UNL     1       0.115   3.938  -0.282  0.00  0.00    +0.127 C 
ATOM     26  N   UNL     1      -1.026   3.307   0.402  0.00  0.00    -0.286 N 
ATOM     27  C   UNL     1      -1.750   3.975   1.321  0.00  0.00    +0.216 C 
ATOM     28  O   UNL     1      -2.744   3.467   1.796  0.00  0.00    -0.276 OA
ATOM     29  C   UNL     1      -2.241   1.299   1.109  0.00  0.00    +0.041 C 
ATOM     30  H   UNL     1       1.989   1.028  -0.244  0.00  0.00    +0.149 HD
ENDBRANCH  18  27
ENDBRANCH  17  18
ENDBRANCH   1  17
TORSDOF 4
