REMARK  Name = ZINC54278070
REMARK  2 active torsions:
REMARK  status: ('A' for Active; 'I' for Inactive)
REMARK    1  A    between atoms: C_12  and  C_14
REMARK    2  A    between atoms: N_23  and  C_26
REMARK                            x       y       z     vdW  Elec       q    Type
REMARK                         _______ _______ _______ _____ _____    ______ ____
ROOT
ATOM      1  C   UNL     1       0.256   1.341  -0.357  0.00  0.00    +0.033 C 
ATOM      2  C   UNL     1       0.190   0.005  -0.246  0.00  0.00    +0.031 C 
ATOM      3  C   UNL     1      -1.106  -0.688  -0.136  0.00  0.00    +0.090 C 
ATOM      4  C   UNL     1      -1.117  -2.001   0.182  0.00  0.00    +0.249 C 
ATOM      5  O   UNL     1      -2.296  -2.651   0.321  0.00  0.00    -0.270 OA
ATOM      6  N   UNL     1       0.069  -2.682   0.366  0.00  0.00    -0.215 N 
ATOM      7  C   UNL     1       1.271  -2.025   0.340  0.00  0.00    +0.199 C 
ATOM      8  N   UNL     1       1.353  -0.783  -0.238  0.00  0.00    -0.287 N 
ATOM      9  N   UNL     1       2.328  -2.573   0.903  0.00  0.00    -0.186 NA
ATOM     10  C   UNL     1       2.234  -3.755   1.537  0.00  0.00    +0.196 C 
ATOM     11  N   UNL     1       1.175  -4.511   1.437  0.00  0.00    -0.335 N 
ATOM     12  C   UNL     1       0.065  -4.138   0.556  0.00  0.00    +0.213 C 
ATOM     13  N   UNL     1       3.289  -4.181   2.318  0.00  0.00    -0.298 N 
ATOM     14  C   UNL     1       3.644  -5.606   2.382  0.00  0.00    +0.127 C 
ATOM     15  C   UNL     1       5.122  -5.761   2.002  0.00  0.00    +0.124 C 
ATOM     16  N   UNL     1       5.911  -4.798   2.783  0.00  0.00    -0.327 N 
ATOM     17  C   UNL     1       5.556  -3.374   2.719  0.00  0.00    +0.124 C 
ATOM     18  C   UNL     1       4.082  -3.218   3.095  0.00  0.00    +0.127 C 
ATOM     19  H   UNL     1       2.182  -0.460  -0.624  0.00  0.00    +0.155 HD
ATOM     20  H   UNL     1       1.122  -5.331   1.952  0.00  0.00    +0.164 HD
ENDROOT
BRANCH  12  21
ATOM     21  C   UNL     1       0.228  -4.820  -0.777  0.00  0.00    +0.011 A 
ATOM     22  C   UNL     1       0.850  -6.057  -0.861  0.00  0.00    +0.010 A 
ATOM     23  C   UNL     1       0.979  -6.647  -2.109  0.00  0.00    +0.020 A 
ATOM     24  C   UNL     1       0.486  -5.989  -3.220  0.00  0.00    +0.111 A 
ATOM     25  N   UNL     1      -0.099  -4.813  -3.102  0.00  0.00    -0.263 NA
ATOM     26  C   UNL     1      -0.244  -4.225  -1.931  0.00  0.00    +0.118 A 
ENDBRANCH  12  21
BRANCH  16  27
ATOM     27  C   UNL     1       6.979  -5.230   3.573  0.00  0.00    +0.030 A 
ATOM     28  C   UNL     1       7.385  -6.558   3.529  0.00  0.00    +0.023 A 
ATOM     29  C   UNL     1       8.442  -6.981   4.311  0.00  0.00    +0.002 A 
ATOM     30  C   UNL     1       9.095  -6.085   5.137  0.00  0.00    +0.000 A 
ATOM     31  C   UNL     1       8.694  -4.763   5.183  0.00  0.00    +0.002 A 
ATOM     32  C   UNL     1       7.641  -4.331   4.399  0.00  0.00    +0.023 A 
ENDBRANCH  16  27
TORSDOF 2
