REMARK  Name = ZINC23684971
REMARK  6 active torsions:
REMARK  status: ('A' for Active; 'I' for Inactive)
REMARK    1  A    between atoms: C_4  and  C_7
REMARK    2  A    between atoms: C_7  and  C_9
REMARK    3  A    between atoms: C_7  and  S_24
REMARK    4  A    between atoms: N_11  and  N_12
REMARK    5  A    between atoms: C_13  and  C_15
REMARK    6  A    between atoms: S_24  and  C_25
REMARK                            x       y       z     vdW  Elec       q    Type
REMARK                         _______ _______ _______ _____ _____    ______ ____
ROOT
ATOM      1  C   UNL     1      -5.376   1.510  -0.087  0.00  0.00    +0.247 C 
ATOM      2  O   UNL     1      -5.543   0.364   0.272  0.00  0.00    -0.273 OA
ATOM      3  N   UNL     1      -6.407   2.214  -0.595  0.00  0.00    -0.233 N 
ATOM      4  H   UNL     1      -6.256   3.254  -0.921  0.00  0.00    +0.173 HD
ENDROOT
BRANCH   3   5
ATOM      5  N   UNL     1      -7.672   1.622  -0.707  0.00  0.00    -0.230 N 
ATOM      6  C   UNL     1      -8.703   2.326  -1.214  0.00  0.00    +0.260 C 
ATOM      7  O   UNL     1      -8.536   3.475  -1.575  0.00  0.00    -0.269 OA
ATOM      8  H   UNL     1      -7.824   0.583  -0.380  0.00  0.00    +0.173 HD
BRANCH   6   9
ATOM      9  C   UNL     1     -10.036   1.702  -1.332  0.00  0.00    +0.042 A 
ATOM     10  C   UNL     1     -10.229   0.380  -0.923  0.00  0.00    +0.017 A 
ATOM     11  C   UNL     1     -11.474  -0.199  -1.030  0.00  0.00    +0.050 A 
ATOM     12  C   UNL     1     -12.539   0.524  -1.552  0.00  0.00    +0.166 A 
ATOM     13  C   UNL     1     -12.351   1.843  -1.967  0.00  0.00    +0.167 A 
ATOM     14  C   UNL     1     -11.106   2.430  -1.858  0.00  0.00    +0.062 A 
ATOM     15  O   UNL     1     -13.539   2.325  -2.437  0.00  0.00    -0.453 OA
ATOM     16  C   UNL     1     -14.353   1.163  -2.685  0.00  0.00    +0.466 C 
ATOM     17  O   UNL     1     -13.842   0.183  -1.762  0.00  0.00    -0.453 OA
ENDBRANCH   6   9
ENDBRANCH   3   5
BRANCH   1  18
ATOM     18  C   UNL     1      -4.016   2.147   0.033  0.00  0.00    +0.168 C 
BRANCH  18  22
ATOM     19  C   UNL     1      -3.788   4.338   3.693  0.00  0.00    +0.000 A 
ATOM     20  C   UNL     1      -3.616   4.989   2.486  0.00  0.00    +0.000 A 
ATOM     21  C   UNL     1      -3.690   4.280   1.302  0.00  0.00    +0.005 A 
ATOM     22  C   UNL     1      -3.935   2.920   1.324  0.00  0.00    -0.025 A 
ATOM     23  C   UNL     1      -4.113   2.269   2.531  0.00  0.00    +0.005 A 
ATOM     24  C   UNL     1      -4.035   2.978   3.716  0.00  0.00    +0.000 A 
ENDBRANCH  18  22
BRANCH  18  25
ATOM     25  S   UNL     1      -2.741   0.857   0.020  0.00  0.00    -0.108 S 
BRANCH  25  26
ATOM     26  C   UNL     1      -1.225   1.755   0.017  0.00  0.00    +0.009 A 
ATOM     27  C   UNL     1      -0.013   1.076   0.008  0.00  0.00    +0.015 A 
ATOM     28  C   UNL     1       1.173   1.783   0.000  0.00  0.00    +0.001 A 
ATOM     29  C   UNL     1       1.155   3.166   0.007  0.00  0.00    +0.000 A 
ATOM     30  C   UNL     1      -0.049   3.845   0.021  0.00  0.00    +0.001 A 
ATOM     31  C   UNL     1      -1.239   3.145   0.029  0.00  0.00    +0.015 A 
ENDBRANCH  25  26
ENDBRANCH  18  25
ENDBRANCH   1  18
TORSDOF 6
