REMARK  Name = ZINC20594210
REMARK  2 active torsions:
REMARK  status: ('A' for Active; 'I' for Inactive)
REMARK    1  A    between atoms: C_6  and  C_7
REMARK    2  A    between atoms: C_15  and  C_17
REMARK                            x       y       z     vdW  Elec       q    Type
REMARK                         _______ _______ _______ _____ _____    ______ ____
ROOT
ATOM      1  C   UNL     1       2.583   1.473  -0.015  0.00  0.00    +0.004 A 
ATOM      2  C   UNL     1       3.593   2.376  -0.020  0.00  0.00    +0.056 A 
ATOM      3  S   UNL     1       2.745   3.943  -0.004  0.00  0.00    -0.078 S 
ATOM      4  C   UNL     1       1.071   3.356   0.009  0.00  0.00    +0.092 A 
ATOM      5  C   UNL     1       1.209   1.958   0.001  0.00  0.00    +0.080 A 
ATOM      6  C   UNL     1      -0.015   1.215   0.009  0.00  0.00    +0.282 A 
ATOM      7  O   UNL     1       0.002  -0.004   0.002  0.00  0.00    -0.265 OA
ATOM      8  N   UNL     1      -1.183   1.882   0.018  0.00  0.00    -0.194 NA
ATOM      9  C   UNL     1      -1.220   3.239   0.030  0.00  0.00    +0.126 A 
ATOM     10  N   UNL     1      -0.122   3.945   0.024  0.00  0.00    -0.336 N 
ATOM     11  H   UNL     1      -0.193   5.043   0.030  0.00  0.00    +0.168 HD
ENDROOT
BRANCH   1  17
ATOM     12  C   UNL     1       2.259  -0.820   0.906  0.00  0.00    +0.012 A 
ATOM     13  C   UNL     1       2.523  -2.175   0.892  0.00  0.00    +0.050 A 
ATOM     14  C   UNL     1       3.405  -2.705  -0.037  0.00  0.00    +0.166 A 
ATOM     15  C   UNL     1       4.024  -1.869  -0.966  0.00  0.00    +0.167 A 
ATOM     16  C   UNL     1       3.758  -0.512  -0.960  0.00  0.00    +0.058 A 
ATOM     17  C   UNL     1       2.871   0.018  -0.024  0.00  0.00    -0.013 A 
ATOM     18  O   UNL     1       4.836  -2.627  -1.760  0.00  0.00    -0.453 OA
ATOM     19  C   UNL     1       4.396  -3.986  -1.575  0.00  0.00    +0.466 C 
ATOM     20  O   UNL     1       3.830  -3.985  -0.251  0.00  0.00    -0.453 OA
ENDBRANCH   1  17
BRANCH   9  21
ATOM     21  C   UNL     1      -2.553   3.943   0.046  0.00  0.00    +0.182 C 
ATOM     22 CL   UNL     1      -2.290   5.727   0.053  0.00  0.00    -0.117 Cl
ENDBRANCH   9  21
TORSDOF 2
