REMARK  Name = ZINC13063958
REMARK  10 active torsions:
REMARK  status: ('A' for Active; 'I' for Inactive)
REMARK    1  A    between atoms: C_1  and  C_2
REMARK    2  A    between atoms: C_2  and  C_3
REMARK    3  A    between atoms: C_3  and  C_5
REMARK    4  A    between atoms: C_3  and  N_63
REMARK    5  A    between atoms: N_9  and  C_10
REMARK    6  A    between atoms: C_10  and  C_11
REMARK    7  A    between atoms: C_16  and  C_17
REMARK    8  A    between atoms: C_16  and  N_63
REMARK    9  A    between atoms: C_22  and  C_29
REMARK   10  A    between atoms: C_30  and  N_63
REMARK                            x       y       z     vdW  Elec       q    Type
REMARK                         _______ _______ _______ _____ _____    ______ ____
ROOT
ATOM      1  N   UNL     1      -0.376   2.777  -0.695  0.00  0.00    +0.391 N 
ATOM      2  H   UNL     1       0.544   3.105  -0.380  0.00  0.00    -0.080 HD
ENDROOT
BRANCH   1   3
ATOM      3  C   UNL     1      -0.188   1.734  -1.724  0.00  0.00    -0.067 C 
ATOM      4  C   UNL     1       0.315   0.434  -1.063  0.00  0.00    -0.015 C 
ATOM      5  C   UNL     1       1.339  -0.136  -2.077  0.00  0.00    -0.002 C 
ATOM      6  C   UNL     1       2.042   1.138  -2.607  0.00  0.00    -0.002 C 
ATOM      7  C   UNL     1       0.910   2.181  -2.706  0.00  0.00    -0.015 C 
ENDBRANCH   1   3
BRANCH   1   8
ATOM      8  C   UNL     1      -1.107   2.218   0.462  0.00  0.00    +0.003 C 
BRANCH   8   9
ATOM      9  C   UNL     1      -0.799   3.056   1.677  0.00  0.00    +0.139 A 
ATOM     10  N   UNL     1      -0.693   4.361   1.721  0.00  0.00    -0.115 NA
ATOM     11  N   UNL     1      -0.416   4.697   2.933  0.00  0.00    -0.023 NA
ATOM     12  N   UNL     1      -0.342   3.640   3.664  0.00  0.00    -0.044 NA
ATOM     13  N   UNL     1      -0.572   2.607   2.925  0.00  0.00    -0.223 N 
BRANCH  13  14
ATOM     14  C   UNL     1      -0.584   1.209   3.364  0.00  0.00    +0.221 C 
BRANCH  14  15
ATOM     15  C   UNL     1       0.799   0.628   3.225  0.00  0.00    +0.126 A 
ATOM     16  C   UNL     1       1.758   0.646   4.169  0.00  0.00    +0.046 A 
ATOM     17  C   UNL     1       2.885  -0.008   3.620  0.00  0.00    +0.041 A 
ATOM     18  C   UNL     1       2.550  -0.379   2.371  0.00  0.00    +0.195 A 
ATOM     19  O   UNL     1       1.286   0.009   2.138  0.00  0.00    -0.466 OA
ENDBRANCH  14  15
ENDBRANCH  13  14
ENDBRANCH   8   9
BRANCH   8  21
ATOM     20  C   UNL     1      -2.930   1.377  -1.025  0.00  0.00    +0.002 C 
ATOM     21  C   UNL     1      -2.615   2.236   0.201  0.00  0.00    -0.011 C 
ENDBRANCH   8  21
ENDBRANCH   1   8
BRANCH   1  22
ATOM     22  C   UNL     1      -1.125   3.918  -1.262  0.00  0.00    -0.036 C 
BRANCH  22  23
ATOM     23  C   UNL     1      -0.203   4.702  -2.160  0.00  0.00    +0.001 A 
ATOM     24  C   UNL     1      -0.231   4.499  -3.501  0.00  0.00    +0.017 A 
ATOM     25  C   UNL     1       0.673   5.281  -4.346  0.00  0.00    -0.001 A 
ATOM     26  C   UNL     1       0.687   5.119  -5.735  0.00  0.00    +0.010 A 
ATOM     27  C   UNL     1       1.547   5.859  -6.495  0.00  0.00    +0.004 A 
ATOM     28  C   UNL     1       2.408   6.772  -5.901  0.00  0.00    -0.048 A 
ATOM     29  C   UNL     1       2.411   6.949  -4.534  0.00  0.00    +0.029 A 
ATOM     30  C   UNL     1       1.544   6.205  -3.740  0.00  0.00    +0.049 A 
ATOM     31  N   UNL     1       1.528   6.361  -2.370  0.00  0.00    -0.322 N 
ATOM     32  H   UNL     1       2.129   6.999  -1.954  0.00  0.00    +0.169 HD
ATOM     33  C   UNL     1       0.690   5.642  -1.603  0.00  0.00    +0.251 A 
ATOM     34  O   UNL     1       0.703   5.806  -0.395  0.00  0.00    -0.268 OA
ATOM     35  C   UNL     1       3.348   7.579  -6.759  0.00  0.00    +0.044 C 
ENDBRANCH  22  23
ENDBRANCH   1  22
TORSDOF 8
