REMARK  Name = ZINC40147605
REMARK  6 active torsions:
REMARK  status: ('A' for Active; 'I' for Inactive)
REMARK    1  A    between atoms: C_5  and  C_7
REMARK    2  A    between atoms: C_10  and  C_12
REMARK    3  A    between atoms: N_13  and  N_14
REMARK    4  A    between atoms: C_19  and  C_22
REMARK    5  A    between atoms: C_22  and  C_23
REMARK    6  A    between atoms: C_27  and  N_29
REMARK                            x       y       z     vdW  Elec       q    Type
REMARK                         _______ _______ _______ _____ _____    ______ ____
ROOT
ATOM      1  N   UNL     1       3.673  -6.141  -2.869  0.00  0.00    -0.127 NA
ATOM      2  C   UNL     1       4.503  -5.942  -3.871  0.00  0.00    +0.183 C 
ATOM      3  N   UNL     1       5.149  -6.886  -4.642  0.00  0.00    -0.263 N 
ATOM      4  C   UNL     1       5.966  -6.558  -5.628  0.00  0.00    +0.232 C 
ATOM      5  O   UNL     1       6.531  -7.394  -6.302  0.00  0.00    -0.274 OA
ATOM      6  C   UNL     1       6.153  -5.068  -5.865  0.00  0.00    +0.144 C 
ATOM      7  S   UNL     1       5.052  -4.387  -4.557  0.00  0.00    -0.075 S 
ATOM      8  H   UNL     1       4.999  -7.825  -4.453  0.00  0.00    +0.157 HD
ENDROOT
BRANCH   1  10
ATOM      9  C   UNL     1       2.323  -5.332  -1.258  0.00  0.00    +0.181 C 
ATOM     10  N   UNL     1       3.149  -5.134  -2.255  0.00  0.00    -0.152 NA
BRANCH   9  14
ATOM     11  C   UNL     1       1.251  -2.158  -0.022  0.00  0.00    +0.138 A 
ATOM     12  C   UNL     1       0.557  -2.972   0.826  0.00  0.00    +0.050 A 
ATOM     13  C   UNL     1       0.867  -4.292   0.476  0.00  0.00    +0.051 A 
ATOM     14  C   UNL     1       1.748  -4.226  -0.585  0.00  0.00    +0.148 A 
ATOM     15  O   UNL     1       1.961  -2.925  -0.872  0.00  0.00    -0.454 OA
BRANCH  11  20
ATOM     16  C   UNL     1      -0.017   1.375   0.010  0.00  0.00    +0.001 A 
ATOM     17  C   UNL     1       1.170   2.087   0.002  0.00  0.00    +0.003 A 
ATOM     18  C   UNL     1       2.384   1.424  -0.013  0.00  0.00    +0.039 A 
ATOM     19  C   UNL     1       2.419   0.043  -0.021  0.00  0.00    +0.134 A 
ATOM     20  C   UNL     1       1.223  -0.683  -0.013  0.00  0.00    +0.052 A 
ATOM     21  C   UNL     1       0.002  -0.004   0.002  0.00  0.00    +0.014 A 
ATOM     22  F   UNL     1       3.604  -0.605  -0.036  0.00  0.00    -0.205 F 
ENDBRANCH  11  20
ENDBRANCH   9  14
ENDBRANCH   1  10
BRANCH   6  23
ATOM     23  C   UNL     1       5.668  -4.663  -7.259  0.00  0.00    +0.059 C 
BRANCH  23  24
ATOM     24  C   UNL     1       5.982  -3.209  -7.498  0.00  0.00    -0.044 A 
ATOM     25  C   UNL     1       5.066  -2.236  -7.143  0.00  0.00    +0.004 A 
ATOM     26  C   UNL     1       5.355  -0.902  -7.362  0.00  0.00    +0.002 A 
ATOM     27  C   UNL     1       6.560  -0.541  -7.935  0.00  0.00    +0.033 A 
ATOM     28  C   UNL     1       7.476  -1.514  -8.289  0.00  0.00    +0.126 A 
ATOM     29  C   UNL     1       7.189  -2.848  -8.066  0.00  0.00    +0.036 A 
BRANCH  28  30
ATOM     30  N   UNL     1       8.766  -1.127  -8.903  0.00  0.00    +0.056 N 
ATOM     31  O   UNL     1       9.018   0.040  -9.095  0.00  0.00    -0.126 OA
ATOM     32  O   UNL     1       9.568  -1.977  -9.212  0.00  0.00    -0.126 OA
ENDBRANCH  28  30
ENDBRANCH  23  24
ENDBRANCH   6  23
TORSDOF 6
