REMARK  Name = ZINC16855263
REMARK  2 active torsions:
REMARK  status: ('A' for Active; 'I' for Inactive)
REMARK    1  A    between atoms: C_4  and  N_8
REMARK    2  A    between atoms: C_5  and  N_7
REMARK                            x       y       z     vdW  Elec       q    Type
REMARK                         _______ _______ _______ _____ _____    ______ ____
ROOT
ATOM      1  N   UNL     1       2.348   0.994  -0.020  0.00  0.00    -0.284 N 
ATOM      2  C   UNL     1       1.159   1.670   0.059  0.00  0.00    +0.200 A 
ATOM      3  N   UNL     1       0.010   0.981   0.295  0.00  0.00    -0.295 N 
ATOM      4  H   UNL     1       0.033   0.018   0.410  0.00  0.00    +0.172 HD
ATOM      5  C   UNL     1      -1.161   1.645   0.363  0.00  0.00    +0.256 A 
ATOM      6  O   UNL     1      -2.202   1.044   0.570  0.00  0.00    -0.267 OA
ATOM      7  C   UNL     1      -1.166   3.047   0.196  0.00  0.00    +0.038 A 
ATOM      8  C   UNL     1       0.011   3.685  -0.029  0.00  0.00    +0.053 A 
ATOM      9  N   UNL     1       1.145   2.977  -0.094  0.00  0.00    -0.220 NA
ATOM     10  C   UNL     1       0.106   5.178  -0.202  0.00  0.00    +0.056 C 
ATOM     11  C   UNL     1      -1.262   5.768  -0.538  0.00  0.00    +0.006 C 
ATOM     12  C   UNL     1      -2.276   5.259   0.494  0.00  0.00    +0.005 C 
ATOM     13  C   UNL     1      -2.487   3.764   0.263  0.00  0.00    +0.042 C 
ATOM     14  H   UNL     1       2.357   0.025   0.003  0.00  0.00    +0.155 HD
ENDROOT
BRANCH   1  18
ATOM     15  C   UNL     1       5.930   3.107  -0.358  0.00  0.00    +0.002 A 
ATOM     16  C   UNL     1       4.874   3.643   0.357  0.00  0.00    +0.002 A 
ATOM     17  C   UNL     1       3.685   2.947   0.466  0.00  0.00    +0.025 A 
ATOM     18  C   UNL     1       3.551   1.703  -0.133  0.00  0.00    +0.054 A 
ATOM     19  C   UNL     1       4.616   1.163  -0.855  0.00  0.00    +0.046 A 
ATOM     20  C   UNL     1       5.804   1.871  -0.963  0.00  0.00    +0.024 A 
BRANCH  19  21
ATOM     21  N   UNL     1       4.486  -0.088  -1.467  0.00  0.00    -0.357 N 
ATOM     22  H   UNL     1       3.654  -0.581  -1.390  0.00  0.00    +0.142 HD
ATOM     23  H   UNL     1       5.227  -0.462  -1.968  0.00  0.00    +0.142 HD
ENDBRANCH  19  21
ENDBRANCH   1  18
TORSDOF 2
