REMARK  Name = ZINC43746595
REMARK  11 active torsions:
REMARK  status: ('A' for Active; 'I' for Inactive)
REMARK    1  A    between atoms: C_1  and  C_2
REMARK    2  A    between atoms: C_2  and  C_3
REMARK    3  A    between atoms: C_3  and  C_5
REMARK    4  A    between atoms: C_3  and  N_6
REMARK    5  A    between atoms: C_7  and  C_9
REMARK    6  A    between atoms: C_9  and  C_11
REMARK    7  A    between atoms: C_9  and  N_15
REMARK    8  A    between atoms: C_11  and  C_12
REMARK    9  A    between atoms: C_12  and  C_13
REMARK   10  A    between atoms: C_12  and  C_14
REMARK   11  A    between atoms: C_16  and  C_18
REMARK                            x       y       z     vdW  Elec       q    Type
REMARK                         _______ _______ _______ _____ _____    ______ ____
ROOT
ATOM      1  C   UNL     1       6.576   0.060   5.303  0.00  0.00    +0.167 C 
ATOM      2  C   UNL     1       7.939  -0.644   5.245  0.00  0.00    +0.069 C 
ATOM      3  C   UNL     1       8.668  -0.477   6.554  0.00  0.00    -0.015 A 
ATOM      4  C   UNL     1       9.814  -1.236   7.024  0.00  0.00    +0.003 A 
ATOM      5  C   UNL     1      10.542  -2.289   6.464  0.00  0.00    +0.010 A 
ATOM      6  C   UNL     1      11.592  -2.778   7.202  0.00  0.00    +0.001 A 
ATOM      7  C   UNL     1      11.923  -2.261   8.444  0.00  0.00    +0.002 A 
ATOM      8  C   UNL     1      11.218  -1.219   9.022  0.00  0.00    +0.026 A 
ATOM      9  C   UNL     1      10.146  -0.704   8.296  0.00  0.00    +0.047 A 
ATOM     10  N   UNL     1       9.257   0.297   8.562  0.00  0.00    -0.356 N 
ATOM     11  H   UNL     1       9.252   0.840   9.366  0.00  0.00    +0.166 HD
ATOM     12  C   UNL     1       8.374   0.419   7.523  0.00  0.00    +0.046 A 
ATOM     13  C   UNL     1       7.213   1.378   7.431  0.00  0.00    +0.155 C 
ATOM     14  N   UNL     1       6.752   1.325   6.023  0.00  0.00    -0.273 N 
ATOM     15  C   UNL     1       6.587   2.580   5.584  0.00  0.00    +0.248 C 
ATOM     16  O   UNL     1       6.008   2.895   4.563  0.00  0.00    -0.270 OA
ATOM     17  C   UNL     1       7.212   3.516   6.526  0.00  0.00    +0.042 A 
ATOM     18  C   UNL     1       7.615   2.790   7.691  0.00  0.00    -0.009 A 
ATOM     19  C   UNL     1       8.239   3.391   8.761  0.00  0.00    +0.006 A 
ATOM     20  C   UNL     1       8.454   4.763   8.679  0.00  0.00    +0.000 A 
ATOM     21  C   UNL     1       8.059   5.498   7.579  0.00  0.00    +0.001 A 
ATOM     22  C   UNL     1       7.420   4.894   6.440  0.00  0.00    +0.013 A 
ENDROOT
BRANCH   1  24
ATOM     23  N   UNL     1       5.025  -0.347   3.420  0.00  0.00    -0.302 N 
ATOM     24  C   UNL     1       6.083   0.333   3.906  0.00  0.00    +0.235 C 
ATOM     25  O   UNL     1       6.637   1.164   3.219  0.00  0.00    -0.274 OA
ATOM     26  H   UNL     1       4.535  -0.956   3.994  0.00  0.00    +0.150 HD
BRANCH  23  27
ATOM     27  C   UNL     1       4.616  -0.166   2.025  0.00  0.00    +0.159 C 
BRANCH  27  29
ATOM     28  N   UNL     1       2.498  -0.229   0.748  0.00  0.00    -0.311 N 
ATOM     29  C   UNL     1       3.169  -0.556   1.871  0.00  0.00    +0.234 C 
ATOM     30  O   UNL     1       2.608  -1.166   2.756  0.00  0.00    -0.274 OA
ATOM     31  H   UNL     1       2.934   0.297   0.059  0.00  0.00    +0.149 HD
BRANCH  28  32
ATOM     32  C   UNL     1       1.112  -0.665   0.570  0.00  0.00    +0.070 C 
ATOM     33  C   UNL     1       1.094  -2.082  -0.009  0.00  0.00    +0.028 C 
BRANCH  32  35
ATOM     34  C   UNL     1       0.304   1.677   0.244  0.00  0.00    +0.005 C 
ATOM     35  C   UNL     1       0.396   0.287  -0.390  0.00  0.00    +0.018 C 
ENDBRANCH  32  35
ENDBRANCH  28  32
ENDBRANCH  27  29
BRANCH  27  36
ATOM     36  C   UNL     1       5.482  -1.046   1.121  0.00  0.00    +0.034 C 
BRANCH  36  37
ATOM     37  C   UNL     1       5.064  -0.846  -0.337  0.00  0.00    -0.015 C 
ATOM     38  C   UNL     1       5.395   0.583  -0.771  0.00  0.00    +0.007 C 
ATOM     39  C   UNL     1       5.821  -1.837  -1.225  0.00  0.00    +0.007 C 
ENDBRANCH  36  37
ENDBRANCH  27  36
ENDBRANCH  23  27
ENDBRANCH   1  24
TORSDOF 7
