REMARK  Name = ZINC34747469
REMARK  8 active torsions:
REMARK  status: ('A' for Active; 'I' for Inactive)
REMARK    1  A    between atoms: C_1  and  C_2
REMARK    2  A    between atoms: C_2  and  N_3
REMARK    3  A    between atoms: N_3  and  C_4
REMARK    4  A    between atoms: C_4  and  C_5
REMARK    5  A    between atoms: C_6  and  C_8
REMARK    6  A    between atoms: C_8  and  N_9
REMARK    7  A    between atoms: N_28  and  C_29
REMARK    8  A    between atoms: C_29  and  C_30
REMARK                            x       y       z     vdW  Elec       q    Type
REMARK                         _______ _______ _______ _____ _____    ______ ____
ROOT
ATOM      1  N   UNL     1       4.733  -1.160   0.682  0.00  0.00    +0.387 N 
ATOM      2  C   UNL     1       6.066  -1.417   0.122  0.00  0.00    -0.059 C 
ATOM      3  C   UNL     1       6.994  -1.929   1.228  0.00  0.00    +0.089 C 
ATOM      4  N   UNL     1       6.977  -0.961   2.336  0.00  0.00    -0.304 N 
ATOM      5  C   UNL     1       5.671  -0.522   2.853  0.00  0.00    +0.089 C 
ATOM      6  C   UNL     1       4.806  -0.076   1.669  0.00  0.00    -0.059 C 
ATOM      7  C   UNL     1       8.146  -0.482   2.873  0.00  0.00    +0.202 A 
ATOM      8  N   UNL     1       8.697   0.601   2.366  0.00  0.00    -0.208 NA
ATOM      9  C   UNL     1       9.828   1.086   2.865  0.00  0.00    +0.117 A 
ATOM     10  C   UNL     1      10.488   0.479   3.947  0.00  0.00    +0.076 A 
ATOM     11  C   UNL     1      11.724   1.128   4.388  0.00  0.00    -0.023 A 
ATOM     12  C   UNL     1      12.106   2.235   3.719  0.00  0.00    -0.004 A 
ATOM     13  S   UNL     1      10.861   2.477   2.481  0.00  0.00    -0.073 S 
ATOM     14  C   UNL     1      13.321   3.075   3.972  0.00  0.00    +0.043 C 
ATOM     15  C   UNL     1      13.886   2.705   5.351  0.00  0.00    +0.005 C 
ATOM     16  C   UNL     1      13.966   1.180   5.457  0.00  0.00    +0.005 C 
ATOM     17  C   UNL     1      12.558   0.592   5.548  0.00  0.00    +0.037 C 
ATOM     18  C   UNL     1       9.865  -0.695   4.478  0.00  0.00    +0.264 A 
ATOM     19  O   UNL     1      10.365  -1.289   5.418  0.00  0.00    -0.267 OA
ATOM     20  N   UNL     1       8.717  -1.131   3.928  0.00  0.00    -0.271 N 
ATOM     21  H   UNL     1       4.392  -1.998   1.129  0.00  0.00    -0.081 HD
ENDROOT
BRANCH   1  22
ATOM     22  C   UNL     1       3.816  -0.775  -0.399  0.00  0.00    +0.019 C 
BRANCH  22  24
ATOM     23  N   UNL     1       2.842  -1.808  -2.424  0.00  0.00    -0.304 N 
ATOM     24  C   UNL     1       3.644  -1.933  -1.349  0.00  0.00    +0.199 C 
ATOM     25  O   UNL     1       4.229  -2.976  -1.145  0.00  0.00    -0.278 OA
BRANCH  23  27
ATOM     26  C   UNL     1       3.734  -2.851  -4.449  0.00  0.00    +0.024 C 
ATOM     27  C   UNL     1       2.675  -2.934  -3.348  0.00  0.00    +0.104 C 
ENDBRANCH  23  27
BRANCH  23  28
ATOM     28  C   UNL     1       2.135  -0.549  -2.670  0.00  0.00    +0.104 C 
ATOM     29  C   UNL     1       0.772  -0.584  -1.976  0.00  0.00    +0.024 C 
ENDBRANCH  23  28
ENDBRANCH  22  24
ENDBRANCH   1  22
BRANCH  20  30
ATOM     30  C   UNL     1       8.071  -2.329   4.469  0.00  0.00    +0.224 C 
BRANCH  30  31
ATOM     31  C   UNL     1       8.657  -3.554   3.816  0.00  0.00    +0.236 C 
ATOM     32  O   UNL     1       9.529  -3.438   2.981  0.00  0.00    -0.274 OA
ATOM     33  N   UNL     1       8.213  -4.779   4.160  0.00  0.00    -0.300 N 
ATOM     34  C   UNL     1       7.153  -4.936   5.166  0.00  0.00    +0.108 C 
ATOM     35  C   UNL     1       6.029  -5.787   4.569  0.00  0.00    +0.019 C 
ATOM     36  C   UNL     1       6.610  -7.107   4.057  0.00  0.00    +0.003 C 
ATOM     37  C   UNL     1       7.636  -6.823   2.958  0.00  0.00    +0.019 C 
ATOM     38  C   UNL     1       8.775  -5.983   3.533  0.00  0.00    +0.108 C 
ENDBRANCH  30  31
ENDBRANCH  20  30
TORSDOF 6
