REMARK  Name = ZINC11664571
REMARK  7 active torsions:
REMARK  status: ('A' for Active; 'I' for Inactive)
REMARK    1  A    between atoms: C_1  and  C_2
REMARK    2  A    between atoms: C_7  and  N_8
REMARK    3  A    between atoms: C_10  and  C_13
REMARK    4  A    between atoms: C_13  and  N_49
REMARK    5  A    between atoms: C_14  and  C_15
REMARK    6  A    between atoms: C_14  and  N_49
REMARK    7  A    between atoms: C_20  and  C_21
REMARK                            x       y       z     vdW  Elec       q    Type
REMARK                         _______ _______ _______ _____ _____    ______ ____
ROOT
ATOM      1  C   UNL     1      -0.072   7.750  -2.398  0.00  0.00    -0.043 C 
ENDROOT
BRANCH   1   2
ATOM      2  C   UNL     1      -0.696   8.202  -3.694  0.00  0.00    -0.019 A 
ATOM      3  C   UNL     1      -1.997   8.079  -4.036  0.00  0.00    +0.107 A 
ATOM      4  N   UNL     1      -2.155   8.603  -5.270  0.00  0.00    -0.284 N 
ATOM      5  H   UNL     1      -3.012   8.651  -5.782  0.00  0.00    +0.188 HD
ATOM      6  N   UNL     1      -0.908   9.068  -5.709  0.00  0.00    -0.174 NA
ATOM      7  C   UNL     1      -0.027   8.834  -4.760  0.00  0.00    +0.094 A 
BRANCH   7   8
ATOM      8  C   UNL     1       1.417   9.172  -4.807  0.00  0.00    +0.006 A 
ATOM      9  C   UNL     1       2.043   9.716  -3.687  0.00  0.00    +0.014 A 
ATOM     10  C   UNL     1       3.386  10.031  -3.731  0.00  0.00    +0.050 A 
ATOM     11  C   UNL     1       4.117   9.808  -4.888  0.00  0.00    +0.166 A 
ATOM     12  C   UNL     1       3.495   9.265  -6.011  0.00  0.00    +0.167 A 
ATOM     13  C   UNL     1       2.151   8.942  -5.969  0.00  0.00    +0.059 A 
ATOM     14  O   UNL     1       4.421   9.146  -7.008  0.00  0.00    -0.453 OA
ATOM     15  C   UNL     1       5.702   9.240  -6.355  0.00  0.00    +0.466 C 
ATOM     16  O   UNL     1       5.431  10.030  -5.183  0.00  0.00    -0.453 OA
ENDBRANCH   7   8
ENDBRANCH   1   2
BRANCH   1  17
ATOM     17  N   UNL     1       0.721   6.530  -2.643  0.00  0.00    +0.385 N 
ATOM     18  H   UNL     1       0.093   5.771  -2.932  0.00  0.00    -0.085 HD
ATOM     19  H   UNL     1       1.402   6.714  -3.390  0.00  0.00    -0.085 HD
BRANCH  17  20
ATOM     20  C   UNL     1       1.438   6.131  -1.418  0.00  0.00    -0.043 C 
BRANCH  20  23
ATOM     21  N   UNL     1       2.820   2.789  -1.901  0.00  0.00    -0.239 N 
ATOM     22  C   UNL     1       1.805   3.611  -1.552  0.00  0.00    +0.116 A 
ATOM     23  C   UNL     1       2.238   4.885  -1.698  0.00  0.00    -0.027 A 
ATOM     24  C   UNL     1       3.558   4.841  -2.159  0.00  0.00    +0.136 A 
ATOM     25  N   UNL     1       3.908   3.586  -2.282  0.00  0.00    -0.175 NA
BRANCH  21  32
ATOM     26  C   UNL     1       5.005   1.401  -0.717  0.00  0.00    +0.046 C 
ATOM     27  C   UNL     1       3.834   0.672  -1.324  0.00  0.00    -0.025 A 
ATOM     28  C   UNL     1       3.799  -0.709  -1.316  0.00  0.00    +0.005 A 
ATOM     29  C   UNL     1       2.725  -1.378  -1.871  0.00  0.00    +0.000 A 
ATOM     30  C   UNL     1       1.681  -0.668  -2.436  0.00  0.00    +0.002 A 
ATOM     31  C   UNL     1       1.710   0.713  -2.448  0.00  0.00    +0.028 A 
ATOM     32  C   UNL     1       2.788   1.388  -1.891  0.00  0.00    +0.068 A 
ENDBRANCH  21  32
ENDBRANCH  20  23
ENDBRANCH  17  20
ENDBRANCH   1  17
TORSDOF 6
