REMARK  Name = ZINC12384274
REMARK  16 active torsions:
REMARK  status: ('A' for Active; 'I' for Inactive)
REMARK    1  A    between atoms: C_1  and  C_2
REMARK    2  A    between atoms: C_2  and  O_33
REMARK    3  A    between atoms: C_6  and  C_26
REMARK    4  A    between atoms: C_8  and  C_19
REMARK    5  A    between atoms: C_10  and  C_12
REMARK    6  A    between atoms: C_12  and  O_14
REMARK    7  A    between atoms: O_14  and  C_15
REMARK    8  A    between atoms: C_15  and  C_16
REMARK    9  A    between atoms: C_15  and  C_17
REMARK   10  A    between atoms: C_15  and  C_18
REMARK   11  A    between atoms: C_23  and  N_25
REMARK   12  A    between atoms: C_26  and  O_28
REMARK   13  A    between atoms: O_28  and  C_29
REMARK   14  A    between atoms: C_29  and  C_30
REMARK   15  A    between atoms: C_29  and  C_31
REMARK   16  A    between atoms: C_29  and  C_32
REMARK                            x       y       z     vdW  Elec       q    Type
REMARK                         _______ _______ _______ _____ _____    ______ ____
ROOT
ATOM      1  C   UNL     1       2.248   0.880   5.971  0.00  0.00    +0.042 C 
ATOM      2  C   UNL     1       1.155   0.006   5.354  0.00  0.00    +0.083 C 
ATOM      3  C   UNL     1       0.553   0.722   4.139  0.00  0.00    +0.110 C 
ATOM      4  C   UNL     1      -0.152   1.971   4.619  0.00  0.00    +0.150 C 
ATOM      5  O   UNL     1       0.077   3.044   4.114  0.00  0.00    -0.296 OA
ATOM      6  C   UNL     1      -1.152   1.842   5.746  0.00  0.00    +0.172 C 
ATOM      7  C   UNL     1      -0.489   1.086   6.902  0.00  0.00    +0.056 C 
ATOM      8  C   UNL     1       0.058  -0.247   6.389  0.00  0.00    +0.138 C 
ENDROOT
BRANCH   7   9
ATOM      9  C   UNL     1      -1.506   0.829   7.984  0.00  0.00    -0.040 A 
ATOM     10  C   UNL     1      -2.247  -0.339   7.972  0.00  0.00    +0.004 A 
ATOM     11  C   UNL     1      -3.177  -0.581   8.966  0.00  0.00    +0.002 A 
ATOM     12  C   UNL     1      -3.377   0.349   9.969  0.00  0.00    +0.023 A 
ATOM     13  C   UNL     1      -2.638   1.525   9.980  0.00  0.00    +0.025 A 
ATOM     14  C   UNL     1      -1.701   1.762   8.983  0.00  0.00    +0.026 A 
BRANCH  13  15
ATOM     15  N   UNL     1      -2.838   2.467  10.992  0.00  0.00    -0.358 N 
ATOM     16  H   UNL     1      -2.321   3.288  10.999  0.00  0.00    +0.142 HD
ATOM     17  H   UNL     1      -3.493   2.300  11.688  0.00  0.00    +0.142 HD
ENDBRANCH  13  15
ENDBRANCH   7   9
BRANCH   8  18
ATOM     18  C   UNL     1       0.630  -1.031   7.543  0.00  0.00    +0.314 C 
ATOM     19  O   UNL     1       0.602  -0.570   8.659  0.00  0.00    -0.250 OA
BRANCH  18  20
ATOM     20  O   UNL     1       1.170  -2.241   7.329  0.00  0.00    -0.459 OA
BRANCH  20  21
ATOM     21  C   UNL     1       1.701  -2.939   8.487  0.00  0.00    +0.105 C 
ATOM     22  C   UNL     1       0.582  -3.162   9.506  0.00  0.00    +0.055 C 
ATOM     23  C   UNL     1       2.811  -2.100   9.123  0.00  0.00    +0.055 C 
ATOM     24  C   UNL     1       2.270  -4.291   8.050  0.00  0.00    +0.055 C 
ENDBRANCH  20  21
ENDBRANCH  18  20
ENDBRANCH   8  18
BRANCH   6  25
ATOM     25  C   UNL     1      -2.359   1.077   5.267  0.00  0.00    +0.319 C 
ATOM     26  O   UNL     1      -2.254   0.294   4.353  0.00  0.00    -0.250 OA
BRANCH  25  27
ATOM     27  O   UNL     1      -3.551   1.266   5.856  0.00  0.00    -0.458 OA
BRANCH  27  28
ATOM     28  C   UNL     1      -4.669   0.495   5.342  0.00  0.00    +0.105 C 
ATOM     29  C   UNL     1      -4.370  -0.998   5.490  0.00  0.00    +0.055 C 
ATOM     30  C   UNL     1      -5.933   0.843   6.132  0.00  0.00    +0.055 C 
ATOM     31  C   UNL     1      -4.883   0.829   3.865  0.00  0.00    +0.055 C 
ENDBRANCH  27  28
ENDBRANCH  25  27
ENDBRANCH   6  25
BRANCH   2  32
ATOM     32  O   UNL     1       1.718  -1.241   4.941  0.00  0.00    -0.388 OA
ATOM     33  H   UNL     1       2.422  -1.156   4.283  0.00  0.00    +0.210 HD
ENDBRANCH   2  32
TORSDOF 9
