REMARK  Name = ZINC00959876
REMARK  8 active torsions:
REMARK  status: ('A' for Active; 'I' for Inactive)
REMARK    1  A    between atoms: C_1  and  C_2
REMARK    2  A    between atoms: C_3  and  C_26
REMARK    3  A    between atoms: C_4  and  C_17
REMARK    4  A    between atoms: N_8  and  C_15
REMARK    5  A    between atoms: N_11  and  C_14
REMARK    6  A    between atoms: C_26  and  O_28
REMARK    7  A    between atoms: O_28  and  C_29
REMARK    8  A    between atoms: C_29  and  C_30
REMARK                            x       y       z     vdW  Elec       q    Type
REMARK                         _______ _______ _______ _____ _____    ______ ____
ROOT
ATOM      1  C   UNL     1      -1.471   5.023  -2.459  0.00  0.00    +0.061 C 
ATOM      2  C   UNL     1      -0.813   4.553  -1.187  0.00  0.00    +0.017 C 
ATOM      3  C   UNL     1       0.445   4.083  -1.226  0.00  0.00    +0.065 C 
ATOM      4  C   UNL     1       1.143   3.595   0.010  0.00  0.00    +0.096 C 
ATOM      5  C   UNL     1       0.437   4.071   1.248  0.00  0.00    +0.067 A 
ATOM      6  C   UNL     1      -0.838   4.547   1.191  0.00  0.00    +0.116 A 
ATOM      7  N   UNL     1      -1.456   4.970   2.344  0.00  0.00    -0.284 N 
ATOM      8  C   UNL     1      -0.807   4.917   3.522  0.00  0.00    +0.333 A 
ATOM      9  O   UNL     1      -1.368   5.295   4.532  0.00  0.00    -0.246 OA
ATOM     10  N   UNL     1       0.453   4.453   3.597  0.00  0.00    -0.264 N 
ATOM     11  C   UNL     1       1.094   4.027   2.491  0.00  0.00    +0.262 A 
ATOM     12  O   UNL     1       2.236   3.607   2.567  0.00  0.00    -0.267 OA
ATOM     13  C   UNL     1       1.135   4.411   4.893  0.00  0.00    +0.157 C 
ATOM     14  C   UNL     1      -2.829   5.479   2.290  0.00  0.00    +0.155 C 
ATOM     15  N   UNL     1      -1.505   4.612  -0.009  0.00  0.00    -0.303 N 
ATOM     16  H   UNL     1      -2.471   4.700  -0.020  0.00  0.00    +0.153 HD
ENDROOT
BRANCH   4  17
ATOM     17  C   UNL     1       1.169   2.089   0.002  0.00  0.00    -0.031 A 
ATOM     18  C   UNL     1      -0.017   1.378   0.010  0.00  0.00    +0.008 A 
ATOM     19  C   UNL     1       0.002  -0.004   0.002  0.00  0.00    +0.050 A 
ATOM     20  C   UNL     1       1.211  -0.681  -0.013  0.00  0.00    +0.166 A 
ATOM     21  C   UNL     1       2.405   0.035  -0.021  0.00  0.00    +0.167 A 
ATOM     22  C   UNL     1       2.379   1.420  -0.012  0.00  0.00    +0.054 A 
ATOM     23  O   UNL     1       3.444  -0.851  -0.036  0.00  0.00    -0.453 OA
ATOM     24  C   UNL     1       2.873  -2.106  -0.450  0.00  0.00    +0.466 C 
ATOM     25  O   UNL     1       1.501  -2.015  -0.024  0.00  0.00    -0.453 OA
ENDBRANCH   4  17
BRANCH   3  26
ATOM     26  C   UNL     1       1.128   4.048  -2.463  0.00  0.00    +0.338 C 
ATOM     27  O   UNL     1       0.577   4.439  -3.475  0.00  0.00    -0.245 OA
BRANCH  26  28
ATOM     28  O   UNL     1       2.393   3.579  -2.523  0.00  0.00    -0.457 OA
BRANCH  28  29
ATOM     29  C   UNL     1       3.022   3.572  -3.805  0.00  0.00    +0.268 C 
BRANCH  29  30
ATOM     30  C   UNL     1       4.419   3.020  -3.676  0.00  0.00    -0.010 A 
ATOM     31  C   UNL     1       5.478   3.871  -3.423  0.00  0.00    +0.007 A 
ATOM     32  C   UNL     1       6.758   3.364  -3.299  0.00  0.00    +0.000 A 
ATOM     33  C   UNL     1       6.980   2.007  -3.440  0.00  0.00    +0.000 A 
ATOM     34  C   UNL     1       5.921   1.156  -3.698  0.00  0.00    +0.000 A 
ATOM     35  C   UNL     1       4.641   1.663  -3.816  0.00  0.00    +0.007 A 
ENDBRANCH  29  30
ENDBRANCH  28  29
ENDBRANCH  26  28
ENDBRANCH   3  26
TORSDOF 5
