REMARK  Name = ZINC11066930
REMARK  8 active torsions:
REMARK  status: ('A' for Active; 'I' for Inactive)
REMARK    1  A    between atoms: C_1  and  C_2
REMARK    2  A    between atoms: C_8  and  C_10
REMARK    3  A    between atoms: C_10  and  C_12
REMARK    4  A    between atoms: C_10  and  S_13
REMARK    5  A    between atoms: S_13  and  C_14
REMARK    6  A    between atoms: C_22  and  C_26
REMARK    7  A    between atoms: N_29  and  C_30
REMARK    8  A    between atoms: C_30  and  C_31
REMARK                            x       y       z     vdW  Elec       q    Type
REMARK                         _______ _______ _______ _____ _____    ______ ____
ROOT
ATOM      1  C   UNL     1       1.143  -0.663  -0.011  0.00  0.00    +0.174 A 
ATOM      2  N   UNL     1       0.002  -0.004   0.002  0.00  0.00    -0.216 NA
ATOM      3  C   UNL     1      -0.016   1.324   0.009  0.00  0.00    +0.117 A 
ATOM      4  C   UNL     1       1.163   2.087   0.002  0.00  0.00    +0.076 A 
ATOM      5  C   UNL     1       0.984   3.540   0.009  0.00  0.00    -0.023 A 
ATOM      6  C   UNL     1      -0.283   4.000   0.024  0.00  0.00    -0.004 A 
ATOM      7  S   UNL     1      -1.300   2.549   0.035  0.00  0.00    -0.073 S 
ATOM      8  C   UNL     1      -0.730   5.431   0.033  0.00  0.00    +0.046 C 
ATOM      9  C   UNL     1       0.465   6.314  -0.353  0.00  0.00    -0.009 C 
ATOM     10  C   UNL     1       1.682   5.880   0.470  0.00  0.00    +0.008 C 
ATOM     11  C   UNL     1       2.164   4.508   0.000  0.00  0.00    +0.037 C 
ATOM     12  C   UNL     1       0.139   7.778  -0.054  0.00  0.00    +0.008 C 
ATOM     13  C   UNL     1       2.387   1.345  -0.011  0.00  0.00    +0.264 A 
ATOM     14  O   UNL     1       3.460   1.923  -0.017  0.00  0.00    -0.267 OA
ATOM     15  N   UNL     1       2.336   0.000  -0.018  0.00  0.00    -0.280 N 
ENDROOT
BRANCH   1  16
ATOM     16  S   UNL     1       1.129  -2.425  -0.021  0.00  0.00    -0.075 S 
BRANCH  16  17
ATOM     17  C   UNL     1      -0.656  -2.725  -0.007  0.00  0.00    +0.137 C 
ATOM     18  C   UNL     1      -1.249  -2.215   1.308  0.00  0.00    +0.029 C 
BRANCH  17  26
ATOM     19  C   UNL     1      -1.686  -9.607  -0.526  0.00  0.00    +0.089 C 
ATOM     20  C   UNL     1      -2.147  -8.183  -0.709  0.00  0.00    +0.136 A 
ATOM     21  C   UNL     1      -1.455  -7.064  -0.399  0.00  0.00    +0.091 A 
ATOM     22  C   UNL     1      -2.331  -6.007  -0.764  0.00  0.00    +0.168 A 
ATOM     23  N   UNL     1      -3.413  -6.575  -1.230  0.00  0.00    -0.063 NA
ATOM     24  O   UNL     1      -3.323  -7.780  -1.210  0.00  0.00    -0.358 OA
ATOM     25  N   UNL     1      -2.088  -4.639  -0.644  0.00  0.00    -0.267 N 
ATOM     26  C   UNL     1      -0.918  -4.204  -0.136  0.00  0.00    +0.231 C 
ATOM     27  O   UNL     1      -0.076  -5.002   0.217  0.00  0.00    -0.274 OA
ATOM     28  H   UNL     1      -2.762  -4.000  -0.927  0.00  0.00    +0.156 HD
ENDBRANCH  17  26
ENDBRANCH  16  17
ENDBRANCH   1  16
BRANCH  15  29
ATOM     29  C   UNL     1       3.584  -0.766  -0.031  0.00  0.00    +0.201 C 
BRANCH  29  30
ATOM     30  C   UNL     1       4.001  -1.022  -1.457  0.00  0.00    +0.125 A 
ATOM     31  C   UNL     1       4.785  -0.223  -2.203  0.00  0.00    +0.046 A 
ATOM     32  C   UNL     1       4.919  -0.844  -3.466  0.00  0.00    +0.041 A 
ATOM     33  C   UNL     1       4.202  -1.981  -3.419  0.00  0.00    +0.195 A 
ATOM     34  O   UNL     1       3.648  -2.084  -2.200  0.00  0.00    -0.466 OA
ENDBRANCH  29  30
ENDBRANCH  15  29
TORSDOF 5
