REMARK  Name = ZINC04128025
REMARK  11 active torsions:
REMARK  status: ('A' for Active; 'I' for Inactive)
REMARK    1  A    between atoms: C_1  and  C_2
REMARK    2  A    between atoms: C_2  and  C_3
REMARK    3  A    between atoms: C_2  and  C_4
REMARK    4  A    between atoms: C_7  and  N_10
REMARK    5  A    between atoms: C_11  and  C_13
REMARK    6  A    between atoms: N_24  and  C_36
REMARK    7  A    between atoms: C_25  and  C_27
REMARK    8  A    between atoms: N_29  and  C_30
REMARK    9  A    between atoms: C_36  and  C_37
REMARK   10  A    between atoms: C_36  and  C_38
REMARK   11  A    between atoms: C_36  and  C_39
REMARK                            x       y       z     vdW  Elec       q    Type
REMARK                         _______ _______ _______ _____ _____    ______ ____
ROOT
ATOM      1  C   UNL     1      -2.359   1.814  -1.024  0.00  0.00    +0.123 C 
ATOM      2  C   UNL     1      -2.347   2.866  -2.180  0.00  0.00    +0.155 C 
ATOM      3  C   UNL     1      -2.893   4.175  -1.597  0.00  0.00    +0.004 C 
ATOM      4  C   UNL     1      -1.948   4.679  -0.788  0.00  0.00    +0.009 C 
ATOM      5  C   UNL     1      -0.859   3.669  -0.857  0.00  0.00    +0.127 C 
ATOM      6  C   UNL     1      -1.336   2.413  -0.042  0.00  0.00    +0.128 C 
ATOM      7  C   UNL     1      -0.050   1.645   0.080  0.00  0.00    +0.224 C 
ATOM      8  O   UNL     1       0.038   0.445   0.231  0.00  0.00    -0.275 OA
ATOM      9  N   UNL     1       0.996   2.504  -0.013  0.00  0.00    -0.281 N 
ATOM     10  C   UNL     1       0.527   3.874  -0.330  0.00  0.00    +0.199 C 
ATOM     11  O   UNL     1      -0.917   3.176  -2.222  0.00  0.00    -0.358 OA
ENDROOT
BRANCH   1  13
ATOM     12  N   UNL     1      -4.760   1.222  -1.092  0.00  0.00    -0.285 N 
ATOM     13  C   UNL     1      -3.723   1.722  -0.391  0.00  0.00    +0.224 C 
ATOM     14  O   UNL     1      -3.889   2.099   0.750  0.00  0.00    -0.275 OA
ATOM     15  H   UNL     1      -4.646   0.992  -2.028  0.00  0.00    +0.155 HD
BRANCH  12  19
ATOM     16  C   UNL     1      -8.451   0.663   0.757  0.00  0.00    -0.045 A 
ATOM     17  C   UNL     1      -8.395   1.011  -0.580  0.00  0.00    +0.006 A 
ATOM     18  C   UNL     1      -7.173   1.197  -1.196  0.00  0.00    +0.023 A 
ATOM     19  C   UNL     1      -5.999   1.034  -0.471  0.00  0.00    +0.033 A 
ATOM     20  C   UNL     1      -6.059   0.679   0.870  0.00  0.00    +0.023 A 
ATOM     21  C   UNL     1      -7.284   0.501   1.482  0.00  0.00    +0.006 A 
BRANCH  16  23
ATOM     22  C   UNL     1      -9.878  -0.970   1.959  0.00  0.00    +0.012 C 
ATOM     23  C   UNL     1      -9.786   0.461   1.426  0.00  0.00    +0.013 C 
ATOM     24  C   UNL     1      -9.930   1.448   2.586  0.00  0.00    +0.012 C 
ENDBRANCH  16  23
ENDBRANCH  12  19
ENDBRANCH   1  13
BRANCH  10  25
ATOM     25  C   UNL     1       0.502   4.726   0.913  0.00  0.00    +0.237 C 
ATOM     26  O   UNL     1       0.507   4.202   2.007  0.00  0.00    -0.274 OA
ATOM     27  N   UNL     1       0.474   6.069   0.810  0.00  0.00    -0.311 N 
ATOM     28  H   UNL     1       0.469   6.488  -0.065  0.00  0.00    +0.149 HD
BRANCH  27  29
ATOM     29  C   UNL     1       0.450   6.896   2.018  0.00  0.00    +0.073 C 
ATOM     30  C   UNL     1      -0.993   7.050   2.503  0.00  0.00    +0.022 C 
ATOM     31  C   UNL     1      -1.018   7.914   3.765  0.00  0.00    +0.002 C 
ATOM     32  C   UNL     1      -0.437   9.294   3.450  0.00  0.00    +0.000 C 
ATOM     33  C   UNL     1       1.007   9.140   2.966  0.00  0.00    +0.002 C 
ATOM     34  C   UNL     1       1.032   8.276   1.704  0.00  0.00    +0.022 C 
ENDBRANCH  27  29
ENDBRANCH  10  25
BRANCH   9  35
ATOM     35  C   UNL     1       2.400   2.129   0.176  0.00  0.00    +0.030 C 
ATOM     36  C   UNL     1       2.490   0.634   0.489  0.00  0.00    +0.031 C 
ATOM     37  C   UNL     1       3.185   2.431  -1.101  0.00  0.00    +0.031 C 
ATOM     38  C   UNL     1       2.990   2.929   1.339  0.00  0.00    +0.031 C 
ENDBRANCH   9  35
TORSDOF 6
