REMARK  Name = ZINC67439732
REMARK  9 active torsions:
REMARK  status: ('A' for Active; 'I' for Inactive)
REMARK    1  A    between atoms: C_1  and  C_2
REMARK    2  A    between atoms: C_5  and  C_31
REMARK    3  A    between atoms: N_8  and  C_10
REMARK    4  A    between atoms: C_10  and  C_11
REMARK    5  A    between atoms: C_11  and  C_13
REMARK    6  A    between atoms: C_11  and  N_14
REMARK    7  A    between atoms: C_15  and  C_17
REMARK    8  A    between atoms: N_19  and  C_20
REMARK    9  A    between atoms: C_22  and  N_28
REMARK                            x       y       z     vdW  Elec       q    Type
REMARK                         _______ _______ _______ _____ _____    ______ ____
ROOT
ATOM      1  N   UNL     1       3.494  -2.481   0.937  0.00  0.00    -0.307 N 
ATOM      2  C   UNL     1       4.527  -1.841   0.355  0.00  0.00    +0.299 C 
ATOM      3  O   UNL     1       5.023  -0.874   0.894  0.00  0.00    -0.265 OA
ATOM      4  H   UNL     1       3.097  -3.254   0.507  0.00  0.00    +0.149 HD
ENDROOT
BRANCH   2   5
ATOM      5  C   UNL     1       5.063  -2.324  -0.953  0.00  0.00    +0.303 C 
ATOM      6  O   UNL     1       4.567  -3.292  -1.492  0.00  0.00    -0.265 OA
ATOM      7  N   UNL     1       6.097  -1.684  -1.535  0.00  0.00    -0.275 N 
ATOM      8  H   UNL     1       6.451  -0.874  -1.137  0.00  0.00    +0.155 HD
BRANCH   7   9
ATOM      9  C   UNL     1       6.659  -2.190  -2.712  0.00  0.00    +0.072 A 
ATOM     10  C   UNL     1       5.854  -2.817  -3.653  0.00  0.00    +0.062 A 
ATOM     11  C   UNL     1       6.411  -3.316  -4.815  0.00  0.00    +0.163 A 
ATOM     12  C   UNL     1       7.771  -3.192  -5.042  0.00  0.00    +0.156 A 
ATOM     13  C   UNL     1       8.578  -2.568  -4.105  0.00  0.00    +0.081 A 
ATOM     14  C   UNL     1       8.024  -2.061  -2.943  0.00  0.00    +0.147 A 
ATOM     15  F   UNL     1       8.810  -1.447  -2.032  0.00  0.00    -0.203 F 
ATOM     16  F   UNL     1       8.313  -3.681  -6.178  0.00  0.00    -0.203 F 
BRANCH  11  17
ATOM     17  N   UNL     1       5.552  -3.985  -5.818  0.00  0.00    +0.059 N 
ATOM     18  O   UNL     1       4.364  -4.094  -5.621  0.00  0.00    -0.126 OA
ATOM     19  O   UNL     1       6.038  -4.422  -6.835  0.00  0.00    -0.126 OA
ENDBRANCH  11  17
ENDBRANCH   7   9
ENDBRANCH   2   5
BRANCH   1  20
ATOM     20  C   UNL     1       2.968  -2.007   2.220  0.00  0.00    +0.054 C 
ATOM     21  C   UNL     1       3.792  -2.608   3.361  0.00  0.00    +0.026 C 
BRANCH  20  22
ATOM     22  C   UNL     1       1.507  -2.438   2.364  0.00  0.00    -0.057 C 
BRANCH  22  28
ATOM     23  C   UNL     1      -0.026   1.538  -0.045  0.00  0.00    +0.005 C 
ATOM     24  C   UNL     1      -0.006   0.009  -0.046  0.00  0.00    -0.031 C 
ATOM     25  C   UNL     1      -1.443  -0.521  -0.040  0.00  0.00    +0.003 C 
ATOM     26  C   UNL     1      -1.413  -2.050   0.038  0.00  0.00    -0.031 C 
ATOM     27  C   UNL     1      -0.632  -2.477   1.284  0.00  0.00    -0.076 C 
ATOM     28  N   UNL     1       0.740  -1.962   1.205  0.00  0.00    +0.381 N 
ATOM     29  C   UNL     1       0.723  -0.494   1.202  0.00  0.00    -0.076 C 
ATOM     30  C   UNL     1      -0.731  -2.612  -1.210  0.00  0.00    +0.005 C 
ATOM     31  H   UNL     1       1.175  -2.293   0.357  0.00  0.00    -0.082 HD
ENDBRANCH  22  28
ENDBRANCH  20  22
ENDBRANCH   1  20
TORSDOF 6
