REMARK  Name = ZINC40410628
REMARK  12 active torsions:
REMARK  status: ('A' for Active; 'I' for Inactive)
REMARK    1  A    between atoms: C_1  and  N_2
REMARK    2  A    between atoms: N_2  and  C_3
REMARK    3  A    between atoms: N_2  and  C_4
REMARK    4  A    between atoms: C_4  and  C_5
REMARK    5  A    between atoms: C_5  and  N_6
REMARK    6  A    between atoms: C_7  and  C_9
REMARK    7  A    between atoms: C_12  and  C_14
REMARK    8  A    between atoms: C_14  and  N_15
REMARK    9  A    between atoms: C_18  and  C_26
REMARK   10  A    between atoms: C_26  and  C_28
REMARK   11  A    between atoms: C_28  and  O_29
REMARK   12  A    between atoms: O_29  and  C_30
REMARK                            x       y       z     vdW  Elec       q    Type
REMARK                         _______ _______ _______ _____ _____    ______ ____
ROOT
ATOM      1  N   UNL     1       3.296  -3.988   7.810  0.00  0.00    -0.258 N 
ATOM      2  C   UNL     1       2.821  -4.565   8.997  0.00  0.00    +0.079 A 
ATOM      3  C   UNL     1       2.321  -3.774  10.011  0.00  0.00    +0.038 A 
ATOM      4  C   UNL     1       1.853  -4.370  11.189  0.00  0.00    +0.023 A 
ATOM      5  C   UNL     1       1.896  -5.763  11.329  0.00  0.00    +0.015 A 
ATOM      6  C   UNL     1       2.396  -6.544  10.311  0.00  0.00    +0.048 A 
ATOM      7  C   UNL     1       2.859  -5.954   9.144  0.00  0.00    +0.143 A 
ATOM      8  O   UNL     1       3.351  -6.717   8.134  0.00  0.00    -0.481 OA
ATOM      9  C   UNL     1       3.134  -6.241   6.803  0.00  0.00    +0.325 C 
ATOM     10  C   UNL     1       3.473  -4.774   6.726  0.00  0.00    +0.258 C 
ATOM     11  O   UNL     1       3.905  -4.303   5.695  0.00  0.00    -0.271 OA
ENDROOT
BRANCH   4  12
ATOM     12  C   UNL     1       1.320  -3.537  12.275  0.00  0.00    +0.200 C 
ATOM     13  O   UNL     1       1.284  -2.331  12.152  0.00  0.00    -0.288 OA
BRANCH  12  14
ATOM     14  C   UNL     1       0.817  -4.181  13.541  0.00  0.00    +0.308 C 
BRANCH  14  15
ATOM     15  O   UNL     1       0.353  -3.170  14.438  0.00  0.00    -0.483 OA
BRANCH  15  16
ATOM     16  C   UNL     1      -0.137  -3.585  15.636  0.00  0.00    +0.139 A 
ATOM     17  C   UNL     1      -0.165  -4.937  15.944  0.00  0.00    +0.047 A 
ATOM     18  C   UNL     1      -0.663  -5.356  17.163  0.00  0.00    +0.004 A 
ATOM     19  C   UNL     1      -1.134  -4.430  18.075  0.00  0.00    +0.002 A 
ATOM     20  C   UNL     1      -1.108  -3.082  17.771  0.00  0.00    +0.023 A 
ATOM     21  C   UNL     1      -0.605  -2.656  16.555  0.00  0.00    +0.083 A 
ATOM     22 CL   UNL     1      -0.566  -0.962  16.176  0.00  0.00    -0.080 Cl
ENDBRANCH  15  16
ENDBRANCH  14  15
ENDBRANCH  12  14
ENDBRANCH   4  12
BRANCH   1  23
ATOM     23  C   UNL     1       3.588  -2.554   7.745  0.00  0.00    +0.188 C 
BRANCH  23  27
ATOM     24  C   UNL     1       0.839  -0.848   6.051  0.00  0.00    +0.189 A 
ATOM     25  C   UNL     1       0.435  -0.692   7.346  0.00  0.00    +0.055 A 
ATOM     26  C   UNL     1       1.408  -1.309   8.148  0.00  0.00    +0.047 A 
ATOM     27  C   UNL     1       2.351  -1.807   7.319  0.00  0.00    +0.124 A 
ATOM     28  O   UNL     1       2.002  -1.532   6.055  0.00  0.00    -0.453 OA
BRANCH  24  30
ATOM     29  N   UNL     1       0.637  -0.589   3.635  0.00  0.00    -0.311 N 
ATOM     30  C   UNL     1       0.130  -0.362   4.862  0.00  0.00    +0.279 C 
ATOM     31  O   UNL     1      -0.917   0.246   4.985  0.00  0.00    -0.267 OA
ATOM     32  H   UNL     1       1.472  -1.073   3.537  0.00  0.00    +0.149 HD
BRANCH  29  33
ATOM     33  C   UNL     1      -0.071  -0.103   2.448  0.00  0.00    +0.086 C 
BRANCH  33  34
ATOM     34  C   UNL     1       0.713  -0.491   1.192  0.00  0.00    -0.061 C 
BRANCH  34  36
ATOM     35  C   UNL     1      -0.018   1.465   0.010  0.00  0.00    -0.097 C 
ATOM     36  N   UNL     1       0.002  -0.004   0.002  0.00  0.00    +0.377 N 
ATOM     37  C   UNL     1       0.690  -0.478  -1.207  0.00  0.00    -0.097 C 
ATOM     38  H   UNL     1      -0.945  -0.353   0.009  0.00  0.00    -0.083 HD
ENDBRANCH  34  36
ENDBRANCH  33  34
ENDBRANCH  29  33
ENDBRANCH  24  30
ENDBRANCH  23  27
ENDBRANCH   1  23
TORSDOF 10
