REMARK  Name = ZINC39561091
REMARK  7 active torsions:
REMARK  status: ('A' for Active; 'I' for Inactive)
REMARK    1  A    between atoms: C_1  and  C_2
REMARK    2  A    between atoms: C_2  and  C_4
REMARK    3  A    between atoms: C_2  and  O_16
REMARK    4  A    between atoms: N_9  and  C_10
REMARK    5  A    between atoms: O_16  and  C_17
REMARK    6  A    between atoms: C_17  and  C_19
REMARK    7  A    between atoms: C_21  and  N_27
REMARK                            x       y       z     vdW  Elec       q    Type
REMARK                         _______ _______ _______ _____ _____    ______ ____
ROOT
ATOM      1  C   UNL     1      -0.019   1.526   0.010  0.00  0.00    +0.062 C 
ATOM      2  C   UNL     1       0.002  -0.004   0.002  0.00  0.00    +0.259 C 
ENDROOT
BRANCH   2   3
ATOM      3  C   UNL     1       0.707  -0.490  -1.238  0.00  0.00    +0.261 C 
ATOM      4  O   UNL     1       1.753  -1.097  -1.142  0.00  0.00    -0.271 OA
ATOM      5  N   UNL     1       0.176  -0.250  -2.453  0.00  0.00    -0.237 N 
ATOM      6  C   UNL     1       0.807  -0.685  -3.562  0.00  0.00    +0.306 C 
ATOM      7  O   UNL     1       1.855  -1.293  -3.466  0.00  0.00    -0.252 OA
ATOM      8  N   UNL     1       0.276  -0.445  -4.777  0.00  0.00    -0.296 N 
ATOM      9  H   UNL     1      -0.660   0.235  -2.530  0.00  0.00    +0.159 HD
ATOM     10  H   UNL     1      -0.560   0.041  -4.854  0.00  0.00    +0.151 HD
BRANCH   8  11
ATOM     11  C   UNL     1       0.962  -0.917  -5.983  0.00  0.00    +0.074 C 
ATOM     12  C   UNL     1       2.017   0.107  -6.404  0.00  0.00    +0.022 C 
ATOM     13  C   UNL     1       2.733  -0.386  -7.662  0.00  0.00    +0.002 C 
ATOM     14  C   UNL     1       1.716  -0.564  -8.791  0.00  0.00    +0.000 C 
ATOM     15  C   UNL     1       0.661  -1.588  -8.370  0.00  0.00    +0.002 C 
ATOM     16  C   UNL     1      -0.055  -1.095  -7.112  0.00  0.00    +0.022 C 
ENDBRANCH   8  11
ENDBRANCH   2   3
BRANCH   2  17
ATOM     17  O   UNL     1       0.693  -0.477   1.160  0.00  0.00    -0.448 OA
BRANCH  17  18
ATOM     18  C   UNL     1      -0.044  -0.697   2.265  0.00  0.00    +0.360 C 
ATOM     19  O   UNL     1      -1.242  -0.493   2.247  0.00  0.00    -0.243 OA
BRANCH  18  20
ATOM     20  C   UNL     1       0.603  -1.188   3.501  0.00  0.00    +0.169 A 
ATOM     21  C   UNL     1      -0.166  -1.419   4.638  0.00  0.00    +0.095 A 
ATOM     22  C   UNL     1       0.460  -1.882   5.796  0.00  0.00    +0.067 A 
ATOM     23  C   UNL     1       1.837  -2.094   5.763  0.00  0.00    +0.100 A 
ATOM     24  C   UNL     1       2.534  -1.841   4.592  0.00  0.00    +0.150 A 
ATOM     25  N   UNL     1       1.914  -1.409   3.514  0.00  0.00    -0.226 NA
ATOM     26 CL   UNL     1       4.250  -2.104   4.545  0.00  0.00    -0.060 Cl
ATOM     27 CL   UNL     1       2.670  -2.669   7.174  0.00  0.00    -0.078 Cl
ATOM     28 CL   UNL     1      -1.879  -1.134   4.616  0.00  0.00    -0.079 Cl
BRANCH  22  29
ATOM     29  N   UNL     1      -0.273  -2.125   6.956  0.00  0.00    -0.356 N 
ATOM     30  H   UNL     1      -1.231  -1.972   6.965  0.00  0.00    +0.142 HD
ATOM     31  H   UNL     1       0.175  -2.447   7.754  0.00  0.00    +0.142 HD
ENDBRANCH  22  29
ENDBRANCH  18  20
ENDBRANCH  17  18
ENDBRANCH   2  17
TORSDOF 6
