REMARK  Name = ZINC59170428
REMARK  6 active torsions:
REMARK  status: ('A' for Active; 'I' for Inactive)
REMARK    1  A    between atoms: C_1  and  C_2
REMARK    2  A    between atoms: C_6  and  N_8
REMARK    3  A    between atoms: C_9  and  C_11
REMARK    4  A    between atoms: N_21  and  C_22
REMARK    5  A    between atoms: C_25  and  S_28
REMARK    6  A    between atoms: S_28  and  N_31
REMARK                            x       y       z     vdW  Elec       q    Type
REMARK                         _______ _______ _______ _____ _____    ______ ____
ROOT
ATOM      1  C   UNL     1      -0.174  -4.860   3.640  0.00  0.00    +0.098 A 
ATOM      2  C   UNL     1      -0.144  -6.248   3.652  0.00  0.00    +0.030 A 
ATOM      3  C   UNL     1      -0.187  -6.912   4.957  0.00  0.00    +0.021 A 
ATOM      4  C   UNL     1       0.106  -8.276   5.077  0.00  0.00    +0.031 A 
ATOM      5  C   UNL     1       0.062  -8.875   6.316  0.00  0.00    +0.043 A 
ATOM      6  C   UNL     1      -0.270  -8.134   7.443  0.00  0.00    +0.043 A 
ATOM      7  C   UNL     1      -0.562  -6.788   7.340  0.00  0.00    +0.085 A 
ATOM      8  C   UNL     1      -0.526  -6.165   6.101  0.00  0.00    +0.156 A 
ATOM      9  O   UNL     1      -0.817  -4.846   5.983  0.00  0.00    -0.437 OA
ATOM     10  C   UNL     1      -0.241  -4.178   4.948  0.00  0.00    +0.212 A 
ATOM     11  N   UNL     1       0.238  -2.963   5.104  0.00  0.00    -0.325 N 
ATOM     12 CL   UNL     1      -0.975  -5.878   8.759  0.00  0.00    -0.080 Cl
ATOM     13 CL   UNL     1       0.423 -10.566   6.471  0.00  0.00    -0.083 Cl
ATOM     14  H   UNL     1       0.738  -2.543   4.387  0.00  0.00    +0.169 HD
ENDROOT
BRANCH  11  15
ATOM     15  C   UNL     1       0.030  -2.292   6.277  0.00  0.00    +0.042 A 
ATOM     16  C   UNL     1      -1.233  -2.295   6.874  0.00  0.00    +0.027 A 
ATOM     17  C   UNL     1      -1.435  -1.616   8.057  0.00  0.00    +0.030 A 
ATOM     18  C   UNL     1      -0.391  -0.933   8.654  0.00  0.00    +0.105 A 
ATOM     19  C   UNL     1       0.863  -0.925   8.069  0.00  0.00    +0.030 A 
ATOM     20  C   UNL     1       1.082  -1.604   6.888  0.00  0.00    +0.027 A 
BRANCH  18  21
ATOM     21  S   UNL     1      -0.658  -0.069  10.166  0.00  0.00    +0.056 S 
ATOM     22  O   UNL     1       0.338   0.942  10.238  0.00  0.00    -0.153 OA
ATOM     23  O   UNL     1      -2.047   0.225  10.226  0.00  0.00    -0.153 OA
BRANCH  21  24
ATOM     24  N   UNL     1      -0.345  -1.129  11.398  0.00  0.00    -0.204 NA
ATOM     25  H   UNL     1      -0.010  -0.801  12.247  0.00  0.00    +0.144 HD
ATOM     26  H   UNL     1      -0.498  -2.079  11.271  0.00  0.00    +0.144 HD
ENDBRANCH  21  24
ENDBRANCH  18  21
ENDBRANCH  11  15
BRANCH   1  28
ATOM     27  N   UNL     1      -0.303  -2.764   2.392  0.00  0.00    -0.281 N 
ATOM     28  C   UNL     1      -0.135  -4.101   2.379  0.00  0.00    +0.253 C 
ATOM     29  O   UNL     1       0.050  -4.680   1.326  0.00  0.00    -0.270 OA
ATOM     30  H   UNL     1      -0.397  -2.295   3.236  0.00  0.00    +0.155 HD
BRANCH  27  36
ATOM     31  C   UNL     1      -2.108   0.956  -0.268  0.00  0.00    +0.044 C 
ATOM     32  C   UNL     1      -1.208  -0.245  -0.129  0.00  0.00    -0.049 A 
ATOM     33  C   UNL     1      -0.419  -0.645  -1.192  0.00  0.00    +0.003 A 
ATOM     34  C   UNL     1       0.407  -1.746  -1.069  0.00  0.00    +0.002 A 
ATOM     35  C   UNL     1       0.448  -2.451   0.118  0.00  0.00    +0.023 A 
ATOM     36  C   UNL     1      -0.342  -2.052   1.188  0.00  0.00    +0.034 A 
ATOM     37  C   UNL     1      -1.168  -0.942   1.062  0.00  0.00    +0.026 A 
ENDBRANCH  27  36
ENDBRANCH   1  28
TORSDOF 5
