REMARK  Name = ZINC23353960
REMARK  11 active torsions:
REMARK  status: ('A' for Active; 'I' for Inactive)
REMARK    1  A    between atoms: C_1  and  C_2
REMARK    2  A    between atoms: C_5  and  C_7
REMARK    3  A    between atoms: C_7  and  N_8
REMARK    4  A    between atoms: C_9  and  C_11
REMARK    5  A    between atoms: N_14  and  C_16
REMARK    6  A    between atoms: C_19  and  N_22
REMARK    7  A    between atoms: N_22  and  C_23
REMARK    8  A    between atoms: C_23  and  C_24
REMARK    9  A    between atoms: C_24  and  C_25
REMARK   10  A    between atoms: C_24  and  C_26
REMARK   11  A    between atoms: C_24  and  N_27
REMARK                            x       y       z     vdW  Elec       q    Type
REMARK                         _______ _______ _______ _____ _____    ______ ____
ROOT
ATOM      1  C   UNL     1       2.401  -5.791  -1.677  0.00  0.00    +0.150 A 
ATOM      2  C   UNL     1       3.304  -6.620  -2.364  0.00  0.00    +0.004 A 
ATOM      3  C   UNL     1       3.040  -6.446  -3.682  0.00  0.00    +0.043 A 
ATOM      4  N   UNL     1       2.032  -5.563  -3.773  0.00  0.00    -0.270 N 
ATOM      5  N   UNL     1       1.663  -5.191  -2.596  0.00  0.00    -0.166 NA
ATOM      6  C   UNL     1       1.435  -5.096  -5.027  0.00  0.00    +0.172 C 
ATOM      7  C   UNL     1       3.786  -7.149  -4.788  0.00  0.00    +0.054 C 
ATOM      8  C   UNL     1       5.089  -7.713  -4.208  0.00  0.00    -0.009 C 
ATOM      9  C   UNL     1       4.785  -8.503  -2.932  0.00  0.00    -0.067 C 
ATOM     10  C   UNL     1       4.365  -7.535  -1.818  0.00  0.00    +0.023 C 
ENDROOT
BRANCH   1  12
ATOM     11  N   UNL     1       1.367  -4.794   0.304  0.00  0.00    -0.303 N 
ATOM     12  C   UNL     1       2.292  -5.626  -0.213  0.00  0.00    +0.265 C 
ATOM     13  O   UNL     1       3.037  -6.242   0.524  0.00  0.00    -0.268 OA
ATOM     14  H   UNL     1       0.773  -4.303  -0.284  0.00  0.00    +0.150 HD
BRANCH  11  15
ATOM     15  C   UNL     1       1.259  -4.630   1.756  0.00  0.00    +0.179 C 
BRANCH  15  20
ATOM     16  C   UNL     1      -1.154  -0.302   2.697  0.00  0.00    +0.086 C 
ATOM     17  C   UNL     1      -0.892  -1.770   2.481  0.00  0.00    +0.102 A 
ATOM     18  C   UNL     1      -1.812  -2.750   2.538  0.00  0.00    +0.045 A 
ATOM     19  C   UNL     1      -1.136  -3.963   2.275  0.00  0.00    +0.046 A 
ATOM     20  C   UNL     1       0.157  -3.652   2.071  0.00  0.00    +0.122 A 
ATOM     21  O   UNL     1       0.297  -2.322   2.191  0.00  0.00    -0.463 OA
ENDBRANCH  15  20
ENDBRANCH  11  15
ENDBRANCH   1  12
BRANCH   9  22
ATOM     22  N   UNL     1       5.986  -9.238  -2.514  0.00  0.00    +0.382 N 
ATOM     23  H   UNL     1       6.757  -8.595  -2.415  0.00  0.00    -0.085 HD
ATOM     24  H   UNL     1       5.812  -9.693  -1.630  0.00  0.00    -0.085 HD
BRANCH  22  25
ATOM     25  C   UNL     1       6.319 -10.249  -3.527  0.00  0.00    -0.060 C 
BRANCH  25  26
ATOM     26  C   UNL     1       7.492 -11.099  -3.033  0.00  0.00    +0.001 C 
ATOM     27  C   UNL     1       7.060 -11.898  -1.802  0.00  0.00    +0.025 C 
ATOM     28  C   UNL     1       7.925 -12.062  -4.140  0.00  0.00    +0.025 C 
BRANCH  26  29
ATOM     29  N   UNL     1       8.616 -10.223  -2.679  0.00  0.00    -0.295 NA
ATOM     30  C   UNL     1       9.043  -9.420  -3.834  0.00  0.00    +0.113 C 
ATOM     31  C   UNL     1      10.174  -8.480  -3.406  0.00  0.00    +0.175 C 
ATOM     32  O   UNL     1      11.246  -9.252  -2.857  0.00  0.00    -0.377 OA
ATOM     33  C   UNL     1      10.865 -10.046  -1.730  0.00  0.00    +0.175 C 
ATOM     34  C   UNL     1       9.742 -11.001  -2.141  0.00  0.00    +0.113 C 
ENDBRANCH  26  29
ENDBRANCH  25  26
ENDBRANCH  22  25
ENDBRANCH   9  22
TORSDOF 7
