REMARK  Name = ZINC41491643
REMARK  5 active torsions:
REMARK  status: ('A' for Active; 'I' for Inactive)
REMARK    1  A    between atoms: C_3  and  N_10
REMARK    2  A    between atoms: C_6  and  C_7
REMARK    3  A    between atoms: C_11  and  C_13
REMARK    4  A    between atoms: N_15  and  C_16
REMARK    5  A    between atoms: C_16  and  C_17
REMARK                            x       y       z     vdW  Elec       q    Type
REMARK                         _______ _______ _______ _____ _____    ______ ____
ROOT
ATOM      1  C   UNL     1       6.024   2.243   0.208  0.00  0.00    +0.300 C 
ATOM      2  O   UNL     1       6.003   3.456   0.192  0.00  0.00    -0.265 OA
ATOM      3  N   UNL     1       7.201   1.591   0.289  0.00  0.00    -0.303 N 
ATOM      4  H   UNL     1       7.218   0.621   0.302  0.00  0.00    +0.149 HD
ENDROOT
BRANCH   1   6
ATOM      5  N   UNL     1       3.570   2.124   0.060  0.00  0.00    -0.278 N 
ATOM      6  C   UNL     1       4.747   1.472   0.140  0.00  0.00    +0.303 C 
ATOM      7  O   UNL     1       4.768   0.259   0.157  0.00  0.00    -0.265 OA
ATOM      8  H   UNL     1       3.556   3.090  -0.031  0.00  0.00    +0.155 HD
BRANCH   5  11
ATOM      9  C   UNL     1       1.103  -0.447   0.931  0.00  0.00    +0.015 A 
ATOM     10  C   UNL     1       2.283   0.259   0.882  0.00  0.00    +0.024 A 
ATOM     11  C   UNL     1       2.374   1.411   0.107  0.00  0.00    +0.034 A 
ATOM     12  C   UNL     1       1.273   1.854  -0.620  0.00  0.00    +0.024 A 
ATOM     13  C   UNL     1       0.090   1.152  -0.575  0.00  0.00    +0.015 A 
ATOM     14  C   UNL     1      -0.005  -0.006   0.203  0.00  0.00    +0.037 A 
BRANCH  14  15
ATOM     15  C   UNL     1      -1.272  -0.761   0.253  0.00  0.00    +0.242 C 
ATOM     16  O   UNL     1      -1.353  -1.768   0.929  0.00  0.00    -0.270 OA
ATOM     17  N   UNL     1      -2.340  -0.334  -0.450  0.00  0.00    -0.325 N 
ATOM     18  H   UNL     1      -2.275   0.469  -0.990  0.00  0.00    +0.145 HD
ATOM     19  H   UNL     1      -3.173  -0.830  -0.417  0.00  0.00    +0.145 HD
ENDBRANCH  14  15
ENDBRANCH   5  11
ENDBRANCH   1   6
BRANCH   3  20
ATOM     20  C   UNL     1       8.454   2.347   0.356  0.00  0.00    +0.141 C 
BRANCH  20  21
ATOM     21  C   UNL     1       9.615   1.389   0.439  0.00  0.00    -0.014 A 
ATOM     22  C   UNL     1      10.078   0.954   1.674  0.00  0.00    +0.010 A 
ATOM     23  C   UNL     1      11.146   0.076   1.707  0.00  0.00    +0.042 A 
ATOM     24  C   UNL     1      11.716  -0.341   0.508  0.00  0.00    +0.099 A 
ATOM     25  N   UNL     1      11.245   0.097  -0.650  0.00  0.00    -0.349 N 
ATOM     26  C   UNL     1      10.225   0.931  -0.711  0.00  0.00    +0.089 A 
ATOM     27  N   UNL     1      12.789  -1.224   0.526  0.00  0.00    -0.317 N 
ATOM     28  C   UNL     1      13.191  -1.800   1.789  0.00  0.00    +0.106 C 
ATOM     29  C   UNL     1      14.236  -0.882   2.470  0.00  0.00    +0.019 C 
ATOM     30  C   UNL     1      15.518  -0.946   1.752  0.00  0.00    +0.002 C 
ATOM     31  C   UNL     1      15.457  -0.446   0.312  0.00  0.00    +0.002 C 
ATOM     32  C   UNL     1      15.003  -1.567  -0.589  0.00  0.00    +0.019 C 
ATOM     33  C   UNL     1      13.468  -1.538  -0.747  0.00  0.00    +0.106 C 
ATOM     34  H   UNL     1      11.658  -0.207  -1.473  0.00  0.00    +0.167 HD
ENDBRANCH  20  21
ENDBRANCH   3  20
TORSDOF 5
