REMARK  Name = ZINC16885176
REMARK  10 active torsions:
REMARK  status: ('A' for Active; 'I' for Inactive)
REMARK    1  A    between atoms: C_1  and  C_2
REMARK    2  A    between atoms: C_2  and  O_3
REMARK    3  A    between atoms: O_3  and  C_4
REMARK    4  A    between atoms: C_7  and  C_10
REMARK    5  A    between atoms: C_10  and  C_11
REMARK    6  A    between atoms: C_12  and  C_34
REMARK    7  A    between atoms: N_15  and  C_18
REMARK    8  A    between atoms: C_18  and  C_19
REMARK    9  A    between atoms: N_26  and  C_27
REMARK   10  A    between atoms: C_32  and  N_33
REMARK                            x       y       z     vdW  Elec       q    Type
REMARK                         _______ _______ _______ _____ _____    ______ ____
ROOT
ATOM      1  C   UNL     1      -0.259  -0.299  -2.374  0.00  0.00    +0.042 A 
ATOM      2  C   UNL     1      -0.388  -1.657  -2.330  0.00  0.00    +0.050 A 
ATOM      3  N   UNL     1      -1.463  -2.244  -2.852  0.00  0.00    -0.220 NA
ATOM      4  C   UNL     1      -2.421  -1.538  -3.420  0.00  0.00    +0.203 A 
ATOM      5  N   UNL     1      -2.347  -0.181  -3.493  0.00  0.00    -0.276 N 
ATOM      6  C   UNL     1      -1.279   0.461  -2.973  0.00  0.00    +0.259 A 
ATOM      7  O   UNL     1      -1.199   1.677  -3.025  0.00  0.00    -0.267 OA
ATOM      8  N   UNL     1      -3.510  -2.182  -3.944  0.00  0.00    -0.283 N 
ATOM      9  C   UNL     1       0.688  -2.495  -1.688  0.00  0.00    +0.066 C 
ATOM     10  H   UNL     1      -4.235  -1.670  -4.335  0.00  0.00    +0.155 HD
ENDROOT
BRANCH   8  11
ATOM     11  C   UNL     1      -3.577  -3.582  -3.917  0.00  0.00    +0.054 A 
ATOM     12  C   UNL     1      -2.930  -4.290  -2.916  0.00  0.00    +0.025 A 
ATOM     13  C   UNL     1      -3.000  -5.670  -2.888  0.00  0.00    +0.002 A 
ATOM     14  C   UNL     1      -3.708  -6.349  -3.863  0.00  0.00    +0.002 A 
ATOM     15  C   UNL     1      -4.352  -5.652  -4.868  0.00  0.00    +0.024 A 
ATOM     16  C   UNL     1      -4.290  -4.267  -4.901  0.00  0.00    +0.046 A 
BRANCH  16  17
ATOM     17  N   UNL     1      -4.941  -3.559  -5.917  0.00  0.00    -0.357 N 
ATOM     18  H   UNL     1      -4.832  -2.598  -5.985  0.00  0.00    +0.142 HD
ATOM     19  H   UNL     1      -5.500  -4.030  -6.554  0.00  0.00    +0.142 HD
ENDBRANCH  16  17
ENDBRANCH   8  11
BRANCH   1  20
ATOM     20  C   UNL     1       0.954   0.374  -1.786  0.00  0.00    +0.077 C 
BRANCH  20  24
ATOM     21  C   UNL     1       0.013   1.851   2.112  0.00  0.00    +0.121 A 
ATOM     22  C   UNL     1       0.473   0.551   1.953  0.00  0.00    +0.046 A 
ATOM     23  C   UNL     1       0.776   0.077   0.692  0.00  0.00    +0.007 A 
ATOM     24  C   UNL     1       0.622   0.895  -0.411  0.00  0.00    -0.043 A 
ATOM     25  C   UNL     1       0.165   2.191  -0.256  0.00  0.00    +0.007 A 
ATOM     26  C   UNL     1      -0.140   2.670   1.003  0.00  0.00    +0.046 A 
BRANCH  21  27
ATOM     27  O   UNL     1      -0.286   2.320   3.352  0.00  0.00    -0.492 OA
BRANCH  27  29
ATOM     28  C   UNL     1      -0.489   2.122   5.752  0.00  0.00    +0.048 C 
ATOM     29  C   UNL     1      -0.104   1.421   4.447  0.00  0.00    +0.225 C 
ENDBRANCH  27  29
ENDBRANCH  21  27
ENDBRANCH  20  24
ENDBRANCH   1  20
BRANCH   5  30
ATOM     30  C   UNL     1      -3.425   0.580  -4.130  0.00  0.00    +0.164 C 
BRANCH  30  31
ATOM     31  C   UNL     1      -4.304   1.189  -3.068  0.00  0.00    -0.009 A 
ATOM     32  C   UNL     1      -4.052   2.470  -2.613  0.00  0.00    +0.007 A 
ATOM     33  C   UNL     1      -4.858   3.029  -1.639  0.00  0.00    +0.000 A 
ATOM     34  C   UNL     1      -5.917   2.307  -1.119  0.00  0.00    +0.001 A 
ATOM     35  C   UNL     1      -6.170   1.027  -1.574  0.00  0.00    +0.020 A 
ATOM     36  C   UNL     1      -5.366   0.469  -2.553  0.00  0.00    +0.046 A 
ATOM     37 CL   UNL     1      -5.688  -1.137  -3.129  0.00  0.00    -0.083 Cl
ENDBRANCH  30  31
ENDBRANCH   5  30
TORSDOF 8
