REMARK  Name = ZINC20617995
REMARK  20 active torsions:
REMARK  status: ('A' for Active; 'I' for Inactive)
REMARK    1  A    between atoms: C_1  and  C_2
REMARK    2  A    between atoms: C_2  and  C_3
REMARK    3  A    between atoms: C_3  and  C_4
REMARK    4  A    between atoms: C_4  and  C_5
REMARK    5  A    between atoms: C_5  and  N_6
REMARK    6  A    between atoms: N_6  and  C_7
REMARK    7  A    between atoms: N_6  and  C_12
REMARK    8  A    between atoms: C_7  and  C_8
REMARK    9  A    between atoms: C_8  and  C_9
REMARK   10  A    between atoms: C_9  and  C_10
REMARK   11  A    between atoms: C_10  and  C_11
REMARK   12  A    between atoms: C_12  and  C_13
REMARK   13  A    between atoms: C_13  and  C_15
REMARK   14  A    between atoms: C_13  and  N_16
REMARK   15  A    between atoms: C_17  and  C_19
REMARK   16  A    between atoms: N_22  and  C_24
REMARK   17  A    between atoms: C_24  and  O_25
REMARK   18  A    between atoms: O_25  and  C_26
REMARK   19  A    between atoms: C_28  and  C_33
REMARK   20  A    between atoms: C_30  and  C_32
REMARK                            x       y       z     vdW  Elec       q    Type
REMARK                         _______ _______ _______ _____ _____    ______ ____
ROOT
ATOM      1  N   UNL     1      -1.142   5.580   0.044  0.00  0.00    -0.309 N 
ATOM      2  C   UNL     1      -1.747   4.400   0.284  0.00  0.00    +0.264 C 
ATOM      3  O   UNL     1      -2.880   4.375   0.724  0.00  0.00    -0.268 OA
ATOM      4  H   UNL     1      -0.117   5.602  -0.354  0.00  0.00    +0.149 HD
ENDROOT
BRANCH   2   5
ATOM      5  C   UNL     1      -1.033   3.135   0.013  0.00  0.00    +0.147 A 
ATOM      6  C   UNL     1      -1.534   1.827   0.207  0.00  0.00    +0.054 A 
ATOM      7  C   UNL     1      -0.535   0.996  -0.172  0.00  0.00    +0.113 A 
ATOM      8  N   UNL     1       0.496   1.769  -0.575  0.00  0.00    -0.235 N 
ATOM      9  N   UNL     1       0.191   3.012  -0.462  0.00  0.00    -0.164 NA
BRANCH   8  10
ATOM     10  C   UNL     1       1.778   1.263  -1.071  0.00  0.00    +0.374 C 
BRANCH  10  11
ATOM     11  O   UNL     1       1.764  -0.166  -1.059  0.00  0.00    -0.470 OA
BRANCH  11  12
ATOM     12  C   UNL     1       2.886  -0.798  -1.492  0.00  0.00    +0.124 A 
ATOM     13  C   UNL     1       3.977  -0.058  -1.925  0.00  0.00    +0.049 A 
ATOM     14  C   UNL     1       5.119  -0.703  -2.359  0.00  0.00    -0.047 A 
ATOM     15  C   UNL     1       5.171  -2.085  -2.373  0.00  0.00    +0.007 A 
ATOM     16  C   UNL     1       4.083  -2.824  -1.948  0.00  0.00    -0.047 A 
ATOM     17  C   UNL     1       2.941  -2.184  -1.507  0.00  0.00    +0.049 A 
ATOM     18  C   UNL     1       4.143  -4.330  -1.964  0.00  0.00    +0.044 C 
ATOM     19  C   UNL     1       6.307   0.100  -2.822  0.00  0.00    +0.044 C 
ENDBRANCH  11  12
ENDBRANCH  10  11
ENDBRANCH   8  10
ENDBRANCH   2   5
BRANCH   1  20
ATOM     20  C   UNL     1      -1.850   6.834   0.314  0.00  0.00    +0.054 C 
ATOM     21  C   UNL     1      -2.526   7.323  -0.969  0.00  0.00    +0.026 C 
BRANCH  20  22
ATOM     22  C   UNL     1      -0.853   7.888   0.798  0.00  0.00    -0.057 C 
BRANCH  22  23
ATOM     23  N   UNL     1      -0.271   7.460   2.077  0.00  0.00    +0.381 N 
ATOM     24  H   UNL     1      -1.073   7.011   2.680  0.00  0.00    -0.082 HD
BRANCH  23  25
ATOM     25  C   UNL     1       0.764   6.438   1.868  0.00  0.00    -0.079 C 
BRANCH  25  26
ATOM     26  C   UNL     1       1.883   7.016   1.000  0.00  0.00    -0.019 C 
BRANCH  26  27
ATOM     27  C   UNL     1       2.940   5.938   0.746  0.00  0.00    -0.002 C 
BRANCH  27  29
ATOM     28  C   UNL     1       5.115   5.438  -0.376  0.00  0.00    +0.004 C 
ATOM     29  C   UNL     1       4.059   6.516  -0.122  0.00  0.00    -0.003 C 
ENDBRANCH  27  29
ENDBRANCH  26  27
ENDBRANCH  25  26
ENDBRANCH  23  25
BRANCH  23  30
ATOM     30  C   UNL     1       0.266   8.607   2.822  0.00  0.00    -0.079 C 
BRANCH  30  31
ATOM     31  C   UNL     1       0.698   8.152   4.217  0.00  0.00    -0.019 C 
BRANCH  31  32
ATOM     32  C   UNL     1       1.137   9.367   5.037  0.00  0.00    -0.002 C 
BRANCH  32  33
ATOM     33  C   UNL     1       1.569   8.913   6.432  0.00  0.00    -0.003 C 
ATOM     34  C   UNL     1       2.009  10.128   7.251  0.00  0.00    +0.004 C 
ENDBRANCH  32  33
ENDBRANCH  31  32
ENDBRANCH  30  31
ENDBRANCH  23  30
ENDBRANCH  22  23
ENDBRANCH  20  22
ENDBRANCH   1  20
TORSDOF 15
