REMARK  Name = ZINC34792006
REMARK  8 active torsions:
REMARK  status: ('A' for Active; 'I' for Inactive)
REMARK    1  A    between atoms: C_1  and  C_2
REMARK    2  A    between atoms: C_5  and  C_8
REMARK    3  A    between atoms: N_13  and  C_16
REMARK    4  A    between atoms: C_16  and  C_17
REMARK    5  A    between atoms: N_19  and  C_20
REMARK    6  A    between atoms: N_23  and  C_26
REMARK    7  A    between atoms: C_26  and  C_27
REMARK    8  A    between atoms: N_33  and  C_37
REMARK                            x       y       z     vdW  Elec       q    Type
REMARK                         _______ _______ _______ _____ _____    ______ ____
ROOT
ATOM      1  C   UNL     1       0.059  -4.275  -0.021  0.00  0.00    +0.142 C 
ATOM      2  C   UNL     1       1.499  -4.725   0.129  0.00  0.00    +0.058 C 
ATOM      3  C   UNL     1       1.802  -5.520   1.175  0.00  0.00    +0.042 C 
ATOM      4  C   UNL     1       3.283  -5.808   1.076  0.00  0.00    +0.160 C 
ATOM      5  N   UNL     1       3.729  -5.087  -0.125  0.00  0.00    -0.283 N 
ATOM      6  C   UNL     1       2.651  -4.470  -0.643  0.00  0.00    +0.247 C 
ATOM      7  O   UNL     1       2.668  -3.781  -1.647  0.00  0.00    -0.270 OA
ATOM      8  N   UNL     1       0.845  -5.907   2.070  0.00  0.00    -0.260 N 
ATOM      9  C   UNL     1      -0.440  -5.540   1.985  0.00  0.00    +0.307 C 
ATOM     10  O   UNL     1      -1.221  -5.934   2.829  0.00  0.00    -0.252 OA
ATOM     11  N   UNL     1      -0.895  -4.747   0.996  0.00  0.00    -0.288 N 
ATOM     12  C   UNL     1       1.247  -6.772   3.182  0.00  0.00    +0.139 C 
ATOM     13  H   UNL     1      -1.830  -4.493   0.954  0.00  0.00    +0.151 HD
ENDROOT
BRANCH   1  18
ATOM     14  C   UNL     1      -0.018   1.503   0.010  0.00  0.00    +0.044 C 
ATOM     15  C   UNL     1       0.002  -0.004   0.002  0.00  0.00    -0.050 A 
ATOM     16  C   UNL     1       0.006  -0.689  -1.199  0.00  0.00    +0.004 A 
ATOM     17  C   UNL     1       0.025  -2.071  -1.206  0.00  0.00    +0.006 A 
ATOM     18  C   UNL     1       0.040  -2.768  -0.013  0.00  0.00    -0.023 A 
ATOM     19  C   UNL     1       0.037  -2.084   1.188  0.00  0.00    +0.006 A 
ATOM     20  C   UNL     1       0.023  -0.702   1.195  0.00  0.00    +0.004 A 
ENDBRANCH   1  18
BRANCH   5  21
ATOM     21  C   UNL     1       5.093  -5.047  -0.659  0.00  0.00    +0.204 C 
BRANCH  21  22
ATOM     22  C   UNL     1       5.284  -6.180  -1.633  0.00  0.00    +0.231 C 
ATOM     23  O   UNL     1       4.371  -6.946  -1.860  0.00  0.00    -0.274 OA
ATOM     24  N   UNL     1       6.470  -6.343  -2.253  0.00  0.00    -0.311 N 
ATOM     25  H   UNL     1       7.200  -5.731  -2.072  0.00  0.00    +0.149 HD
BRANCH  24  26
ATOM     26  C   UNL     1       6.656  -7.445  -3.201  0.00  0.00    +0.069 C 
ATOM     27  C   UNL     1       7.056  -8.712  -2.440  0.00  0.00    +0.003 C 
ATOM     28  C   UNL     1       7.326  -9.838  -3.441  0.00  0.00    -0.077 C 
ATOM     29  N   UNL     1       8.414  -9.443  -4.345  0.00  0.00    +0.382 N 
ATOM     30  C   UNL     1       8.009  -8.271  -5.129  0.00  0.00    -0.077 C 
ATOM     31  C   UNL     1       7.765  -7.085  -4.193  0.00  0.00    +0.003 C 
ATOM     32  H   UNL     1       9.234  -9.217  -3.803  0.00  0.00    -0.081 HD
BRANCH  29  33
ATOM     33  C   UNL     1       8.722 -10.556  -5.253  0.00  0.00    -0.043 C 
BRANCH  33  34
ATOM     34  C   UNL     1       9.917 -10.198  -6.098  0.00  0.00    -0.064 A 
ATOM     35  C   UNL     1       9.741  -9.556  -7.309  0.00  0.00    +0.002 A 
ATOM     36  C   UNL     1      10.837  -9.228  -8.084  0.00  0.00    +0.000 A 
ATOM     37  C   UNL     1      12.111  -9.542  -7.648  0.00  0.00    +0.000 A 
ATOM     38  C   UNL     1      12.287 -10.184  -6.436  0.00  0.00    +0.000 A 
ATOM     39  C   UNL     1      11.191 -10.508  -5.659  0.00  0.00    +0.002 A 
ENDBRANCH  33  34
ENDBRANCH  29  33
ENDBRANCH  24  26
ENDBRANCH  21  22
ENDBRANCH   5  21
TORSDOF 6
