REMARK  Name = ZINC17080261
REMARK  14 active torsions:
REMARK  status: ('A' for Active; 'I' for Inactive)
REMARK    1  A    between atoms: C_1  and  C_2
REMARK    2  A    between atoms: C_2  and  C_3
REMARK    3  A    between atoms: C_5  and  C_23
REMARK    4  A    between atoms: C_6  and  N_8
REMARK    5  A    between atoms: N_8  and  C_9
REMARK    6  A    between atoms: C_9  and  N_11
REMARK    7  A    between atoms: N_11  and  C_12
REMARK    8  A    between atoms: C_14  and  C_19
REMARK    9  A    between atoms: C_17  and  O_18
REMARK   10  A    between atoms: C_19  and  C_20
REMARK   11  A    between atoms: C_19  and  C_21
REMARK   12  A    between atoms: C_19  and  C_22
REMARK   13  A    between atoms: C_23  and  O_25
REMARK   14  A    between atoms: O_25  and  C_26
REMARK                            x       y       z     vdW  Elec       q    Type
REMARK                         _______ _______ _______ _____ _____    ______ ____
ROOT
ATOM      1  C   UNL     1      -1.550   7.110   2.150  0.00  0.00    +0.139 C 
ATOM      2  S   UNL     1      -2.656   7.442   3.415  0.00  0.00    -0.018 S 
ENDROOT
BRANCH   1   3
ATOM      3  N   UNL     1      -1.314   5.836   1.778  0.00  0.00    -0.291 N 
ATOM      4  H   UNL     1      -0.688   5.649   1.062  0.00  0.00    +0.154 HD
BRANCH   3   8
ATOM      5  C   UNL     1      -3.435   3.142   3.938  0.00  0.00    -0.008 A 
ATOM      6  C   UNL     1      -2.652   2.559   3.014  0.00  0.00    +0.028 A 
ATOM      7  C   UNL     1      -1.853   3.429   2.182  0.00  0.00    +0.088 A 
ATOM      8  C   UNL     1      -1.964   4.795   2.420  0.00  0.00    +0.085 A 
ATOM      9  S   UNL     1      -3.115   4.879   3.712  0.00  0.00    -0.078 S 
BRANCH   5  11
ATOM     10  C   UNL     1      -3.596   2.188   6.222  0.00  0.00    +0.009 C 
ATOM     11  C   UNL     1      -4.360   2.484   4.929  0.00  0.00    +0.039 C 
ENDBRANCH   5  11
BRANCH   7  12
ATOM     12  C   UNL     1      -0.967   2.900   1.144  0.00  0.00    +0.341 C 
ATOM     13  O   UNL     1      -0.308   3.660   0.461  0.00  0.00    -0.245 OA
BRANCH  12  14
ATOM     14  O   UNL     1      -0.882   1.568   0.946  0.00  0.00    -0.464 OA
ATOM     15  C   UNL     1       0.017   1.114  -0.100  0.00  0.00    +0.280 C 
ENDBRANCH  12  14
ENDBRANCH   7  12
ENDBRANCH   3   8
ENDBRANCH   1   3
BRANCH   1  16
ATOM     16  N   UNL     1      -0.917   8.123   1.526  0.00  0.00    -0.294 N 
ATOM     17  H   UNL     1      -0.245   7.933   0.852  0.00  0.00    +0.154 HD
BRANCH  16  18
ATOM     18  C   UNL     1      -1.230   9.450   1.849  0.00  0.00    +0.075 A 
ATOM     19  C   UNL     1      -1.307   9.842   3.177  0.00  0.00    +0.031 A 
ATOM     20  C   UNL     1      -1.616  11.152   3.494  0.00  0.00    -0.040 A 
ATOM     21  C   UNL     1      -1.848  12.073   2.489  0.00  0.00    +0.008 A 
ATOM     22  C   UNL     1      -1.773  11.689   1.163  0.00  0.00    +0.047 A 
ATOM     23  C   UNL     1      -1.458  10.380   0.837  0.00  0.00    +0.138 A 
BRANCH  20  24
ATOM     24  C   UNL     1      -1.699  11.576   4.937  0.00  0.00    -0.013 C 
ATOM     25  C   UNL     1      -0.349  11.339   5.617  0.00  0.00    +0.015 C 
ATOM     26  C   UNL     1      -2.053  13.063   5.012  0.00  0.00    +0.015 C 
ATOM     27  C   UNL     1      -2.779  10.759   5.648  0.00  0.00    +0.015 C 
ENDBRANCH  20  24
BRANCH  23  28
ATOM     28  O   UNL     1      -1.378  10.002  -0.467  0.00  0.00    -0.505 OA
ATOM     29  H   UNL     1      -2.215   9.689  -0.837  0.00  0.00    +0.292 HD
ENDBRANCH  23  28
ENDBRANCH  16  18
ENDBRANCH   1  16
TORSDOF 9
