REMARK  Name = ZINC12464188
REMARK  8 active torsions:
REMARK  status: ('A' for Active; 'I' for Inactive)
REMARK    1  A    between atoms: C_1  and  C_2
REMARK    2  A    between atoms: C_2  and  O_3
REMARK    3  A    between atoms: O_3  and  C_4
REMARK    4  A    between atoms: C_6  and  C_12
REMARK    5  A    between atoms: C_9  and  O_10
REMARK    6  A    between atoms: C_14  and  C_21
REMARK    7  A    between atoms: C_15  and  C_20
REMARK    8  A    between atoms: N_23  and  C_24
REMARK                            x       y       z     vdW  Elec       q    Type
REMARK                         _______ _______ _______ _____ _____    ______ ____
ROOT
ATOM      1  C   UNL     1       0.841  -0.310   0.000  0.00  0.00    +0.142 C 
ATOM      2  C   UNL     1       0.964  -0.811  -1.425  0.00  0.00    +0.056 C 
ATOM      3  C   UNL     1       2.071  -1.509  -1.752  0.00  0.00    +0.019 C 
ATOM      4  N   UNL     1       3.048  -1.756  -0.829  0.00  0.00    -0.273 N 
ATOM      5  C   UNL     1       2.991  -1.337   0.442  0.00  0.00    +0.304 C 
ATOM      6  O   UNL     1       3.911  -1.604   1.191  0.00  0.00    -0.252 OA
ATOM      7  N   UNL     1       1.948  -0.629   0.917  0.00  0.00    -0.288 N 
ATOM      8  C   UNL     1       2.233  -2.026  -3.158  0.00  0.00    +0.061 C 
ATOM      9  H   UNL     1       3.826  -2.262  -1.110  0.00  0.00    +0.156 HD
ATOM     10  H   UNL     1       1.927  -0.336   1.842  0.00  0.00    +0.151 HD
ENDROOT
BRANCH   1  13
ATOM     11  C   UNL     1      -0.665   3.148   0.208  0.00  0.00    +0.163 A 
ATOM     12  C   UNL     1      -0.528   1.770   0.245  0.00  0.00    +0.055 A 
ATOM     13  C   UNL     1       0.692   1.189  -0.046  0.00  0.00    -0.018 A 
ATOM     14  C   UNL     1       1.775   1.979  -0.383  0.00  0.00    +0.025 A 
ATOM     15  C   UNL     1       1.644   3.355  -0.427  0.00  0.00    +0.063 A 
ATOM     16  C   UNL     1       0.424   3.944  -0.132  0.00  0.00    +0.173 A 
ATOM     17 BR   UNL     1       3.127   4.433  -0.890  0.00  0.00    -0.046 Br
BRANCH  16  18
ATOM     18  O   UNL     1       0.292   5.298  -0.174  0.00  0.00    -0.503 OA
ATOM     19  H   UNL     1       0.025   5.640  -1.038  0.00  0.00    +0.292 HD
ENDBRANCH  16  18
BRANCH  11  20
ATOM     20  O   UNL     1      -1.864   3.722   0.498  0.00  0.00    -0.489 OA
BRANCH  20  22
ATOM     21  C   UNL     1      -4.193   3.663   1.141  0.00  0.00    +0.048 C 
ATOM     22  C   UNL     1      -2.924   2.846   0.888  0.00  0.00    +0.226 C 
ENDBRANCH  20  22
ENDBRANCH  11  20
ENDBRANCH   1  13
BRANCH   2  23
ATOM     23  C   UNL     1      -0.050  -0.555  -2.381  0.00  0.00    +0.248 C 
ATOM     24  O   UNL     1      -1.003  -1.308  -2.474  0.00  0.00    -0.270 OA
ATOM     25  N   UNL     1       0.040   0.521  -3.187  0.00  0.00    -0.282 N 
ATOM     26  H   UNL     1       0.729   1.187  -3.032  0.00  0.00    +0.155 HD
BRANCH  25  27
ATOM     27  C   UNL     1      -0.858   0.678  -4.247  0.00  0.00    +0.034 A 
ATOM     28  C   UNL     1      -2.109   0.076  -4.194  0.00  0.00    +0.023 A 
ATOM     29  C   UNL     1      -2.996   0.237  -5.241  0.00  0.00    +0.002 A 
ATOM     30  C   UNL     1      -2.635   0.987  -6.345  0.00  0.00    +0.000 A 
ATOM     31  C   UNL     1      -1.389   1.583  -6.403  0.00  0.00    +0.002 A 
ATOM     32  C   UNL     1      -0.499   1.430  -5.358  0.00  0.00    +0.023 A 
ENDBRANCH  25  27
ENDBRANCH   2  23
TORSDOF 6
