REMARK  Name = ZINC31671160
REMARK  6 active torsions:
REMARK  status: ('A' for Active; 'I' for Inactive)
REMARK    1  A    between atoms: C_1  and  C_2
REMARK    2  A    between atoms: C_3  and  C_14
REMARK    3  A    between atoms: N_5  and  C_7
REMARK    4  A    between atoms: N_16  and  N_17
REMARK    5  A    between atoms: C_21  and  C_29
REMARK    6  A    between atoms: N_22  and  C_23
REMARK                            x       y       z     vdW  Elec       q    Type
REMARK                         _______ _______ _______ _____ _____    ______ ____
ROOT
ATOM      1  N   UNL     1      -1.190   0.248  -4.517  0.00  0.00    -0.232 N 
ATOM      2  C   UNL     1      -2.395   0.444  -5.170  0.00  0.00    +0.238 A 
ATOM      3  N   UNL     1      -3.594   0.271  -4.662  0.00  0.00    -0.111 NA
ATOM      4  N   UNL     1      -4.490   0.542  -5.541  0.00  0.00    -0.127 NA
ATOM      5  C   UNL     1      -3.920   0.906  -6.666  0.00  0.00    +0.170 A 
ATOM      6  N   UNL     1      -2.559   0.860  -6.462  0.00  0.00    -0.262 N 
ATOM      7  H   UNL     1      -0.354   0.409  -4.982  0.00  0.00    +0.173 HD
ENDROOT
BRANCH   6   8
ATOM      8  C   UNL     1      -1.552   1.172  -7.386  0.00  0.00    +0.051 A 
ATOM      9  C   UNL     1      -1.414   2.472  -7.853  0.00  0.00    +0.026 A 
ATOM     10  C   UNL     1      -0.421   2.776  -8.763  0.00  0.00    +0.002 A 
ATOM     11  C   UNL     1       0.436   1.787  -9.210  0.00  0.00    +0.000 A 
ATOM     12  C   UNL     1       0.301   0.491  -8.747  0.00  0.00    +0.002 A 
ATOM     13  C   UNL     1      -0.686   0.182  -7.832  0.00  0.00    +0.026 A 
ENDBRANCH   6   8
BRANCH   5  14
ATOM     14  C   UNL     1      -4.609   1.296  -7.915  0.00  0.00    +0.020 A 
ATOM     15  C   UNL     1      -3.902   1.352  -9.117  0.00  0.00    +0.011 A 
ATOM     16  C   UNL     1      -4.551   1.717 -10.278  0.00  0.00    +0.001 A 
ATOM     17  C   UNL     1      -5.899   2.028 -10.253  0.00  0.00    +0.000 A 
ATOM     18  C   UNL     1      -6.605   1.975  -9.065  0.00  0.00    +0.001 A 
ATOM     19  C   UNL     1      -5.970   1.605  -7.897  0.00  0.00    +0.011 A 
ENDBRANCH   5  14
BRANCH   1  22
ATOM     20  C   UNL     1      -0.005  -0.374  -2.548  0.00  0.00    +0.265 C 
ATOM     21  O   UNL     1       1.043  -0.173  -3.132  0.00  0.00    -0.268 OA
ATOM     22  N   UNL     1      -1.178  -0.183  -3.184  0.00  0.00    -0.230 N 
ATOM     23  H   UNL     1      -2.014  -0.344  -2.719  0.00  0.00    +0.173 HD
BRANCH  20  26
ATOM     24  C   UNL     1      -0.018   1.503   0.010  0.00  0.00    +0.068 C 
ATOM     25  C   UNL     1       0.002  -0.004   0.002  0.00  0.00    +0.074 A 
ATOM     26  C   UNL     1       0.008  -0.828  -1.147  0.00  0.00    +0.098 A 
ATOM     27  C   UNL     1       0.028  -2.139  -0.708  0.00  0.00    +0.145 A 
ATOM     28  N   UNL     1       0.034  -2.111   0.638  0.00  0.00    -0.220 N 
ATOM     29  N   UNL     1       0.023  -0.775   1.054  0.00  0.00    -0.170 NA
ATOM     30 CL   UNL     1       0.043  -3.558  -1.708  0.00  0.00    -0.061 Cl
BRANCH  28  31
ATOM     31  C   UNL     1       0.053  -3.232   1.480  0.00  0.00    +0.067 A 
ATOM     32  C   UNL     1      -0.617  -4.390   1.112  0.00  0.00    +0.028 A 
ATOM     33  C   UNL     1      -0.596  -5.493   1.944  0.00  0.00    +0.002 A 
ATOM     34  C   UNL     1       0.092  -5.443   3.142  0.00  0.00    +0.000 A 
ATOM     35  C   UNL     1       0.760  -4.290   3.512  0.00  0.00    +0.002 A 
ATOM     36  C   UNL     1       0.748  -3.187   2.682  0.00  0.00    +0.028 A 
ENDBRANCH  28  31
ENDBRANCH  20  26
ENDBRANCH   1  22
TORSDOF 5
