REMARK  Name = ZINC41485804
REMARK  3 active torsions:
REMARK  status: ('A' for Active; 'I' for Inactive)
REMARK    1  A    between atoms: C_1  and  O_2
REMARK    2  A    between atoms: O_2  and  C_3
REMARK    3  A    between atoms: C_8  and  C_9
REMARK                            x       y       z     vdW  Elec       q    Type
REMARK                         _______ _______ _______ _____ _____    ______ ____
ROOT
ATOM      1  C   UNL     1       0.067  -2.830   0.032  0.00  0.00    +0.057 A 
ATOM      2  C   UNL     1      -0.783  -3.870   0.345  0.00  0.00    +0.069 A 
ATOM      3  C   UNL     1      -1.348  -4.618  -0.700  0.00  0.00    +0.124 A 
ATOM      4  N   UNL     1      -1.057  -4.315  -1.960  0.00  0.00    -0.179 NA
ATOM      5  C   UNL     1      -0.236  -3.310  -2.254  0.00  0.00    +0.348 A 
ATOM      6  O   UNL     1       0.008  -3.060  -3.423  0.00  0.00    -0.245 OA
ATOM      7  N   UNL     1       0.326  -2.560  -1.289  0.00  0.00    -0.306 N 
ATOM      8  H   UNL     1       0.919  -1.830  -1.527  0.00  0.00    +0.170 HD
ATOM      9  N   UNL     1      -2.200  -5.663  -0.420  0.00  0.00    -0.343 N 
ATOM     10  H   UNL     1      -2.411  -5.884   0.500  0.00  0.00    +0.144 HD
ATOM     11  H   UNL     1      -2.589  -6.179  -1.144  0.00  0.00    +0.144 HD
ENDROOT
BRANCH   1  17
ATOM     12  C   UNL     1       0.514  -0.625   1.110  0.00  0.00    +0.129 A 
ATOM     13  C   UNL     1       1.092   0.129   2.120  0.00  0.00    +0.047 A 
ATOM     14  C   UNL     1       1.835  -0.489   3.107  0.00  0.00    +0.019 A 
ATOM     15  C   UNL     1       2.010  -1.863   3.096  0.00  0.00    +0.019 A 
ATOM     16  C   UNL     1       1.442  -2.628   2.099  0.00  0.00    +0.028 A 
ATOM     17  C   UNL     1       0.683  -2.016   1.099  0.00  0.00    +0.041 A 
ATOM     18 BR   UNL     1       3.032  -2.694   4.453  0.00  0.00    -0.050 Br
BRANCH  12  20
ATOM     19  C   UNL     1      -0.346   1.401   0.217  0.00  0.00    +0.277 C 
ATOM     20  O   UNL     1      -0.217  -0.020   0.140  0.00  0.00    -0.494 OA
ENDBRANCH  12  20
ENDBRANCH   1  17
TORSDOF 2
