REMARK  Name = ZINC21659078
REMARK  7 active torsions:
REMARK  status: ('A' for Active; 'I' for Inactive)
REMARK    1  A    between atoms: C_1  and  C_2
REMARK    2  A    between atoms: C_7  and  C_8
REMARK    3  A    between atoms: C_20  and  C_22
REMARK    4  A    between atoms: C_26  and  O_29
REMARK    5  A    between atoms: C_27  and  O_28
REMARK    6  A    between atoms: N_30  and  C_37
REMARK    7  A    between atoms: N_33  and  C_36
REMARK                            x       y       z     vdW  Elec       q    Type
REMARK                         _______ _______ _______ _____ _____    ______ ____
ROOT
ATOM      1  C   UNL     1       0.301   2.223   4.801  0.00  0.00    +0.069 A 
ATOM      2  C   UNL     1      -0.649   2.231   3.810  0.00  0.00    +0.089 A 
ATOM      3  C   UNL     1       0.027   1.764   2.574  0.00  0.00    +0.082 A 
ATOM      4  C   UNL     1       1.290   1.531   2.897  0.00  0.00    +0.073 A 
ATOM      5  N   UNL     1       1.466   1.789   4.250  0.00  0.00    -0.306 N 
ATOM      6  C   UNL     1       2.713   1.612   4.866  0.00  0.00    +0.068 A 
ATOM      7  C   UNL     1       2.970   2.097   6.134  0.00  0.00    +0.028 A 
ATOM      8  C   UNL     1       4.221   1.919   6.697  0.00  0.00    +0.002 A 
ATOM      9  C   UNL     1       5.211   1.258   5.993  0.00  0.00    +0.002 A 
ATOM     10  C   UNL     1       4.959   0.762   4.727  0.00  0.00    +0.025 A 
ATOM     11  C   UNL     1       3.706   0.928   4.157  0.00  0.00    +0.052 A 
ATOM     12  N   UNL     1       3.430   0.415   2.885  0.00  0.00    -0.330 N 
ATOM     13  C   UNL     1       2.438   1.076   2.022  0.00  0.00    +0.154 C 
ATOM     14  N   UNL     1      -0.720   1.670   1.390  0.00  0.00    -0.294 N 
ATOM     15  C   UNL     1      -2.022   2.025   1.449  0.00  0.00    +0.332 A 
ATOM     16  O   UNL     1      -2.667   1.950   0.421  0.00  0.00    -0.246 OA
ATOM     17  N   UNL     1      -2.663   2.445   2.545  0.00  0.00    -0.263 N 
ATOM     18  C   UNL     1      -2.072   2.583   3.759  0.00  0.00    +0.266 A 
ATOM     19  O   UNL     1      -2.681   2.971   4.738  0.00  0.00    -0.267 OA
ATOM     20  C   UNL     1      -4.084   2.783   2.426  0.00  0.00    +0.157 C 
ATOM     21  C   UNL     1      -0.111   1.212   0.138  0.00  0.00    +0.154 C 
ATOM     22  H   UNL     1       3.956  -0.483   2.530  0.00  0.00    +0.147 HD
ENDROOT
BRANCH   1  29
ATOM     23  C   UNL     1      -0.526   0.233   6.732  0.00  0.00    +0.044 C 
ATOM     24  C   UNL     1      -0.304   1.663   7.151  0.00  0.00    -0.041 A 
ATOM     25  C   UNL     1      -0.489   2.035   8.466  0.00  0.00    +0.004 A 
ATOM     26  C   UNL     1      -0.292   3.349   8.852  0.00  0.00    +0.000 A 
ATOM     27  C   UNL     1       0.098   4.298   7.923  0.00  0.00    +0.001 A 
ATOM     28  C   UNL     1       0.292   3.940   6.606  0.00  0.00    +0.010 A 
ATOM     29  C   UNL     1       0.095   2.615   6.209  0.00  0.00    +0.003 A 
ENDBRANCH   1  29
BRANCH  13  30
ATOM     30  C   UNL     1       3.065   2.266   1.343  0.00  0.00    +0.024 A 
ATOM     31  C   UNL     1       2.809   3.543   1.811  0.00  0.00    +0.009 A 
ATOM     32  C   UNL     1       3.383   4.636   1.191  0.00  0.00    +0.004 A 
ATOM     33  C   UNL     1       4.215   4.460   0.101  0.00  0.00    +0.049 A 
ATOM     34  C   UNL     1       4.475   3.184  -0.372  0.00  0.00    +0.159 A 
ATOM     35  C   UNL     1       3.901   2.082   0.255  0.00  0.00    +0.164 A 
BRANCH  35  36
ATOM     36  O   UNL     1       4.158   0.827  -0.202  0.00  0.00    -0.503 OA
ATOM     37  H   UNL     1       4.823   0.682  -1.067  0.00  0.00    +0.292 HD
ENDBRANCH  35  36
BRANCH  34  38
ATOM     38  O   UNL     1       5.293   3.008  -1.444  0.00  0.00    -0.503 OA
ATOM     39  H   UNL     1       5.499   1.995  -1.819  0.00  0.00    +0.292 HD
ENDBRANCH  34  38
ENDBRANCH  13  30
TORSDOF 4
