REMARK  Name = ZINC13499586
REMARK  12 active torsions:
REMARK  status: ('A' for Active; 'I' for Inactive)
REMARK    1  A    between atoms: C_1  and  C_2
REMARK    2  A    between atoms: C_2  and  C_3
REMARK    3  A    between atoms: C_3  and  C_4
REMARK    4  A    between atoms: C_4  and  C_6
REMARK    5  A    between atoms: C_4  and  N_75
REMARK    6  A    between atoms: N_10  and  C_11
REMARK    7  A    between atoms: C_11  and  C_12
REMARK    8  A    between atoms: C_18  and  C_19
REMARK    9  A    between atoms: C_18  and  N_75
REMARK   10  A    between atoms: C_22  and  C_32
REMARK   11  A    between atoms: C_24  and  C_31
REMARK   12  A    between atoms: C_33  and  N_75
REMARK                            x       y       z     vdW  Elec       q    Type
REMARK                         _______ _______ _______ _____ _____    ______ ____
ROOT
ATOM      1  N   UNL     1      -0.314   2.830   1.328  0.00  0.00    +0.391 N 
ATOM      2  H   UNL     1      -0.499   3.265   2.239  0.00  0.00    -0.080 HD
ENDROOT
BRANCH   1   3
ATOM      3  C   UNL     1       1.124   2.967   1.014  0.00  0.00    -0.067 C 
ATOM      4  C   UNL     1       1.479   2.160  -0.237  0.00  0.00    -0.015 C 
ATOM      5  C   UNL     1       2.971   2.315  -0.537  0.00  0.00    -0.002 C 
ATOM      6  C   UNL     1       3.787   1.801   0.651  0.00  0.00    -0.000 C 
ATOM      7  C   UNL     1       3.432   2.608   1.901  0.00  0.00    -0.002 C 
ATOM      8  C   UNL     1       1.940   2.453   2.201  0.00  0.00    -0.015 C 
ENDBRANCH   1   3
BRANCH   1   9
ATOM      9  C   UNL     1      -0.683   1.401   1.393  0.00  0.00    +0.003 C 
BRANCH   9  10
ATOM     10  C   UNL     1      -0.790   0.819   0.007  0.00  0.00    +0.138 A 
ATOM     11  N   UNL     1      -1.465   1.316  -1.000  0.00  0.00    -0.115 NA
ATOM     12  N   UNL     1      -1.307   0.533  -2.010  0.00  0.00    -0.023 NA
ATOM     13  N   UNL     1      -0.554  -0.455  -1.672  0.00  0.00    -0.044 NA
ATOM     14  N   UNL     1      -0.215  -0.315  -0.435  0.00  0.00    -0.226 N 
BRANCH  14  15
ATOM     15  C   UNL     1       0.636  -1.219   0.342  0.00  0.00    +0.182 C 
BRANCH  15  16
ATOM     16  C   UNL     1      -0.220  -2.267   1.006  0.00  0.00    -0.026 A 
ATOM     17  C   UNL     1      -0.730  -2.042   2.272  0.00  0.00    +0.005 A 
ATOM     18  C   UNL     1      -1.519  -3.001   2.879  0.00  0.00    +0.000 A 
ATOM     19  C   UNL     1      -1.789  -4.189   2.226  0.00  0.00    +0.000 A 
ATOM     20  C   UNL     1      -1.275  -4.416   0.963  0.00  0.00    +0.000 A 
ATOM     21  C   UNL     1      -0.490  -3.455   0.353  0.00  0.00    +0.005 A 
ENDBRANCH  15  16
ENDBRANCH  14  15
ENDBRANCH   9  10
BRANCH   9  22
ATOM     22  C   UNL     1      -2.031   1.274   2.105  0.00  0.00    -0.008 C 
BRANCH  22  24
ATOM     23  C   UNL     1      -3.260   1.728   4.233  0.00  0.00    +0.004 C 
ATOM     24  C   UNL     1      -1.889   1.742   3.555  0.00  0.00    -0.005 C 
ENDBRANCH  22  24
ENDBRANCH   9  22
ENDBRANCH   1   9
BRANCH   1  25
ATOM     25  C   UNL     1      -1.123   3.514   0.297  0.00  0.00    -0.036 C 
BRANCH  25  26
ATOM     26  C   UNL     1      -1.022   5.002   0.511  0.00  0.00    +0.001 A 
ATOM     27  C   UNL     1      -0.126   5.728  -0.202  0.00  0.00    +0.017 A 
ATOM     28  C   UNL     1      -0.056   7.173   0.026  0.00  0.00    +0.002 A 
ATOM     29  C   UNL     1       0.845   7.975  -0.683  0.00  0.00    -0.041 A 
ATOM     30  C   UNL     1       0.888   9.319  -0.443  0.00  0.00    +0.007 A 
ATOM     31  C   UNL     1       0.047   9.896   0.499  0.00  0.00    -0.048 A 
ATOM     32  C   UNL     1      -0.848   9.126   1.209  0.00  0.00    +0.029 A 
ATOM     33  C   UNL     1      -0.910   7.755   0.982  0.00  0.00    +0.050 A 
ATOM     34  N   UNL     1      -1.796   6.960   1.678  0.00  0.00    -0.322 N 
ATOM     35  H   UNL     1      -2.384   7.362   2.336  0.00  0.00    +0.169 HD
ATOM     36  C   UNL     1      -1.857   5.635   1.458  0.00  0.00    +0.251 A 
ATOM     37  O   UNL     1      -2.652   4.963   2.091  0.00  0.00    -0.268 OA
ATOM     38  C   UNL     1       0.113  11.381   0.747  0.00  0.00    +0.044 C 
ATOM     39  C   UNL     1       1.763   7.358  -1.706  0.00  0.00    +0.044 C 
ENDBRANCH  25  26
ENDBRANCH   1  25
TORSDOF 9
