REMARK  Name = ZINC15773604
REMARK  4 active torsions:
REMARK  status: ('A' for Active; 'I' for Inactive)
REMARK    1  A    between atoms: C_3  and  N_10
REMARK    2  A    between atoms: C_5  and  N_7
REMARK    3  A    between atoms: C_11  and  C_13
REMARK    4  A    between atoms: N_15  and  N_16
REMARK                            x       y       z     vdW  Elec       q    Type
REMARK                         _______ _______ _______ _____ _____    ______ ____
ROOT
ATOM      1  C   UNL     1       4.849   4.220  -0.237  0.00  0.00    +0.318 C 
ATOM      2  O   UNL     1       5.905   3.623  -0.250  0.00  0.00    -0.263 OA
ATOM      3  N   UNL     1       4.834   5.565  -0.332  0.00  0.00    -0.198 N 
ATOM      4  H   UNL     1       3.990   6.042  -0.321  0.00  0.00    +0.178 HD
ENDROOT
BRANCH   3   5
ATOM      5  N   UNL     1       6.037   6.272  -0.446  0.00  0.00    -0.174 NA
ATOM      6  C   UNL     1       6.023   7.580  -0.538  0.00  0.00    +0.153 C 
ATOM      7  C   UNL     1       7.185   8.489  -0.670  0.00  0.00    +0.029 A 
ATOM      8  C   UNL     1       8.558   8.275  -0.733  0.00  0.00    +0.027 A 
ATOM      9  C   UNL     1       9.414   9.352  -0.858  0.00  0.00    +0.019 A 
ATOM     10  C   UNL     1       8.905  10.639  -0.920  0.00  0.00    +0.017 A 
ATOM     11  C   UNL     1       7.544  10.860  -0.858  0.00  0.00    +0.025 A 
ATOM     12  C   UNL     1       6.667   9.789  -0.733  0.00  0.00    +0.043 A 
ATOM     13  N   UNL     1       5.279   9.735  -0.649  0.00  0.00    -0.280 N 
ATOM     14  C   UNL     1       4.842   8.469  -0.539  0.00  0.00    +0.269 C 
ATOM     15  O   UNL     1       3.681   8.117  -0.454  0.00  0.00    -0.268 OA
ATOM     16 BR   UNL     1      11.281   9.069  -0.945  0.00  0.00    -0.050 Br
ATOM     17  H   UNL     1       4.700  10.513  -0.671  0.00  0.00    +0.155 HD
ENDBRANCH   3   5
BRANCH   1  19
ATOM     18  N   UNL     1       3.583   2.122  -0.021  0.00  0.00    -0.278 N 
ATOM     19  C   UNL     1       3.567   3.466  -0.116  0.00  0.00    +0.305 C 
ATOM     20  O   UNL     1       2.511   4.064  -0.103  0.00  0.00    -0.265 OA
ATOM     21  H   UNL     1       4.427   1.650   0.045  0.00  0.00    +0.155 HD
BRANCH  18  24
ATOM     22  C   UNL     1       0.112   1.159  -0.753  0.00  0.00    +0.004 A 
ATOM     23  C   UNL     1       1.298   1.867  -0.757  0.00  0.00    +0.023 A 
ATOM     24  C   UNL     1       2.381   1.408  -0.019  0.00  0.00    +0.036 A 
ATOM     25  C   UNL     1       2.268   0.238   0.721  0.00  0.00    +0.056 A 
ATOM     26  C   UNL     1       1.080  -0.465   0.721  0.00  0.00    +0.128 A 
ATOM     27  C   UNL     1       0.003  -0.006  -0.015  0.00  0.00    +0.033 A 
BRANCH  26  28
ATOM     28  N   UNL     1       0.959  -1.713   1.509  0.00  0.00    +0.056 N 
ATOM     29  O   UNL     1       1.900  -2.115   2.152  0.00  0.00    -0.126 OA
ATOM     30  O   UNL     1      -0.081  -2.329   1.509  0.00  0.00    -0.126 OA
ENDBRANCH  26  28
ENDBRANCH  18  24
ENDBRANCH   1  19
TORSDOF 4
