REMARK  Name = ZINC09442526
REMARK  8 active torsions:
REMARK  status: ('A' for Active; 'I' for Inactive)
REMARK    1  A    between atoms: C_1  and  C_2
REMARK    2  A    between atoms: C_4  and  C_31
REMARK    3  A    between atoms: C_9  and  N_12
REMARK    4  A    between atoms: N_12  and  N_13
REMARK    5  A    between atoms: C_14  and  C_16
REMARK    6  A    between atoms: C_21  and  N_22
REMARK    7  A    between atoms: N_22  and  S_23
REMARK    8  A    between atoms: S_23  and  C_26
REMARK                            x       y       z     vdW  Elec       q    Type
REMARK                         _______ _______ _______ _____ _____    ______ ____
ROOT
ATOM      1  N   UNL     1       0.148  -1.567   4.035  0.00  0.00    -0.232 N 
ATOM      2  C   UNL     1       0.253  -1.366   5.363  0.00  0.00    +0.262 C 
ATOM      3  O   UNL     1       0.269  -2.316   6.122  0.00  0.00    -0.269 OA
ATOM      4  H   UNL     1       0.135  -0.810   3.429  0.00  0.00    +0.173 HD
ENDROOT
BRANCH   2   5
ATOM      5  C   UNL     1       0.348   0.005   5.896  0.00  0.00    +0.063 A 
ATOM      6  C   UNL     1       0.324   1.100   5.028  0.00  0.00    +0.015 A 
ATOM      7  C   UNL     1       0.413   2.379   5.532  0.00  0.00    +0.001 A 
ATOM      8  C   UNL     1       0.526   2.587   6.897  0.00  0.00    +0.002 A 
ATOM      9  C   UNL     1       0.551   1.517   7.768  0.00  0.00    +0.027 A 
ATOM     10  C   UNL     1       0.458   0.220   7.279  0.00  0.00    +0.086 A 
BRANCH  10  11
ATOM     11  N   UNL     1       0.477  -0.859   8.153  0.00  0.00    -0.097 NA
BRANCH  11  12
ATOM     12  S   UNL     1       0.607  -0.601   9.784  0.00  0.00    +0.098 S 
ATOM     13  O   UNL     1       1.895  -0.045  10.006  0.00  0.00    -0.148 OA
ATOM     14  O   UNL     1      -0.587   0.056  10.187  0.00  0.00    -0.148 OA
BRANCH  12  15
ATOM     15  C   UNL     1       0.599  -2.181  10.563  0.00  0.00    +0.148 A 
ATOM     16  C   UNL     1       1.645  -2.987  10.869  0.00  0.00    +0.037 A 
ATOM     17  C   UNL     1       1.399  -4.198  11.489  0.00  0.00    +0.010 A 
ATOM     18  C   UNL     1       0.120  -4.544  11.771  0.00  0.00    +0.047 A 
ATOM     19  S   UNL     1      -0.788  -3.133  11.162  0.00  0.00    -0.077 S 
ENDBRANCH  12  15
ENDBRANCH  11  12
ENDBRANCH  10  11
ENDBRANCH   2   5
BRANCH   1  20
ATOM     20  N   UNL     1       0.057  -2.870   3.528  0.00  0.00    -0.259 N 
ATOM     21  H   UNL     1      -0.016  -3.623   4.136  0.00  0.00    +0.170 HD
BRANCH  20  30
ATOM     22  C   UNL     1       0.988   1.418   0.028  0.00  0.00    +0.044 C 
ATOM     23  C   UNL     1       0.715  -0.064   0.015  0.00  0.00    -0.049 A 
ATOM     24  C   UNL     1       0.638  -0.740  -1.192  0.00  0.00    +0.008 A 
ATOM     25  C   UNL     1       0.388  -2.102  -1.230  0.00  0.00    -0.028 A 
ATOM     26  C   UNL     1       0.210  -2.813  -0.046  0.00  0.00    +0.046 A 
ATOM     27  N   UNL     1      -0.043  -4.132   0.189  0.00  0.00    -0.280 N 
ATOM     28  C   UNL     1      -0.140  -4.378   1.483  0.00  0.00    +0.264 C 
ATOM     29  O   UNL     1      -0.360  -5.460   1.996  0.00  0.00    -0.268 OA
ATOM     30  C   UNL     1       0.072  -3.077   2.209  0.00  0.00    +0.116 C 
ATOM     31  C   UNL     1       0.289  -2.119   1.189  0.00  0.00    +0.024 A 
ATOM     32  C   UNL     1       0.548  -0.743   1.206  0.00  0.00    +0.015 A 
ATOM     33  C   UNL     1       0.308  -2.816  -2.555  0.00  0.00    +0.046 C 
ATOM     34  H   UNL     1      -0.140  -4.803  -0.504  0.00  0.00    +0.155 HD
ENDBRANCH  20  30
ENDBRANCH   1  20
TORSDOF 6
