REMARK  Name = ZINC08592251
REMARK  8 active torsions:
REMARK  status: ('A' for Active; 'I' for Inactive)
REMARK    1  A    between atoms: C_1  and  C_2
REMARK    2  A    between atoms: C_5  and  N_9
REMARK    3  A    between atoms: C_6  and  C_8
REMARK    4  A    between atoms: C_10  and  C_12
REMARK    5  A    between atoms: C_13  and  C_31
REMARK    6  A    between atoms: C_20  and  C_22
REMARK    7  A    between atoms: C_27  and  O_28
REMARK    8  A    between atoms: O_28  and  C_29
REMARK                            x       y       z     vdW  Elec       q    Type
REMARK                         _______ _______ _______ _____ _____    ______ ____
ROOT
ATOM      1  C   UNL     1       0.148  -6.247  -1.001  0.00  0.00    +0.060 C 
ATOM      2  C   UNL     1       0.224  -6.960  -2.135  0.00  0.00    +0.018 C 
ATOM      3  N   UNL     1       0.290  -8.332  -2.136  0.00  0.00    -0.286 N 
ATOM      4  C   UNL     1       0.535  -8.959  -0.923  0.00  0.00    +0.240 A 
ATOM      5  N   UNL     1       0.856 -10.191  -0.648  0.00  0.00    -0.092 NA
ATOM      6  N   UNL     1       0.996 -10.344   0.624  0.00  0.00    -0.021 NA
ATOM      7  N   UNL     1       0.773  -9.228   1.239  0.00  0.00    -0.042 NA
ATOM      8  N   UNL     1       0.463  -8.290   0.257  0.00  0.00    -0.201 N 
ATOM      9  C   UNL     1       0.122  -6.877   0.366  0.00  0.00    +0.182 C 
ATOM     10  C   UNL     1       0.237  -6.230  -3.453  0.00  0.00    +0.061 C 
ATOM     11  H   UNL     1       0.171  -8.842  -2.952  0.00  0.00    +0.155 HD
ENDROOT
BRANCH   9  12
ATOM     12  C   UNL     1      -1.258  -6.742   0.956  0.00  0.00    +0.023 A 
ATOM     13  C   UNL     1      -2.343  -7.307   0.313  0.00  0.00    +0.011 A 
ATOM     14  C   UNL     1      -3.610  -7.184   0.852  0.00  0.00    +0.016 A 
ATOM     15  C   UNL     1      -3.795  -6.494   2.037  0.00  0.00    +0.021 A 
ATOM     16  C   UNL     1      -2.713  -5.926   2.684  0.00  0.00    +0.061 A 
ATOM     17  C   UNL     1      -1.440  -6.055   2.147  0.00  0.00    +0.127 A 
ATOM     18 BR   UNL     1      -5.529  -6.326   2.772  0.00  0.00    -0.050 Br
BRANCH  17  19
ATOM     19  O   UNL     1      -0.374  -5.503   2.784  0.00  0.00    -0.495 OA
ATOM     20  C   UNL     1      -0.636  -4.810   4.006  0.00  0.00    +0.277 C 
ENDBRANCH  17  19
ENDBRANCH   9  12
BRANCH   1  22
ATOM     21  N   UNL     1       1.186  -4.146  -1.482  0.00  0.00    -0.281 N 
ATOM     22  C   UNL     1       0.096  -4.837  -1.095  0.00  0.00    +0.248 C 
ATOM     23  O   UNL     1      -0.934  -4.246  -0.824  0.00  0.00    -0.270 OA
ATOM     24  H   UNL     1       1.981  -4.619  -1.776  0.00  0.00    +0.155 HD
BRANCH  21  29
ATOM     25  C   UNL     1       1.131   1.526  -1.397  0.00  0.00    +0.044 C 
ATOM     26  C   UNL     1       1.146   0.019  -1.419  0.00  0.00    -0.050 A 
ATOM     27  C   UNL     1       0.302  -0.692  -0.586  0.00  0.00    +0.005 A 
ATOM     28  C   UNL     1       0.312  -2.073  -0.605  0.00  0.00    +0.024 A 
ATOM     29  C   UNL     1       1.173  -2.748  -1.462  0.00  0.00    +0.037 A 
ATOM     30  C   UNL     1       2.019  -2.031  -2.297  0.00  0.00    -0.029 A 
ATOM     31  C   UNL     1       2.000  -0.650  -2.277  0.00  0.00    +0.008 A 
ATOM     32  C   UNL     1       2.954  -2.759  -3.228  0.00  0.00    +0.045 C 
ENDBRANCH  21  29
ENDBRANCH   1  22
TORSDOF 4
