REMARK  Name = ZINC43056764
REMARK  7 active torsions:
REMARK  status: ('A' for Active; 'I' for Inactive)
REMARK    1  A    between atoms: C_1  and  N_2
REMARK    2  A    between atoms: N_2  and  C_3
REMARK    3  A    between atoms: C_5  and  C_10
REMARK    4  A    between atoms: C_10  and  N_11
REMARK    5  A    between atoms: C_12  and  C_14
REMARK    6  A    between atoms: C_16  and  S_21
REMARK    7  A    between atoms: S_21  and  N_24
REMARK                            x       y       z     vdW  Elec       q    Type
REMARK                         _______ _______ _______ _____ _____    ______ ____
ROOT
ATOM      1  N   UNL     1       0.572  -2.873   1.612  0.00  0.00    -0.307 N 
ATOM      2  C   UNL     1       1.726  -3.485   1.946  0.00  0.00    +0.246 C 
ATOM      3  O   UNL     1       2.408  -4.007   1.086  0.00  0.00    -0.270 OA
ATOM      4  H   UNL     1       0.028  -2.455   2.298  0.00  0.00    +0.149 HD
ENDROOT
BRANCH   2   5
ATOM      5  C   UNL     1       2.162  -3.519   3.357  0.00  0.00    +0.057 A 
ATOM      6  C   UNL     1       1.378  -2.925   4.348  0.00  0.00    +0.043 A 
ATOM      7  C   UNL     1       1.790  -2.962   5.664  0.00  0.00    +0.106 A 
ATOM      8  C   UNL     1       2.978  -3.585   6.004  0.00  0.00    +0.030 A 
ATOM      9  C   UNL     1       3.760  -4.176   5.029  0.00  0.00    +0.022 A 
ATOM     10  C   UNL     1       3.357  -4.153   3.708  0.00  0.00    +0.053 A 
ATOM     11 CL   UNL     1       4.335  -4.902   2.485  0.00  0.00    -0.083 Cl
BRANCH   7  12
ATOM     12  S   UNL     1       0.802  -2.212   6.915  0.00  0.00    +0.056 S 
ATOM     13  O   UNL     1       1.676  -1.907   7.994  0.00  0.00    -0.153 OA
ATOM     14  O   UNL     1       0.013  -1.221   6.271  0.00  0.00    -0.153 OA
BRANCH  12  15
ATOM     15  N   UNL     1      -0.248  -3.367   7.468  0.00  0.00    -0.204 NA
ATOM     16  H   UNL     1      -0.227  -4.261   7.092  0.00  0.00    +0.144 HD
ATOM     17  H   UNL     1      -0.883  -3.149   8.168  0.00  0.00    +0.144 HD
ENDBRANCH  12  15
ENDBRANCH   7  12
ENDBRANCH   2   5
BRANCH   1  18
ATOM     18  C   UNL     1       0.140  -2.838   0.212  0.00  0.00    +0.143 C 
BRANCH  18  23
ATOM     19  C   UNL     1       0.449   0.459   1.548  0.00  0.00    +0.130 C 
ATOM     20  N   UNL     1      -0.012   0.003   0.234  0.00  0.00    -0.323 N 
ATOM     21  C   UNL     1       0.779   0.299  -0.963  0.00  0.00    +0.130 C 
ATOM     22  C   UNL     1      -1.200  -0.710   0.124  0.00  0.00    +0.103 A 
ATOM     23  C   UNL     1      -1.170  -2.101   0.109  0.00  0.00    +0.008 A 
ATOM     24  C   UNL     1      -2.360  -2.798  -0.001  0.00  0.00    +0.010 A 
ATOM     25  C   UNL     1      -3.544  -2.078  -0.094  0.00  0.00    +0.018 A 
ATOM     26  C   UNL     1      -3.499  -0.699  -0.073  0.00  0.00    +0.084 A 
ATOM     27  N   UNL     1      -2.350  -0.060   0.038  0.00  0.00    -0.349 N 
ATOM     28  H   UNL     1      -2.347   0.910   0.054  0.00  0.00    +0.167 HD
ENDBRANCH  18  23
ENDBRANCH   1  18
TORSDOF 5
