REMARK  Name = ZINC34719577
REMARK  7 active torsions:
REMARK  status: ('A' for Active; 'I' for Inactive)
REMARK    1  A    between atoms: C_3  and  C_6
REMARK    2  A    between atoms: C_9  and  S_18
REMARK    3  A    between atoms: N_10  and  C_11
REMARK    4  A    between atoms: S_18  and  C_19
REMARK    5  A    between atoms: C_19  and  C_20
REMARK    6  A    between atoms: C_22  and  C_25
REMARK    7  A    between atoms: N_27  and  C_28
REMARK                            x       y       z     vdW  Elec       q    Type
REMARK                         _______ _______ _______ _____ _____    ______ ____
ROOT
ATOM      1  C   UNL     1       8.488   0.230  -0.006  0.00  0.00    +0.140 C 
ENDROOT
BRANCH   1   2
ATOM      2  C   UNL     1       9.784  -0.520   0.165  0.00  0.00    +0.089 A 
ATOM      3  N   UNL     1      10.481  -1.141  -0.747  0.00  0.00    -0.239 NA
ATOM      4  C   UNL     1      11.613  -1.748  -0.378  0.00  0.00    +0.133 A 
ATOM      5  C   UNL     1      11.938  -1.658   0.949  0.00  0.00    +0.080 A 
ATOM      6  S   UNL     1      10.672  -0.746   1.571  0.00  0.00    -0.079 S 
BRANCH   4   7
ATOM      7  C   UNL     1      12.460  -2.471  -1.341  0.00  0.00    +0.264 C 
ATOM      8  O   UNL     1      13.483  -3.011  -0.965  0.00  0.00    -0.268 OA
ATOM      9  N   UNL     1      12.102  -2.535  -2.639  0.00  0.00    -0.299 N 
ATOM     10  H   UNL     1      11.286  -2.104  -2.938  0.00  0.00    +0.150 HD
BRANCH   9  11
ATOM     11  C   UNL     1      12.945  -3.254  -3.597  0.00  0.00    +0.159 C 
ATOM     12  C   UNL     1      12.560  -2.852  -5.023  0.00  0.00    +0.032 C 
ATOM     13  C   UNL     1      11.068  -2.596  -5.125  0.00  0.00    +0.004 C 
ATOM     14  C   UNL     1      10.218  -3.839  -4.930  0.00  0.00    +0.019 C 
ATOM     15  C   UNL     1      10.326  -4.354  -3.494  0.00  0.00    +0.104 C 
ATOM     16  N   UNL     1      11.494  -5.245  -3.400  0.00  0.00    -0.314 N 
ATOM     17  C   UNL     1      12.734  -4.745  -3.440  0.00  0.00    +0.233 C 
ATOM     18  O   UNL     1      13.691  -5.486  -3.357  0.00  0.00    -0.274 OA
ATOM     19  H   UNL     1      11.364  -6.201  -3.305  0.00  0.00    +0.149 HD
ENDBRANCH   9  11
ENDBRANCH   4   7
ENDBRANCH   1   2
BRANCH   1  20
ATOM     20  S   UNL     1       7.095  -0.904   0.245  0.00  0.00    -0.079 S 
BRANCH  20  24
ATOM     21  C   UNL     1       3.615   0.837  -0.152  0.00  0.00    +0.205 A 
ATOM     22  N   UNL     1       4.461   1.821  -0.371  0.00  0.00    -0.125 NA
ATOM     23  N   UNL     1       5.668   1.393  -0.272  0.00  0.00    -0.122 NA
ATOM     24  C   UNL     1       5.673   0.110   0.015  0.00  0.00    +0.197 A 
ATOM     25  N   UNL     1       4.367  -0.290   0.107  0.00  0.00    -0.268 N 
BRANCH  25  26
ATOM     26  C   UNL     1       3.892  -1.576   0.402  0.00  0.00    +0.051 A 
ATOM     27  C   UNL     1       3.173  -1.802   1.567  0.00  0.00    +0.029 A 
ATOM     28  C   UNL     1       2.706  -3.070   1.855  0.00  0.00    +0.040 A 
ATOM     29  C   UNL     1       2.956  -4.115   0.982  0.00  0.00    +0.124 A 
ATOM     30  C   UNL     1       3.674  -3.892  -0.181  0.00  0.00    +0.040 A 
ATOM     31  C   UNL     1       4.137  -2.625  -0.475  0.00  0.00    +0.029 A 
ATOM     32  F   UNL     1       2.500  -5.355   1.266  0.00  0.00    -0.205 F 
ENDBRANCH  25  26
BRANCH  21  35
ATOM     33  C   UNL     1       0.059   1.688  -0.183  0.00  0.00    +0.042 A 
ATOM     34  C   UNL     1       1.413   2.072  -0.146  0.00  0.00    +0.053 A 
ATOM     35  C   UNL     1       2.147   0.924  -0.174  0.00  0.00    +0.172 A 
ATOM     36  O   UNL     1       1.293  -0.117  -0.227  0.00  0.00    -0.460 OA
ATOM     37  C   UNL     1       0.030   0.341  -0.232  0.00  0.00    +0.196 A 
ENDBRANCH  21  35
ENDBRANCH  20  24
ENDBRANCH   1  20
TORSDOF 7
