REMARK  Name = ZINC64152160
REMARK  10 active torsions:
REMARK  status: ('A' for Active; 'I' for Inactive)
REMARK    1  A    between atoms: C_1  and  O_2
REMARK    2  A    between atoms: O_2  and  C_3
REMARK    3  A    between atoms: C_3  and  C_5
REMARK    4  A    between atoms: N_7  and  C_10
REMARK    5  A    between atoms: C_13  and  C_23
REMARK    6  A    between atoms: N_15  and  C_17
REMARK    7  A    between atoms: C_17  and  C_18
REMARK    8  A    between atoms: N_25  and  C_26
REMARK    9  A    between atoms: C_26  and  C_27
REMARK   10  A    between atoms: C_27  and  C_28
REMARK                            x       y       z     vdW  Elec       q    Type
REMARK                         _______ _______ _______ _____ _____    ______ ____
ROOT
ATOM      1  C   UNL     1      -3.006  -5.185  -0.396  0.00  0.00    +0.108 C 
ATOM      2  C   UNL     1      -2.856  -6.297  -1.467  0.00  0.00    +0.053 C 
ATOM      3  C   UNL     1      -3.145  -7.587  -0.671  0.00  0.00    +0.145 C 
ATOM      4  N   UNL     1      -2.894  -7.289   0.750  0.00  0.00    -0.285 NA
ATOM      5  C   UNL     1      -2.442  -5.886   0.865  0.00  0.00    +0.109 C 
ENDROOT
BRANCH   1   8
ATOM      6  C   UNL     1      -1.650  -1.924  -1.220  0.00  0.00    +0.142 C 
ATOM      7  C   UNL     1      -2.684  -2.733  -0.899  0.00  0.00    +0.121 C 
ATOM      8  N   UNL     1      -2.205  -4.009  -0.746  0.00  0.00    -0.252 N 
ATOM      9  N   UNL     1      -0.859  -4.003  -0.972  0.00  0.00    -0.160 NA
ATOM     10  N   UNL     1      -0.486  -2.723  -1.274  0.00  0.00    -0.257 N 
ATOM     11  H   UNL     1      -0.355  -4.349  -0.169  0.00  0.00    +0.168 HD
ATOM     12  H   UNL     1       0.411  -2.419  -1.484  0.00  0.00    +0.168 HD
BRANCH   6  13
ATOM     13  C   UNL     1      -1.722  -0.530  -1.464  0.00  0.00    +0.355 C 
ATOM     14  O   UNL     1      -2.790   0.047  -1.386  0.00  0.00    -0.243 OA
BRANCH  13  16
ATOM     15  C   UNL     1      -0.750   1.560  -2.015  0.00  0.00    +0.280 C 
ATOM     16  O   UNL     1      -0.605   0.157  -1.782  0.00  0.00    -0.464 OA
ENDBRANCH  13  16
ENDBRANCH   6  13
ENDBRANCH   1   8
BRANCH   3  17
ATOM     17  C   UNL     1      -2.232  -8.692  -1.136  0.00  0.00    +0.230 C 
ATOM     18  O   UNL     1      -1.044  -8.635  -0.902  0.00  0.00    -0.274 OA
ATOM     19  N   UNL     1      -2.736  -9.744  -1.812  0.00  0.00    -0.314 N 
ATOM     20  H   UNL     1      -3.687  -9.789  -1.999  0.00  0.00    +0.149 HD
BRANCH  19  21
ATOM     21  C   UNL     1      -1.849 -10.818  -2.264  0.00  0.00    +0.108 C 
BRANCH  21  22
ATOM     22  C   UNL     1      -2.667 -11.881  -2.999  0.00  0.00    +0.052 C 
BRANCH  22  23
ATOM     23  C   UNL     1      -1.754 -12.986  -3.464  0.00  0.00    -0.040 C 
ATOM     24  C   UNL     1      -1.497 -14.150  -2.827  0.00  0.00    -0.001 A 
ATOM     25  C   UNL     1      -1.972 -14.715  -1.558  0.00  0.00    +0.010 A 
ATOM     26  C   UNL     1      -1.525 -15.933  -1.174  0.00  0.00    +0.001 A 
ATOM     27  C   UNL     1      -0.623 -16.667  -1.956  0.00  0.00    +0.002 A 
ATOM     28  C   UNL     1      -0.142 -16.215  -3.133  0.00  0.00    +0.026 A 
ATOM     29  C   UNL     1      -0.545 -14.946  -3.634  0.00  0.00    +0.043 A 
ATOM     30  N   UNL     1      -0.225 -14.298  -4.728  0.00  0.00    -0.380 N 
ATOM     31  C   UNL     1      -0.945 -13.020  -4.741  0.00  0.00    +0.144 C 
ATOM     32  H   UNL     1       0.382 -14.613  -5.416  0.00  0.00    +0.160 HD
ENDBRANCH  22  23
ENDBRANCH  21  22
ENDBRANCH  19  21
ENDBRANCH   3  17
BRANCH   4  33
ATOM     33  C   UNL     1      -1.898  -8.211   1.314  0.00  0.00    +0.127 C 
BRANCH  33  34
ATOM     34  C   UNL     1      -1.948  -8.146   2.818  0.00  0.00    +0.004 A 
ATOM     35  C   UNL     1      -2.690  -8.882   3.681  0.00  0.00    +0.012 A 
ATOM     36  C   UNL     1      -2.571  -8.647   5.038  0.00  0.00    +0.008 A 
ATOM     37  C   UNL     1      -1.716  -7.687   5.466  0.00  0.00    +0.045 A 
ATOM     38  S   UNL     1      -1.038  -7.083   3.928  0.00  0.00    -0.100 S 
ENDBRANCH  33  34
ENDBRANCH   4  33
TORSDOF 9
