REMARK  Name = ZINC35486235
REMARK  12 active torsions:
REMARK  status: ('A' for Active; 'I' for Inactive)
REMARK    1  A    between atoms: C_1  and  C_2
REMARK    2  A    between atoms: C_2  and  C_3
REMARK    3  A    between atoms: C_3  and  O_4
REMARK    4  A    between atoms: O_4  and  C_5
REMARK    5  A    between atoms: C_8  and  C_11
REMARK    6  A    between atoms: N_26  and  C_27
REMARK    7  A    between atoms: C_27  and  C_28
REMARK    8  A    between atoms: C_28  and  N_29
REMARK    9  A    between atoms: N_29  and  C_30
REMARK   10  A    between atoms: N_29  and  C_32
REMARK   11  A    between atoms: C_30  and  C_31
REMARK   12  A    between atoms: C_32  and  C_33
REMARK                            x       y       z     vdW  Elec       q    Type
REMARK                         _______ _______ _______ _____ _____    ______ ____
ROOT
ATOM      1  C   UNL     1       2.949  -4.344   4.672  0.00  0.00    +0.144 C 
ATOM      2  C   UNL     1       1.724  -4.896   5.325  0.00  0.00    +0.072 A 
ATOM      3  C   UNL     1       0.618  -4.231   6.023  0.00  0.00    +0.199 A 
ATOM      4  O   UNL     1       0.458  -3.024   6.022  0.00  0.00    -0.287 OA
ATOM      5  C   UNL     1      -0.288  -5.171   6.730  0.00  0.00    +0.065 A 
ATOM      6  C   UNL     1      -1.266  -4.689   7.599  0.00  0.00    +0.030 A 
ATOM      7  C   UNL     1      -2.095  -5.575   8.251  0.00  0.00    +0.019 A 
ATOM      8  C   UNL     1      -1.955  -6.941   8.042  0.00  0.00    +0.019 A 
ATOM      9  C   UNL     1      -0.994  -7.428   7.185  0.00  0.00    +0.048 A 
ATOM     10  C   UNL     1      -0.145  -6.551   6.511  0.00  0.00    +0.140 A 
ATOM     11  O   UNL     1       0.784  -7.056   5.668  0.00  0.00    -0.450 OA
ATOM     12  C   UNL     1       1.756  -6.254   5.189  0.00  0.00    +0.199 A 
ATOM     13  C   UNL     1       2.984  -6.617   4.461  0.00  0.00    +0.283 C 
ATOM     14  O   UNL     1       3.316  -7.751   4.177  0.00  0.00    -0.267 OA
ATOM     15  N   UNL     1       3.688  -5.506   4.154  0.00  0.00    -0.285 N 
ATOM     16 BR   UNL     1      -3.425  -4.932   9.432  0.00  0.00    -0.050 Br
ENDROOT
BRANCH   1  20
ATOM     17  C   UNL     1       1.861  -1.741   1.462  0.00  0.00    +0.121 A 
ATOM     18  C   UNL     1       2.274  -1.212   2.676  0.00  0.00    +0.046 A 
ATOM     19  C   UNL     1       2.625  -2.055   3.712  0.00  0.00    +0.009 A 
ATOM     20  C   UNL     1       2.565  -3.426   3.540  0.00  0.00    -0.022 A 
ATOM     21  C   UNL     1       2.153  -3.955   2.331  0.00  0.00    +0.009 A 
ATOM     22  C   UNL     1       1.796  -3.116   1.294  0.00  0.00    +0.046 A 
BRANCH  17  23
ATOM     23  O   UNL     1       1.515  -0.913   0.442  0.00  0.00    -0.492 OA
BRANCH  23  24
ATOM     24  C   UNL     1       1.606   0.492   0.686  0.00  0.00    +0.229 C 
BRANCH  24  26
ATOM     25  C   UNL     1       1.278   2.761  -0.306  0.00  0.00    +0.007 C 
ATOM     26  C   UNL     1       1.180   1.257  -0.568  0.00  0.00    +0.038 C 
ENDBRANCH  24  26
ENDBRANCH  23  24
ENDBRANCH  17  23
ENDBRANCH   1  20
BRANCH  15  27
ATOM     27  C   UNL     1       4.963  -5.464   3.433  0.00  0.00    +0.090 C 
BRANCH  27  28
ATOM     28  C   UNL     1       6.117  -5.554   4.433  0.00  0.00    -0.060 C 
BRANCH  28  29
ATOM     29  N   UNL     1       7.396  -5.512   3.710  0.00  0.00    +0.380 N 
ATOM     30  H   UNL     1       7.411  -6.240   3.011  0.00  0.00    -0.082 HD
BRANCH  29  31
ATOM     31  C   UNL     1       7.547  -4.204   3.059  0.00  0.00    -0.082 C 
ATOM     32  C   UNL     1       8.806  -4.210   2.191  0.00  0.00    -0.017 C 
ENDBRANCH  29  31
BRANCH  29  33
ATOM     33  C   UNL     1       8.500  -5.719   4.656  0.00  0.00    -0.082 C 
ATOM     34  C   UNL     1       8.423  -7.135   5.229  0.00  0.00    -0.017 C 
ENDBRANCH  29  33
ENDBRANCH  28  29
ENDBRANCH  27  28
ENDBRANCH  15  27
TORSDOF 9
