REMARK  Name = ZINC33370433
REMARK  13 active torsions:
REMARK  status: ('A' for Active; 'I' for Inactive)
REMARK    1  A    between atoms: C_1  and  C_2
REMARK    2  A    between atoms: C_2  and  O_3
REMARK    3  A    between atoms: O_3  and  C_4
REMARK    4  A    between atoms: C_4  and  C_6
REMARK    5  A    between atoms: C_12  and  C_14
REMARK    6  A    between atoms: C_17  and  C_20
REMARK    7  A    between atoms: C_20  and  N_21
REMARK    8  A    between atoms: C_22  and  C_40
REMARK    9  A    between atoms: C_23  and  C_35
REMARK   10  A    between atoms: C_24  and  C_29
REMARK   11  A    between atoms: C_35  and  O_37
REMARK   12  A    between atoms: O_37  and  C_38
REMARK   13  A    between atoms: C_38  and  C_39
REMARK                            x       y       z     vdW  Elec       q    Type
REMARK                         _______ _______ _______ _____ _____    ______ ____
ROOT
ATOM      1  C   UNL     1       1.089   3.442   0.387  0.00  0.00    +0.148 C 
ENDROOT
BRANCH   1   2
ATOM      2  N   UNL     1       1.364   2.044   0.045  0.00  0.00    -0.271 N 
ATOM      3  C   UNL     1       0.320   1.176  -0.131  0.00  0.00    +0.021 C 
ATOM      4  C   UNL     1       0.517  -0.153  -0.166  0.00  0.00    +0.061 C 
ATOM      5  C   UNL     1       1.896  -0.728   0.032  0.00  0.00    +0.066 C 
ATOM      6  C   UNL     1       2.937   0.230  -0.552  0.00  0.00    +0.109 C 
ATOM      7  C   UNL     1       2.637   1.634  -0.092  0.00  0.00    +0.221 C 
ATOM      8  O   UNL     1       3.547   2.396   0.155  0.00  0.00    -0.275 OA
ATOM      9  C   UNL     1      -1.075   1.721  -0.296  0.00  0.00    +0.061 C 
BRANCH   5  10
ATOM     10  C   UNL     1       2.156  -0.914   1.505  0.00  0.00    -0.039 A 
ATOM     11  C   UNL     1       2.128   0.175   2.355  0.00  0.00    +0.004 A 
ATOM     12  C   UNL     1       2.362   0.004   3.707  0.00  0.00    +0.000 A 
ATOM     13  C   UNL     1       2.634  -1.256   4.206  0.00  0.00    +0.000 A 
ATOM     14  C   UNL     1       2.667  -2.345   3.355  0.00  0.00    +0.000 A 
ATOM     15  C   UNL     1       2.428  -2.174   2.005  0.00  0.00    +0.004 A 
ENDBRANCH   5  10
BRANCH   4  16
ATOM     16  C   UNL     1      -0.579  -1.019  -0.390  0.00  0.00    +0.337 C 
ATOM     17  O   UNL     1      -0.763  -1.495  -1.494  0.00  0.00    -0.245 OA
BRANCH  16  18
ATOM     18  O   UNL     1      -1.420  -1.319   0.622  0.00  0.00    -0.462 OA
BRANCH  18  19
ATOM     19  C   UNL     1      -2.505  -2.200   0.325  0.00  0.00    +0.229 C 
ATOM     20  C   UNL     1      -3.343  -2.420   1.585  0.00  0.00    +0.048 C 
ENDBRANCH  18  19
ENDBRANCH  16  18
ENDBRANCH   4  16
ENDBRANCH   1   2
BRANCH   1  24
ATOM     21  C   UNL     1       0.940   3.867   4.639  0.00  0.00    +0.037 A 
ATOM     22  C   UNL     1       2.150   4.025   3.961  0.00  0.00    +0.013 A 
ATOM     23  C   UNL     1       2.191   3.887   2.589  0.00  0.00    +0.006 A 
ATOM     24  C   UNL     1       1.037   3.592   1.885  0.00  0.00    -0.030 A 
ATOM     25  C   UNL     1      -0.167   3.439   2.551  0.00  0.00    +0.006 A 
ATOM     26  C   UNL     1      -0.221   3.570   3.923  0.00  0.00    +0.013 A 
BRANCH  21  33
ATOM     27  C   UNL     1      -1.903   6.474   7.849  0.00  0.00    +0.101 C 
ATOM     28  C   UNL     1      -0.653   5.996   8.591  0.00  0.00    +0.033 C 
ATOM     29  C   UNL     1      -0.328   4.561   8.162  0.00  0.00    +0.109 C 
ATOM     30  N   UNL     1      -0.213   4.519   6.698  0.00  0.00    -0.297 N 
ATOM     31  C   UNL     1      -1.321   5.045   5.888  0.00  0.00    +0.109 C 
ATOM     32  C   UNL     1      -1.637   6.469   6.341  0.00  0.00    +0.033 C 
ATOM     33  C   UNL     1       0.889   4.014   6.109  0.00  0.00    +0.247 C 
ATOM     34  O   UNL     1       1.840   3.678   6.787  0.00  0.00    -0.270 OA
BRANCH  27  35
ATOM     35  C   UNL     1      -2.246   7.873   8.293  0.00  0.00    +0.310 C 
ATOM     36  O   UNL     1      -1.561   8.430   9.118  0.00  0.00    -0.251 OA
BRANCH  35  37
ATOM     37  O   UNL     1      -3.312   8.500   7.772  0.00  0.00    -0.465 OA
BRANCH  37  39
ATOM     38  C   UNL     1      -4.826  10.394   7.544  0.00  0.00    +0.048 C 
ATOM     39  C   UNL     1      -3.582   9.846   8.246  0.00  0.00    +0.229 C 
ENDBRANCH  37  39
ENDBRANCH  35  37
ENDBRANCH  27  35
ENDBRANCH  21  33
ENDBRANCH   1  24
TORSDOF 10
