REMARK  Name = ZINC11592629
REMARK  15 active torsions:
REMARK  status: ('A' for Active; 'I' for Inactive)
REMARK    1  A    between atoms: C_1  and  C_2
REMARK    2  A    between atoms: C_2  and  C_3
REMARK    3  A    between atoms: C_3  and  C_4
REMARK    4  A    between atoms: C_7  and  C_11
REMARK    5  A    between atoms: C_10  and  N_61
REMARK    6  A    between atoms: N_13  and  C_14
REMARK    7  A    between atoms: C_14  and  C_16
REMARK    8  A    between atoms: C_14  and  C_32
REMARK    9  A    between atoms: C_18  and  O_31
REMARK   10  A    between atoms: C_20  and  O_30
REMARK   11  A    between atoms: C_22  and  O_29
REMARK   12  A    between atoms: C_24  and  S_27
REMARK   13  A    between atoms: S_27  and  C_28
REMARK   14  A    between atoms: C_32  and  C_34
REMARK   15  A    between atoms: C_32  and  O_35
REMARK                            x       y       z     vdW  Elec       q    Type
REMARK                         _______ _______ _______ _____ _____    ______ ____
ROOT
ATOM      1  C   UNL     1      -0.793   3.109   1.251  0.00  0.00    +0.132 C 
ENDROOT
BRANCH   1   2
ATOM      2  C   UNL     1      -0.722   1.581   1.271  0.00  0.00    +0.173 C 
ATOM      3  C   UNL     1      -0.013   1.086   0.008  0.00  0.00    +0.176 C 
ATOM      4  C   UNL     1       1.424   1.617  -0.003  0.00  0.00    +0.177 C 
ATOM      5  C   UNL     1       2.133   1.166   1.277  0.00  0.00    +0.184 C 
ATOM      6  C   UNL     1       1.341   1.658   2.491  0.00  0.00    +0.207 C 
ATOM      7  O   UNL     1       0.006   1.153   2.424  0.00  0.00    -0.356 OA
BRANCH   6   8
ATOM      8  S   UNL     1       2.135   1.067   4.012  0.00  0.00    -0.131 S 
ATOM      9  C   UNL     1       1.179   1.851   5.339  0.00  0.00    +0.087 C 
ENDBRANCH   6   8
BRANCH   5  10
ATOM     10  O   UNL     1       2.210  -0.261   1.303  0.00  0.00    -0.386 OA
ATOM     11  H   UNL     1       2.648  -0.618   2.088  0.00  0.00    +0.210 HD
ENDBRANCH   5  10
BRANCH   4  12
ATOM     12  O   UNL     1       2.116   1.100  -1.141  0.00  0.00    -0.386 OA
ATOM     13  H   UNL     1       3.034   1.397  -1.211  0.00  0.00    +0.210 HD
ENDBRANCH   4  12
BRANCH   3  14
ATOM     14  O   UNL     1      -0.706   1.560  -1.148  0.00  0.00    -0.387 OA
ATOM     15  H   UNL     1      -0.309   1.285  -1.985  0.00  0.00    +0.210 HD
ENDBRANCH   3  14
ENDBRANCH   1   2
BRANCH   1  18
ATOM     16  C   UNL     1      -1.322   4.775  -0.447  0.00  0.00    +0.200 C 
ATOM     17  O   UNL     1      -0.511   5.515   0.068  0.00  0.00    -0.278 OA
ATOM     18  N   UNL     1      -1.538   3.548   0.068  0.00  0.00    -0.309 N 
ATOM     19  H   UNL     1      -2.187   2.956  -0.344  0.00  0.00    +0.149 HD
BRANCH  16  22
ATOM     20  C   UNL     1      -3.724   6.969  -2.201  0.00  0.00    -0.029 C 
ATOM     21  C   UNL     1      -3.472   5.778  -1.254  0.00  0.00    -0.005 C 
ATOM     22  C   UNL     1      -2.089   5.226  -1.663  0.00  0.00    +0.019 C 
ATOM     23  C   UNL     1      -2.472   7.037  -3.102  0.00  0.00    -0.075 C 
ATOM     24  C   UNL     1      -0.313   5.915  -3.180  0.00  0.00    -0.095 C 
ATOM     25  N   UNL     1      -1.441   6.373  -2.309  0.00  0.00    +0.386 N 
ATOM     26  H   UNL     1      -1.077   7.018  -1.597  0.00  0.00    -0.081 HD
BRANCH  20  27
ATOM     27  C   UNL     1      -4.975   6.724  -3.046  0.00  0.00    +0.001 C 
BRANCH  27  29
ATOM     28  C   UNL     1      -6.486   7.694  -4.783  0.00  0.00    +0.004 C 
ATOM     29  C   UNL     1      -5.235   7.940  -3.938  0.00  0.00    -0.003 C 
ENDBRANCH  27  29
ENDBRANCH  20  27
ENDBRANCH  16  22
ENDBRANCH   1  18
BRANCH   1  30
ATOM     30  C   UNL     1      -1.502   3.604   2.513  0.00  0.00    +0.134 C 
ATOM     31  C   UNL     1      -1.683   5.121   2.435  0.00  0.00    +0.039 C 
BRANCH  30  32
ATOM     32  O   UNL     1      -2.781   2.976   2.618  0.00  0.00    -0.390 OA
ATOM     33  H   UNL     1      -3.369   3.155   1.872  0.00  0.00    +0.210 HD
ENDBRANCH  30  32
ENDBRANCH   1  30
TORSDOF 11
