REMARK  Name = ZINC12948759
REMARK  16 active torsions:
REMARK  status: ('A' for Active; 'I' for Inactive)
REMARK    1  A    between atoms: C_1  and  C_2
REMARK    2  A    between atoms: C_2  and  C_3
REMARK    3  A    between atoms: C_3  and  C_4
REMARK    4  A    between atoms: C_4  and  N_5
REMARK    5  A    between atoms: C_6  and  N_34
REMARK    6  A    between atoms: C_7  and  N_14
REMARK    7  A    between atoms: N_14  and  C_15
REMARK    8  A    between atoms: C_15  and  C_16
REMARK    9  A    between atoms: C_16  and  C_17
REMARK   10  A    between atoms: C_16  and  C_18
REMARK   11  A    between atoms: C_19  and  C_21
REMARK   12  A    between atoms: C_21  and  S_22
REMARK   13  A    between atoms: S_22  and  C_23
REMARK   14  A    between atoms: C_23  and  C_24
REMARK   15  A    between atoms: N_26  and  C_27
REMARK   16  A    between atoms: C_30  and  C_33
REMARK                            x       y       z     vdW  Elec       q    Type
REMARK                         _______ _______ _______ _____ _____    ______ ____
ROOT
ATOM      1  N   UNL     1      -5.679  -3.670   2.533  0.00  0.00    -0.263 N 
ATOM      2  C   UNL     1      -4.870  -3.189   3.500  0.00  0.00    +0.230 C 
ATOM      3  O   UNL     1      -3.781  -2.739   3.211  0.00  0.00    -0.274 OA
ENDROOT
BRANCH   1   6
ATOM      4  N   UNL     1      -4.753  -2.233  -0.720  0.00  0.00    -0.280 N 
ATOM      5  C   UNL     1      -5.119  -2.313   0.604  0.00  0.00    +0.127 A 
ATOM      6  C   UNL     1      -5.305  -3.555   1.178  0.00  0.00    +0.140 A 
ATOM      7  C   UNL     1      -5.115  -4.704   0.387  0.00  0.00    +0.277 A 
ATOM      8  O   UNL     1      -5.273  -5.813   0.868  0.00  0.00    -0.266 OA
ATOM      9  N   UNL     1      -4.757  -4.570  -0.905  0.00  0.00    -0.273 N 
ATOM     10  H   UNL     1      -4.626  -5.361  -1.451  0.00  0.00    +0.173 HD
ATOM     11  C   UNL     1      -4.585  -3.352  -1.448  0.00  0.00    +0.331 A 
ATOM     12  O   UNL     1      -4.267  -3.259  -2.618  0.00  0.00    -0.246 OA
BRANCH   5  13
ATOM     13  N   UNL     1      -5.296  -1.171   1.347  0.00  0.00    -0.343 N 
ATOM     14  H   UNL     1      -5.075  -0.306   0.967  0.00  0.00    +0.144 HD
ATOM     15  H   UNL     1      -5.641  -1.229   2.252  0.00  0.00    +0.144 HD
ENDBRANCH   5  13
BRANCH   4  16
ATOM     16  C   UNL     1      -4.553  -0.922  -1.341  0.00  0.00    +0.128 C 
BRANCH  16  17
ATOM     17  C   UNL     1      -5.875  -0.430  -1.933  0.00  0.00    +0.021 C 
BRANCH  17  19
ATOM     18  C   UNL     1      -6.987   1.431  -3.175  0.00  0.00    +0.004 C 
ATOM     19  C   UNL     1      -5.665   0.939  -2.583  0.00  0.00    -0.002 C 
ENDBRANCH  17  19
ENDBRANCH  16  17
ENDBRANCH   4  16
ENDBRANCH   1   6
BRANCH   1  20
ATOM     20  C   UNL     1      -6.947  -4.312   2.891  0.00  0.00    +0.117 C 
BRANCH  20  21
ATOM     21  C   UNL     1      -8.057  -3.260   2.933  0.00  0.00    +0.001 C 
ATOM     22  C   UNL     1      -8.307  -2.726   1.521  0.00  0.00    +0.009 C 
ATOM     23  C   UNL     1      -9.340  -3.894   3.473  0.00  0.00    +0.009 C 
ENDBRANCH  20  21
ENDBRANCH   1  20
BRANCH   2  24
ATOM     24  C   UNL     1      -5.318  -3.212   4.938  0.00  0.00    +0.165 C 
BRANCH  24  25
ATOM     25  S   UNL     1      -4.089  -2.364   5.968  0.00  0.00    -0.142 S 
BRANCH  25  26
ATOM     26  C   UNL     1      -4.769  -2.478   7.646  0.00  0.00    +0.165 C 
BRANCH  26  27
ATOM     27  C   UNL     1      -3.833  -1.802   8.614  0.00  0.00    +0.227 C 
ATOM     28  O   UNL     1      -2.808  -1.294   8.212  0.00  0.00    -0.275 OA
ATOM     29  N   UNL     1      -4.134  -1.763   9.928  0.00  0.00    -0.285 N 
ATOM     30  H   UNL     1      -4.916  -2.231  10.260  0.00  0.00    +0.155 HD
BRANCH  29  31
ATOM     31  C   UNL     1      -3.319  -1.048  10.812  0.00  0.00    +0.033 A 
ATOM     32  C   UNL     1      -3.142  -1.497  12.114  0.00  0.00    +0.023 A 
ATOM     33  C   UNL     1      -2.337  -0.789  12.984  0.00  0.00    +0.005 A 
ATOM     34  C   UNL     1      -1.707   0.367  12.560  0.00  0.00    -0.050 A 
ATOM     35  C   UNL     1      -1.882   0.818  11.264  0.00  0.00    +0.005 A 
ATOM     36  C   UNL     1      -2.681   0.111  10.387  0.00  0.00    +0.023 A 
ATOM     37  C   UNL     1      -0.829   1.138  13.512  0.00  0.00    +0.044 C 
ENDBRANCH  29  31
ENDBRANCH  26  27
ENDBRANCH  25  26
ENDBRANCH  24  25
ENDBRANCH   2  24
TORSDOF 12
