REMARK  Name = ZINC65963884
REMARK  8 active torsions:
REMARK  status: ('A' for Active; 'I' for Inactive)
REMARK    1  A    between atoms: C_1  and  C_2
REMARK    2  A    between atoms: C_2  and  C_3
REMARK    3  A    between atoms: C_2  and  C_4
REMARK    4  A    between atoms: C_4  and  N_5
REMARK    5  A    between atoms: C_9  and  C_11
REMARK    6  A    between atoms: C_11  and  N_12
REMARK    7  A    between atoms: C_15  and  N_18
REMARK    8  A    between atoms: C_19  and  C_21
REMARK                            x       y       z     vdW  Elec       q    Type
REMARK                         _______ _______ _______ _____ _____    ______ ____
ROOT
ATOM      1  N   UNL     1      -7.356  -0.625  -4.069  0.00  0.00    +0.386 N 
ATOM      2  C   UNL     1      -8.109   0.028  -2.992  0.00  0.00    -0.076 C 
ATOM      3  C   UNL     1      -9.521  -0.556  -2.924  0.00  0.00    +0.003 C 
ATOM      4  C   UNL     1     -10.230  -0.320  -4.261  0.00  0.00    +0.069 C 
ATOM      5  C   UNL     1      -9.398  -0.942  -5.386  0.00  0.00    +0.003 C 
ATOM      6  C   UNL     1      -7.990  -0.343  -5.362  0.00  0.00    -0.076 C 
ATOM      7  H   UNL     1      -7.344  -1.622  -3.912  0.00  0.00    -0.081 HD
ENDROOT
BRANCH   4   8
ATOM      8  N   UNL     1     -11.555  -0.943  -4.230  0.00  0.00    -0.312 N 
ATOM      9  C   UNL     1     -12.538  -0.479  -5.027  0.00  0.00    +0.216 C 
ATOM     10  O   UNL     1     -12.325   0.456  -5.771  0.00  0.00    -0.276 OA
ATOM     11  H   UNL     1     -11.726  -1.691  -3.636  0.00  0.00    +0.149 HD
BRANCH   9  12
ATOM     12  C   UNL     1     -13.901  -1.120  -4.995  0.00  0.00    +0.075 C 
ATOM     13  C   UNL     1     -14.485  -1.007  -3.586  0.00  0.00    +0.013 C 
ATOM     14  C   UNL     1     -15.869  -1.659  -3.553  0.00  0.00    +0.001 C 
ATOM     15  C   UNL     1     -16.791  -0.947  -4.545  0.00  0.00    +0.000 C 
ATOM     16  C   UNL     1     -16.207  -1.060  -5.955  0.00  0.00    +0.001 C 
ATOM     17  C   UNL     1     -14.823  -0.409  -5.987  0.00  0.00    +0.013 C 
ENDBRANCH   9  12
ENDBRANCH   4   8
BRANCH   1  18
ATOM     18  C   UNL     1      -5.978  -0.117  -4.079  0.00  0.00    +0.019 C 
BRANCH  18  23
ATOM     19  N   UNL     1      -2.105  -0.148  -1.230  0.00  0.00    -0.299 N 
ATOM     20  C   UNL     1      -3.387  -0.508  -1.443  0.00  0.00    +0.306 C 
ATOM     21  O   UNL     1      -3.985  -1.152  -0.604  0.00  0.00    -0.252 OA
ATOM     22  N   UNL     1      -4.005  -0.154  -2.587  0.00  0.00    -0.242 N 
ATOM     23  C   UNL     1      -5.286  -0.513  -2.800  0.00  0.00    +0.204 C 
ATOM     24  O   UNL     1      -5.883  -1.156  -1.963  0.00  0.00    -0.277 OA
ATOM     25  H   UNL     1      -1.628   0.366  -1.901  0.00  0.00    +0.150 HD
ATOM     26  H   UNL     1      -3.528   0.360  -3.257  0.00  0.00    +0.159 HD
BRANCH  19  27
ATOM     27  C   UNL     1      -1.433  -0.534   0.013  0.00  0.00    +0.108 C 
BRANCH  27  29
ATOM     28  C   UNL     1      -0.019   1.526   0.010  0.00  0.00    +0.009 C 
ATOM     29  C   UNL     1       0.002  -0.004   0.002  0.00  0.00    -0.000 C 
ATOM     30  C   UNL     1       0.742  -0.511   1.242  0.00  0.00    +0.009 C 
ENDBRANCH  27  29
ENDBRANCH  19  27
ENDBRANCH  18  23
ENDBRANCH   1  18
TORSDOF 6
