REMARK  Name = ZINC39737853
REMARK  8 active torsions:
REMARK  status: ('A' for Active; 'I' for Inactive)
REMARK    1  A    between atoms: C_1  and  C_2
REMARK    2  A    between atoms: C_2  and  O_3
REMARK    3  A    between atoms: O_3  and  C_4
REMARK    4  A    between atoms: C_4  and  C_6
REMARK    5  A    between atoms: C_7  and  C_32
REMARK    6  A    between atoms: C_8  and  C_29
REMARK    7  A    between atoms: C_9  and  N_11
REMARK    8  A    between atoms: C_12  and  C_14
REMARK                            x       y       z     vdW  Elec       q    Type
REMARK                         _______ _______ _______ _____ _____    ______ ____
ROOT
ATOM      1  N   UNL     1      -6.816  -2.919   0.046  0.00  0.00    -0.275 N 
ATOM      2  C   UNL     1      -7.500  -1.758   0.051  0.00  0.00    +0.256 C 
ATOM      3  O   UNL     1      -6.900  -0.699   0.048  0.00  0.00    -0.270 OA
ATOM      4  H   UNL     1      -7.294  -3.763   0.049  0.00  0.00    +0.156 HD
ENDROOT
BRANCH   2   5
ATOM      5  C   UNL     1      -8.970  -1.770   0.062  0.00  0.00    +0.122 A 
ATOM      6  C   UNL     1      -9.708  -0.587   0.063  0.00  0.00    +0.032 A 
ATOM      7  C   UNL     1     -11.112  -0.683   0.105  0.00  0.00    +0.026 A 
ATOM      8  C   UNL     1     -11.953   0.498  -0.112  0.00  0.00    -0.007 A 
ATOM      9  C   UNL     1     -11.398   1.758  -0.346  0.00  0.00    +0.009 A 
ATOM     10  C   UNL     1     -12.219   2.831  -0.543  0.00  0.00    +0.001 A 
ATOM     11  C   UNL     1     -13.602   2.685  -0.513  0.00  0.00    +0.001 A 
ATOM     12  C   UNL     1     -14.174   1.469  -0.287  0.00  0.00    +0.008 A 
ATOM     13  C   UNL     1     -13.359   0.345  -0.081  0.00  0.00    -0.017 A 
ATOM     14  C   UNL     1     -13.915  -0.928   0.155  0.00  0.00    +0.012 A 
ATOM     15  C   UNL     1     -13.125  -2.012   0.363  0.00  0.00    +0.047 A 
ATOM     16  C   UNL     1     -11.731  -1.918   0.351  0.00  0.00    +0.140 A 
ATOM     17  O   UNL     1     -10.974  -3.013   0.600  0.00  0.00    -0.422 OA
ATOM     18  C   UNL     1      -9.728  -3.033   0.067  0.00  0.00    +0.350 A 
ATOM     19  O   UNL     1      -9.251  -4.056  -0.387  0.00  0.00    -0.244 OA
ENDBRANCH   2   5
BRANCH   1  23
ATOM     20  C   UNL     1      -2.841  -2.416   0.016  0.00  0.00    +0.102 A 
ATOM     21  C   UNL     1      -3.204  -3.737   0.018  0.00  0.00    -0.015 A 
ATOM     22  C   UNL     1      -4.566  -4.000   0.028  0.00  0.00    +0.069 A 
ATOM     23  C   UNL     1      -5.436  -2.908   0.035  0.00  0.00    +0.085 A 
ATOM     24  S   UNL     1      -4.412  -1.577   0.036  0.00  0.00    -0.066 S 
ATOM     25  C   UNL     1      -2.181  -4.843   0.009  0.00  0.00    +0.046 C 
BRANCH  22  26
ATOM     26  C   UNL     1      -5.075  -5.378   0.031  0.00  0.00    +0.244 C 
ATOM     27  O   UNL     1      -5.278  -5.949   1.085  0.00  0.00    -0.270 OA
ATOM     28  N   UNL     1      -5.317  -6.008  -1.135  0.00  0.00    -0.325 N 
ATOM     29  H   UNL     1      -5.155  -5.553  -1.976  0.00  0.00    +0.145 HD
ATOM     30  H   UNL     1      -5.653  -6.918  -1.134  0.00  0.00    +0.145 HD
ENDBRANCH  22  26
BRANCH  20  31
ATOM     31  C   UNL     1      -1.497  -1.839   0.006  0.00  0.00    +0.346 C 
ATOM     32  O   UNL     1      -0.522  -2.567  -0.007  0.00  0.00    -0.244 OA
BRANCH  31  33
ATOM     33  O   UNL     1      -1.339  -0.499   0.012  0.00  0.00    -0.461 OA
BRANCH  33  35
ATOM     34  C   UNL     1      -0.019   1.526   0.010  0.00  0.00    +0.048 C 
ATOM     35  C   UNL     1       0.002  -0.004   0.002  0.00  0.00    +0.229 C 
ENDBRANCH  33  35
ENDBRANCH  31  33
ENDBRANCH  20  31
ENDBRANCH   1  23
TORSDOF 6
