REMARK  Name = ZINC25049192
REMARK  8 active torsions:
REMARK  status: ('A' for Active; 'I' for Inactive)
REMARK    1  A    between atoms: C_1  and  C_2
REMARK    2  A    between atoms: C_2  and  C_3
REMARK    3  A    between atoms: C_2  and  C_4
REMARK    4  A    between atoms: C_4  and  C_6
REMARK    5  A    between atoms: C_4  and  N_23
REMARK    6  A    between atoms: N_8  and  C_9
REMARK    7  A    between atoms: C_12  and  C_15
REMARK    8  A    between atoms: C_24  and  C_26
REMARK                            x       y       z     vdW  Elec       q    Type
REMARK                         _______ _______ _______ _____ _____    ______ ____
ROOT
ATOM      1  C   UNL     1      -2.968   7.931  -2.093  0.00  0.00    +0.238 C 
ATOM      2  O   UNL     1      -3.601   7.198  -2.823  0.00  0.00    -0.273 OA
ATOM      3  N   UNL     1      -3.314   9.228  -1.975  0.00  0.00    -0.284 N 
ATOM      4  H   UNL     1      -2.830   9.860  -1.215  0.00  0.00    +0.155 HD
ENDROOT
BRANCH   3   5
ATOM      5  C   UNL     1      -4.288   9.771  -2.820  0.00  0.00    +0.033 A 
ATOM      6  C   UNL     1      -5.253   8.947  -3.386  0.00  0.00    +0.024 A 
ATOM      7  C   UNL     1      -6.217   9.482  -4.215  0.00  0.00    +0.012 A 
ATOM      8  C   UNL     1      -6.217  10.848  -4.492  0.00  0.00    -0.000 A 
ATOM      9  C   UNL     1      -5.245  11.671  -3.927  0.00  0.00    +0.012 A 
ATOM     10  C   UNL     1      -4.286  11.133  -3.095  0.00  0.00    +0.024 A 
BRANCH   8  11
ATOM     11  C   UNL     1      -7.250  11.424  -5.388  0.00  0.00    +0.064 A 
ATOM     12  C   UNL     1      -8.246  10.739  -6.006  0.00  0.00    +0.113 A 
ATOM     13  N   UNL     1      -8.966  11.656  -6.727  0.00  0.00    -0.335 N 
ATOM     14  C   UNL     1      -8.389  12.861  -6.540  0.00  0.00    +0.087 A 
ATOM     15  N   UNL     1      -7.365  12.720  -5.738  0.00  0.00    -0.343 N 
ATOM     16  C   UNL     1      -9.137  13.920  -7.326  0.00  0.00    +0.074 C 
ATOM     17  C   UNL     1      -9.981  13.115  -8.340  0.00  0.00    +0.029 C 
ATOM     18  C   UNL     1     -10.130  11.758  -7.619  0.00  0.00    +0.123 C 
ATOM     19  H   UNL     1      -6.650  13.460  -5.349  0.00  0.00    +0.167 HD
ENDBRANCH   8  11
ENDBRANCH   3   5
BRANCH   1  20
ATOM     20  C   UNL     1      -1.794   7.391  -1.316  0.00  0.00    +0.162 C 
BRANCH  20  21
ATOM     21  N   UNL     1      -2.035   5.985  -0.982  0.00  0.00    -0.303 N 
ATOM     22  C   UNL     1      -1.427   5.432   0.086  0.00  0.00    +0.220 C 
ATOM     23  O   UNL     1      -0.680   6.098   0.770  0.00  0.00    -0.275 OA
ATOM     24  H   UNL     1      -2.713   5.380  -1.603  0.00  0.00    +0.149 HD
BRANCH  22  25
ATOM     25  C   UNL     1      -1.675   3.986   0.429  0.00  0.00    +0.048 C 
ATOM     26  C   UNL     1      -1.241   3.102  -0.742  0.00  0.00    +0.019 C 
ATOM     27  C   UNL     1      -1.493   1.633  -0.393  0.00  0.00    -0.009 C 
ATOM     28  C   UNL     1      -0.688   1.260   0.853  0.00  0.00    +0.007 C 
ATOM     29  C   UNL     1      -1.122   2.144   2.024  0.00  0.00    -0.009 C 
ATOM     30  C   UNL     1      -0.870   3.612   1.676  0.00  0.00    +0.019 C 
ATOM     31  C   UNL     1      -2.612   1.933   2.298  0.00  0.00    +0.007 C 
ATOM     32  C   UNL     1      -3.417   2.306   1.051  0.00  0.00    -0.009 C 
ATOM     33  C   UNL     1      -2.983   1.422  -0.120  0.00  0.00    +0.007 C 
ATOM     34  C   UNL     1      -3.166   3.775   0.703  0.00  0.00    +0.019 C 
ENDBRANCH  22  25
ENDBRANCH  20  21
BRANCH  20  36
ATOM     35  C   UNL     1       0.691   7.133  -1.314  0.00  0.00    +0.009 C 
ATOM     36  C   UNL     1      -0.526   7.503  -2.165  0.00  0.00    +0.012 C 
ATOM     37  C   UNL     1      -0.624   6.550  -3.357  0.00  0.00    +0.009 C 
ENDBRANCH  20  36
ENDBRANCH   1  20
TORSDOF 6
