REMARK  Name = ZINC39677329
REMARK  10 active torsions:
REMARK  status: ('A' for Active; 'I' for Inactive)
REMARK    1  A    between atoms: C_1  and  C_2
REMARK    2  A    between atoms: C_6  and  C_7
REMARK    3  A    between atoms: C_7  and  N_8
REMARK    4  A    between atoms: C_9  and  C_11
REMARK    5  A    between atoms: C_22  and  C_24
REMARK    6  A    between atoms: C_24  and  C_26
REMARK    7  A    between atoms: C_24  and  O_29
REMARK    8  A    between atoms: C_26  and  C_27
REMARK    9  A    between atoms: C_26  and  C_28
REMARK   10  A    between atoms: O_29  and  C_30
REMARK                            x       y       z     vdW  Elec       q    Type
REMARK                         _______ _______ _______ _____ _____    ______ ____
ROOT
ATOM      1  C   UNL     1      -2.572   0.594   4.785  0.00  0.00    +0.100 C 
ATOM      2  C   UNL     1      -3.408  -0.699   4.647  0.00  0.00    +0.121 C 
ATOM      3  N   UNL     1      -3.404  -1.294   6.004  0.00  0.00    -0.297 N 
ATOM      4  C   UNL     1      -3.535  -0.133   6.916  0.00  0.00    +0.115 C 
ATOM      5  C   UNL     1      -2.662   0.964   6.275  0.00  0.00    -0.004 C 
ATOM      6  C   UNL     1      -3.322   2.329   6.441  0.00  0.00    -0.010 C 
ATOM      7  C   UNL     1      -3.347   2.702   7.926  0.00  0.00    -0.082 C 
ATOM      8  N   UNL     1      -1.975   2.733   8.447  0.00  0.00    +0.379 N 
ATOM      9  C   UNL     1      -1.379   1.393   8.369  0.00  0.00    -0.082 C 
ATOM     10  C   UNL     1      -1.272   0.965   6.903  0.00  0.00    -0.010 C 
ATOM     11  C   UNL     1      -3.304  -2.597   6.335  0.00  0.00    +0.257 C 
ATOM     12  O   UNL     1      -3.400  -2.937   7.495  0.00  0.00    -0.272 OA
ATOM     13  H   UNL     1      -1.423   3.377   7.901  0.00  0.00    -0.086 HD
ATOM     14  H   UNL     1      -1.989   3.038   9.409  0.00  0.00    -0.086 HD
ENDROOT
BRANCH   1  16
ATOM     15  N   UNL     1      -0.401   1.329   3.857  0.00  0.00    -0.310 N 
ATOM     16  C   UNL     1      -1.140   0.337   4.393  0.00  0.00    +0.218 C 
ATOM     17  O   UNL     1      -0.653  -0.761   4.559  0.00  0.00    -0.275 OA
ATOM     18  H   UNL     1      -0.790   2.207   3.724  0.00  0.00    +0.149 HD
BRANCH  15  19
ATOM     19  C   UNL     1       0.992   1.080   3.476  0.00  0.00    +0.147 C 
BRANCH  19  25
ATOM     20  C   UNL     1       2.456   3.283   5.038  0.00  0.00    +0.044 C 
ATOM     21  C   UNL     1       2.244   3.340   3.547  0.00  0.00    -0.039 A 
ATOM     22  C   UNL     1       2.717   4.410   2.812  0.00  0.00    +0.011 A 
ATOM     23  C   UNL     1       2.510   4.431   1.473  0.00  0.00    +0.046 A 
ATOM     24  S   UNL     1       1.620   2.905   1.213  0.00  0.00    -0.100 S 
ATOM     25  C   UNL     1       1.590   2.340   2.907  0.00  0.00    +0.010 A 
ENDBRANCH  19  25
ENDBRANCH  15  19
ENDBRANCH   1  16
BRANCH  11  26
ATOM     26  C   UNL     1      -3.072  -3.631   5.263  0.00  0.00    +0.261 C 
BRANCH  26  27
ATOM     27  C   UNL     1      -4.418  -4.091   4.699  0.00  0.00    +0.033 C 
ATOM     28  C   UNL     1      -5.208  -2.876   4.209  0.00  0.00    +0.011 C 
ATOM     29  C   UNL     1      -4.181  -5.051   3.532  0.00  0.00    +0.011 C 
ENDBRANCH  26  27
BRANCH  26  30
ATOM     30  O   UNL     1      -2.382  -4.750   5.822  0.00  0.00    -0.479 OA
BRANCH  30  31
ATOM     31  C   UNL     1      -1.503  -5.399   5.014  0.00  0.00    +0.122 A 
ATOM     32  C   UNL     1      -1.238  -4.912   3.742  0.00  0.00    +0.045 A 
ATOM     33  C   UNL     1      -0.343  -5.572   2.923  0.00  0.00    +0.004 A 
ATOM     34  C   UNL     1       0.288  -6.719   3.369  0.00  0.00    +0.000 A 
ATOM     35  C   UNL     1       0.026  -7.207   4.636  0.00  0.00    +0.004 A 
ATOM     36  C   UNL     1      -0.864  -6.546   5.461  0.00  0.00    +0.045 A 
ENDBRANCH  30  31
ENDBRANCH  26  30
ENDBRANCH  11  26
TORSDOF 7
