REMARK  Name = ZINC60221094
REMARK  7 active torsions:
REMARK  status: ('A' for Active; 'I' for Inactive)
REMARK    1  A    between atoms: C_1  and  C_2
REMARK    2  A    between atoms: N_11  and  C_15
REMARK    3  A    between atoms: C_15  and  C_16
REMARK    4  A    between atoms: N_18  and  C_19
REMARK    5  A    between atoms: C_22  and  C_25
REMARK    6  A    between atoms: C_25  and  C_26
REMARK    7  A    between atoms: C_26  and  N_27
REMARK                            x       y       z     vdW  Elec       q    Type
REMARK                         _______ _______ _______ _____ _____    ______ ____
ROOT
ATOM      1  C   UNL     1       1.393   0.436   5.377  0.00  0.00    +0.235 C 
ATOM      2  O   UNL     1       1.631  -0.738   5.186  0.00  0.00    -0.274 OA
ATOM      3  N   UNL     1       1.419   0.934   6.628  0.00  0.00    -0.284 N 
ATOM      4  H   UNL     1       1.295   1.885   6.775  0.00  0.00    +0.155 HD
ENDROOT
BRANCH   3   5
ATOM      5  C   UNL     1       1.624   0.080   7.718  0.00  0.00    +0.033 A 
ATOM      6  C   UNL     1       0.976   0.320   8.922  0.00  0.00    +0.023 A 
ATOM      7  C   UNL     1       1.181  -0.525   9.995  0.00  0.00    +0.005 A 
ATOM      8  C   UNL     1       2.030  -1.609   9.871  0.00  0.00    -0.049 A 
ATOM      9  C   UNL     1       2.677  -1.851   8.673  0.00  0.00    +0.005 A 
ATOM     10  C   UNL     1       2.472  -1.013   7.594  0.00  0.00    +0.023 A 
BRANCH   8  11
ATOM     11  C   UNL     1       2.251  -2.529  11.044  0.00  0.00    +0.016 C 
BRANCH  11  12
ATOM     12  C   UNL     1       1.219  -3.658  11.008  0.00  0.00    -0.074 C 
BRANCH  12  13
ATOM     13  N   UNL     1       1.380  -4.506  12.197  0.00  0.00    +0.381 N 
ATOM     14  C   UNL     1       0.530  -5.691  12.059  0.00  0.00    -0.068 C 
ATOM     15  C   UNL     1       0.950  -6.753  13.082  0.00  0.00    +0.050 C 
ATOM     16  S   UNL     1       0.700  -6.069  14.750  0.00  0.00    -0.164 S 
ATOM     17  C   UNL     1       1.529  -4.452  14.646  0.00  0.00    +0.050 C 
ATOM     18  C   UNL     1       1.023  -3.733  13.389  0.00  0.00    -0.068 C 
ATOM     19  H   UNL     1       2.343  -4.797  12.268  0.00  0.00    -0.082 HD
ENDBRANCH  12  13
ENDBRANCH  11  12
ENDBRANCH   8  11
ENDBRANCH   3   5
BRANCH   1  20
ATOM     20  C   UNL     1       1.067   1.337   4.213  0.00  0.00    +0.214 C 
BRANCH  20  30
ATOM     21  C   UNL     1      -0.064   1.339  -0.074  0.00  0.00    +0.010 C 
ATOM     22  C   UNL     1      -0.200  -0.185  -0.035  0.00  0.00    +0.018 C 
ATOM     23  C   UNL     1      -1.681  -0.562   0.059  0.00  0.00    +0.006 C 
ATOM     24  C   UNL     1      -1.815  -2.085   0.118  0.00  0.00    +0.000 C 
ATOM     25  C   UNL     1      -1.085  -2.614   1.354  0.00  0.00    +0.003 C 
ATOM     26  C   UNL     1       0.398  -2.246   1.266  0.00  0.00    +0.035 C 
ATOM     27  C   UNL     1       0.543  -0.731   1.179  0.00  0.00    +0.115 C 
ATOM     28  C   UNL     1       0.038  -0.078   2.445  0.00  0.00    +0.247 C 
ATOM     29  O   UNL     1      -1.087  -0.121   2.894  0.00  0.00    -0.273 OA
ATOM     30  N   UNL     1       1.103   0.563   2.970  0.00  0.00    -0.215 N 
ATOM     31  C   UNL     1       2.196   0.403   2.215  0.00  0.00    +0.310 C 
ATOM     32  O   UNL     1       3.279   0.886   2.482  0.00  0.00    -0.252 OA
ATOM     33  N   UNL     1       1.962  -0.353   1.125  0.00  0.00    -0.285 N 
ATOM     34  H   UNL     1       2.603  -0.600   0.441  0.00  0.00    +0.151 HD
ENDBRANCH  20  30
ENDBRANCH   1  20
TORSDOF 6
