REMARK  Name = ZINC11934431
REMARK  7 active torsions:
REMARK  status: ('A' for Active; 'I' for Inactive)
REMARK    1  A    between atoms: C_1  and  C_2
REMARK    2  A    between atoms: C_2  and  C_10
REMARK    3  A    between atoms: C_3  and  C_4
REMARK    4  A    between atoms: C_10  and  N_60
REMARK    5  A    between atoms: C_11  and  N_60
REMARK    6  A    between atoms: C_25  and  C_28
REMARK    7  A    between atoms: C_28  and  O_29
REMARK                            x       y       z     vdW  Elec       q    Type
REMARK                         _______ _______ _______ _____ _____    ______ ____
ROOT
ATOM      1  C   UNL     1      -4.238   1.770  -8.408  0.00  0.00    -0.037 C 
ATOM      2  C   UNL     1      -5.070   0.503  -8.603  0.00  0.00    -0.011 C 
ATOM      3  C   UNL     1      -5.722   0.139  -7.264  0.00  0.00    +0.005 C 
ATOM      4  C   UNL     1      -4.631  -0.337  -6.306  0.00  0.00    +0.056 C 
ATOM      5  C   UNL     1      -3.503   0.657  -6.257  0.00  0.00    +0.048 A 
ATOM      6  C   UNL     1      -3.318   1.617  -7.228  0.00  0.00    -0.022 A 
ATOM      7  C   UNL     1      -2.238   2.485  -7.109  0.00  0.00    +0.118 A 
ATOM      8  N   UNL     1      -1.429   2.374  -6.070  0.00  0.00    -0.223 NA
ATOM      9  C   UNL     1      -1.634   1.440  -5.152  0.00  0.00    +0.218 A 
ATOM     10  N   UNL     1      -2.652   0.599  -5.239  0.00  0.00    -0.219 NA
ATOM     11  N   UNL     1      -0.768   1.347  -4.077  0.00  0.00    -0.300 N 
ATOM     12  C   UNL     1       0.288   2.363  -4.162  0.00  0.00    +0.108 C 
ATOM     13  C   UNL     1       1.306   2.138  -3.041  0.00  0.00    +0.025 C 
ATOM     14  C   UNL     1       0.594   2.227  -1.688  0.00  0.00    +0.017 C 
ATOM     15  C   UNL     1      -0.534   1.192  -1.642  0.00  0.00    +0.025 C 
ATOM     16  C   UNL     1      -1.497   1.444  -2.805  0.00  0.00    +0.108 C 
ENDROOT
BRANCH   1  17
ATOM     17  N   UNL     1      -3.430   2.016  -9.617  0.00  0.00    +0.386 N 
ATOM     18  H   UNL     1      -2.645   2.633  -9.380  0.00  0.00    -0.085 HD
ATOM     19  H   UNL     1      -3.069   1.122  -9.971  0.00  0.00    -0.085 HD
BRANCH  17  20
ATOM     20  C   UNL     1      -4.254   2.655 -10.661  0.00  0.00    -0.051 C 
BRANCH  20  22
ATOM     21  C   UNL     1      -2.527   3.965 -12.115  0.00  0.00    +0.037 C 
ATOM     22  C   UNL     1      -3.440   2.782 -11.923  0.00  0.00    -0.089 C 
ATOM     23  C   UNL     1      -3.527   1.853 -12.865  0.00  0.00    +0.005 C 
BRANCH  23  24
ATOM     24  C   UNL     1      -2.614   1.889 -14.026  0.00  0.00    -0.025 A 
ATOM     25  C   UNL     1      -3.094   1.602 -15.304  0.00  0.00    +0.008 A 
ATOM     26  C   UNL     1      -2.237   1.643 -16.385  0.00  0.00    +0.001 A 
ATOM     27  C   UNL     1      -0.902   1.957 -16.202  0.00  0.00    +0.000 A 
ATOM     28  C   UNL     1      -0.419   2.238 -14.937  0.00  0.00    +0.001 A 
ATOM     29  C   UNL     1      -1.266   2.206 -13.848  0.00  0.00    +0.008 A 
ENDBRANCH  23  24
ENDBRANCH  20  22
ENDBRANCH  17  20
ENDBRANCH   1  17
BRANCH  14  30
ATOM     30  C   UNL     1       1.594   1.943  -0.565  0.00  0.00    +0.159 C 
BRANCH  30  31
ATOM     31  O   UNL     1       0.958   2.137   0.700  0.00  0.00    -0.395 OA
ATOM     32  H   UNL     1       1.534   1.974   1.459  0.00  0.00    +0.209 HD
ENDBRANCH  30  31
ENDBRANCH  14  30
TORSDOF 6
