REMARK  Name = ZINC44713585
REMARK  9 active torsions:
REMARK  status: ('A' for Active; 'I' for Inactive)
REMARK    1  A    between atoms: C_1  and  C_2
REMARK    2  A    between atoms: C_3  and  C_12
REMARK    3  A    between atoms: C_12  and  C_13
REMARK    4  A    between atoms: C_13  and  N_14
REMARK    5  A    between atoms: C_15  and  C_17
REMARK    6  A    between atoms: C_28  and  C_30
REMARK    7  A    between atoms: C_30  and  C_32
REMARK    8  A    between atoms: C_30  and  O_33
REMARK    9  A    between atoms: O_33  and  C_34
REMARK                            x       y       z     vdW  Elec       q    Type
REMARK                         _______ _______ _______ _____ _____    ______ ____
ROOT
ATOM      1  C   UNL     1       3.191   1.532  -6.882  0.00  0.00    +0.100 C 
ATOM      2  C   UNL     1       2.361   0.431  -7.580  0.00  0.00    +0.121 C 
ATOM      3  N   UNL     1       3.095   0.149  -8.836  0.00  0.00    -0.297 N 
ATOM      4  C   UNL     1       4.525   0.205  -8.449  0.00  0.00    +0.115 C 
ATOM      5  C   UNL     1       4.611   1.379  -7.454  0.00  0.00    -0.004 C 
ATOM      6  C   UNL     1       5.598   1.054  -6.338  0.00  0.00    -0.010 C 
ATOM      7  C   UNL     1       7.011   0.965  -6.923  0.00  0.00    -0.082 C 
ATOM      8  N   UNL     1       7.361   2.241  -7.557  0.00  0.00    +0.379 N 
ATOM      9  C   UNL     1       6.463   2.502  -8.689  0.00  0.00    -0.082 C 
ATOM     10  C   UNL     1       5.028   2.655  -8.179  0.00  0.00    -0.010 C 
ATOM     11  C   UNL     1       2.578  -0.100 -10.056  0.00  0.00    +0.256 C 
ATOM     12  O   UNL     1       3.316  -0.314 -10.995  0.00  0.00    -0.272 OA
ATOM     13  H   UNL     1       7.274   2.986  -6.882  0.00  0.00    -0.086 HD
ATOM     14  H   UNL     1       8.314   2.201  -7.888  0.00  0.00    -0.086 HD
ENDROOT
BRANCH   1  16
ATOM     15  N   UNL     1       3.353   2.365  -4.558  0.00  0.00    -0.315 N 
ATOM     16  C   UNL     1       3.201   1.315  -5.391  0.00  0.00    +0.218 C 
ATOM     17  O   UNL     1       3.073   0.197  -4.939  0.00  0.00    -0.275 OA
ATOM     18  H   UNL     1       3.455   3.259  -4.919  0.00  0.00    +0.149 HD
BRANCH  15  19
ATOM     19  C   UNL     1       3.362   2.154  -3.108  0.00  0.00    +0.109 C 
BRANCH  19  20
ATOM     20  C   UNL     1       3.547   3.497  -2.399  0.00  0.00    +0.056 C 
BRANCH  20  23
ATOM     21  C   UNL     1       6.048   2.925  -0.652  0.00  0.00    +0.063 C 
ATOM     22  C   UNL     1       4.633   3.033  -0.144  0.00  0.00    +0.017 A 
ATOM     23  C   UNL     1       3.557   3.281  -0.908  0.00  0.00    -0.018 A 
ATOM     24  C   UNL     1       2.395   3.301  -0.017  0.00  0.00    +0.003 A 
ATOM     25  C   UNL     1       1.027   3.503  -0.211  0.00  0.00    +0.010 A 
ATOM     26  C   UNL     1       0.176   3.458   0.858  0.00  0.00    +0.001 A 
ATOM     27  C   UNL     1       0.661   3.212   2.135  0.00  0.00    +0.002 A 
ATOM     28  C   UNL     1       2.007   3.009   2.349  0.00  0.00    +0.026 A 
ATOM     29  C   UNL     1       2.891   3.051   1.275  0.00  0.00    +0.047 A 
ATOM     30  N   UNL     1       4.254   2.888   1.162  0.00  0.00    -0.358 N 
ATOM     31  H   UNL     1       4.855   2.700   1.900  0.00  0.00    +0.166 HD
ENDBRANCH  20  23
ENDBRANCH  19  20
ENDBRANCH  15  19
ENDBRANCH   1  16
BRANCH  11  32
ATOM     32  C   UNL     1       1.084  -0.113 -10.253  0.00  0.00    +0.256 C 
ATOM     33  C   UNL     1       0.474  -1.268  -9.457  0.00  0.00    +0.062 C 
BRANCH  32  34
ATOM     34  O   UNL     1       0.788  -0.282 -11.641  0.00  0.00    -0.480 OA
BRANCH  34  35
ATOM     35  C   UNL     1      -0.409   0.189 -12.079  0.00  0.00    +0.122 A 
ATOM     36  C   UNL     1      -1.322   0.712 -11.175  0.00  0.00    +0.045 A 
ATOM     37  C   UNL     1      -2.538   1.191 -11.623  0.00  0.00    +0.004 A 
ATOM     38  C   UNL     1      -2.846   1.149 -12.970  0.00  0.00    +0.000 A 
ATOM     39  C   UNL     1      -1.937   0.627 -13.873  0.00  0.00    +0.004 A 
ATOM     40  C   UNL     1      -0.717   0.153 -13.431  0.00  0.00    +0.045 A 
ENDBRANCH  34  35
ENDBRANCH  32  34
ENDBRANCH  11  32
TORSDOF 7
