REMARK  Name = ZINC09610600
REMARK  6 active torsions:
REMARK  status: ('A' for Active; 'I' for Inactive)
REMARK    1  A    between atoms: C_4  and  C_7
REMARK    2  A    between atoms: C_7  and  C_9
REMARK    3  A    between atoms: C_7  and  N_23
REMARK    4  A    between atoms: N_11  and  C_12
REMARK    5  A    between atoms: N_23  and  S_24
REMARK    6  A    between atoms: S_24  and  C_27
REMARK                            x       y       z     vdW  Elec       q    Type
REMARK                         _______ _______ _______ _____ _____    ______ ____
ROOT
ATOM      1  C   UNL     1      -1.571  -2.490  -1.432  0.00  0.00    +0.192 C 
ENDROOT
BRANCH   1   5
ATOM      2  C   UNL     1      -5.436  -3.826  -2.666  0.00  0.00    +0.000 A 
ATOM      3  C   UNL     1      -4.692  -3.005  -3.493  0.00  0.00    +0.000 A 
ATOM      4  C   UNL     1      -3.442  -2.572  -3.093  0.00  0.00    +0.006 A 
ATOM      5  C   UNL     1      -2.935  -2.961  -1.867  0.00  0.00    -0.020 A 
ATOM      6  C   UNL     1      -3.676  -3.786  -1.043  0.00  0.00    +0.006 A 
ATOM      7  C   UNL     1      -4.929  -4.215  -1.440  0.00  0.00    +0.000 A 
ENDBRANCH   1   5
BRANCH   1   8
ATOM      8  C   UNL     1      -1.720  -1.331  -0.479  0.00  0.00    +0.237 C 
ATOM      9  O   UNL     1      -1.281  -1.413   0.648  0.00  0.00    -0.274 OA
ATOM     10  N   UNL     1      -2.342  -0.205  -0.880  0.00  0.00    -0.307 N 
ATOM     11  H   UNL     1      -2.693  -0.139  -1.782  0.00  0.00    +0.149 HD
BRANCH  10  12
ATOM     12  C   UNL     1      -2.487   0.921   0.046  0.00  0.00    +0.103 C 
ATOM     13  C   UNL     1      -3.690   1.764  -0.371  0.00  0.00    +0.027 C 
ATOM     14  C   UNL     1      -3.698   3.046   0.471  0.00  0.00    +0.007 C 
ATOM     15  C   UNL     1      -2.525   3.919   0.030  0.00  0.00    +0.035 C 
ATOM     16  C   UNL     1      -1.245   3.125   0.025  0.00  0.00    -0.042 A 
ATOM     17  C   UNL     1      -1.228   1.748   0.017  0.00  0.00    -0.024 A 
ATOM     18  C   UNL     1      -0.013   1.076   0.008  0.00  0.00    +0.006 A 
ATOM     19  C   UNL     1       1.176   1.776   0.000  0.00  0.00    +0.000 A 
ATOM     20  C   UNL     1       1.159   3.158   0.007  0.00  0.00    +0.000 A 
ATOM     21  C   UNL     1      -0.048   3.828   0.019  0.00  0.00    +0.004 A 
ENDBRANCH  10  12
ENDBRANCH   1   8
BRANCH   1  22
ATOM     22  N   UNL     1      -0.867  -3.585  -0.762  0.00  0.00    -0.174 NA
ATOM     23  H   UNL     1      -1.010  -3.748   0.183  0.00  0.00    +0.149 HD
BRANCH  22  24
ATOM     24  S   UNL     1       0.174  -4.547  -1.619  0.00  0.00    +0.059 S 
ATOM     25  O   UNL     1       0.712  -5.486  -0.698  0.00  0.00    -0.153 OA
ATOM     26  O   UNL     1      -0.515  -4.944  -2.796  0.00  0.00    -0.153 OA
BRANCH  24  27
ATOM     27  C   UNL     1       1.515  -3.529  -2.140  0.00  0.00    +0.106 A 
ATOM     28  C   UNL     1       2.630  -3.390  -1.335  0.00  0.00    +0.030 A 
ATOM     29  C   UNL     1       3.683  -2.593  -1.740  0.00  0.00    +0.025 A 
ATOM     30  C   UNL     1       3.619  -1.931  -2.958  0.00  0.00    +0.037 A 
ATOM     31  C   UNL     1       2.498  -2.072  -3.765  0.00  0.00    -0.024 A 
ATOM     32  C   UNL     1       1.451  -2.874  -3.357  0.00  0.00    +0.034 A 
ATOM     33  C   UNL     1       2.431  -1.353  -5.087  0.00  0.00    +0.046 C 
ATOM     34  C   UNL     1       3.151  -0.009  -4.976  0.00  0.00    +0.101 C 
ATOM     35  C   UNL     1       4.501  -0.202  -4.340  0.00  0.00    +0.218 C 
ATOM     36  O   UNL     1       5.437   0.480  -4.701  0.00  0.00    -0.275 OA
ATOM     37  N   UNL     1       4.682  -1.122  -3.375  0.00  0.00    -0.285 N 
ATOM     38  H   UNL     1       5.555  -1.226  -2.966  0.00  0.00    +0.155 HD
ENDBRANCH  24  27
ENDBRANCH  22  24
ENDBRANCH   1  22
TORSDOF 6
