REMARK  Name = ZINC63351595
REMARK  5 active torsions:
REMARK  status: ('A' for Active; 'I' for Inactive)
REMARK    1  A    between atoms: C_1  and  C_2
REMARK    2  A    between atoms: C_2  and  O_3
REMARK    3  A    between atoms: O_3  and  C_4
REMARK    4  A    between atoms: C_9  and  N_10
REMARK    5  A    between atoms: C_13  and  C_20
REMARK                            x       y       z     vdW  Elec       q    Type
REMARK                         _______ _______ _______ _____ _____    ______ ____
ROOT
ATOM      1  N   UNL     1       1.870  -1.593  -3.563  0.00  0.00    -0.225 N 
ATOM      2  C   UNL     1       3.144  -1.211  -3.349  0.00  0.00    +0.270 A 
ATOM      3  O   UNL     1       3.785  -1.698  -2.433  0.00  0.00    -0.267 OA
ATOM      4  C   UNL     1       3.731  -0.248  -4.189  0.00  0.00    +0.101 A 
ATOM      5  C   UNL     1       2.993   0.280  -5.207  0.00  0.00    +0.263 A 
ATOM      6  N   UNL     1       1.699  -0.137  -5.390  0.00  0.00    -0.274 N 
ATOM      7  H   UNL     1       1.170   0.236  -6.112  0.00  0.00    +0.173 HD
ATOM      8  C   UNL     1       1.160  -1.064  -4.577  0.00  0.00    +0.337 A 
ATOM      9  O   UNL     1       0.013  -1.425  -4.757  0.00  0.00    -0.246 OA
ATOM     10  O   UNL     1       3.532   1.206  -6.027  0.00  0.00    -0.267 OA
ENDROOT
BRANCH   4  11
ATOM     11  C   UNL     1       5.154   0.194  -3.967  0.00  0.00    +0.121 C 
ATOM     12  C   UNL     1       5.964  -0.013  -5.249  0.00  0.00    +0.128 C 
ATOM     13  C   UNL     1       5.387   0.952  -6.278  0.00  0.00    -0.035 C 
ATOM     14  C   UNL     1       5.073   0.224  -7.341  0.00  0.00    -0.001 A 
ATOM     15  C   UNL     1       4.562   0.596  -8.670  0.00  0.00    +0.010 A 
ATOM     16  C   UNL     1       4.331  -0.429  -9.532  0.00  0.00    +0.001 A 
ATOM     17  C   UNL     1       4.554  -1.771  -9.209  0.00  0.00    +0.002 A 
ATOM     18  C   UNL     1       5.027  -2.204  -8.014  0.00  0.00    +0.026 A 
ATOM     19  C   UNL     1       5.314  -1.218  -7.025  0.00  0.00    +0.043 A 
ATOM     20  N   UNL     1       5.801  -1.355  -5.807  0.00  0.00    -0.376 N 
ATOM     21  C   UNL     1       5.180   2.414  -5.964  0.00  0.00    +0.048 C 
ATOM     22  C   UNL     1       4.470   2.463  -4.599  0.00  0.00    +0.086 C 
ATOM     23  N   UNL     1       5.181   1.626  -3.628  0.00  0.00    -0.307 NA
ATOM     24  H   UNL     1       4.837   1.783  -2.693  0.00  0.00    +0.123 HD
ATOM     25  H   UNL     1       6.010  -2.187  -5.355  0.00  0.00    +0.160 HD
ENDBRANCH   4  11
BRANCH   1  31
ATOM     26  C   UNL     1       0.628  -2.159  -1.562  0.00  0.00    +0.144 A 
ATOM     27  C   UNL     1       0.043  -3.112  -0.744  0.00  0.00    +0.048 A 
ATOM     28  C   UNL     1       0.113  -4.451  -1.081  0.00  0.00    +0.004 A 
ATOM     29  C   UNL     1       0.766  -4.843  -2.235  0.00  0.00    +0.002 A 
ATOM     30  C   UNL     1       1.352  -3.899  -3.057  0.00  0.00    +0.030 A 
ATOM     31  C   UNL     1       1.281  -2.554  -2.728  0.00  0.00    +0.096 A 
BRANCH  26  32
ATOM     32  O   UNL     1       0.560  -0.842  -1.232  0.00  0.00    -0.490 OA
BRANCH  32  34
ATOM     33  C   UNL     1      -0.063   1.001   0.202  0.00  0.00    +0.048 C 
ATOM     34  C   UNL     1      -0.104  -0.513  -0.010  0.00  0.00    +0.226 C 
ENDBRANCH  32  34
ENDBRANCH  26  32
ENDBRANCH   1  31
TORSDOF 4
