REMARK  Name = ZINC03845972
REMARK  11 active torsions:
REMARK  status: ('A' for Active; 'I' for Inactive)
REMARK    1  A    between atoms: C_1  and  C_2
REMARK    2  A    between atoms: C_7  and  C_8
REMARK    3  A    between atoms: C_7  and  C_9
REMARK    4  A    between atoms: C_10  and  N_24
REMARK    5  A    between atoms: C_12  and  N_14
REMARK    6  A    between atoms: N_14  and  C_15
REMARK    7  A    between atoms: C_15  and  N_17
REMARK    8  A    between atoms: N_17  and  C_18
REMARK    9  A    between atoms: N_24  and  C_25
REMARK   10  A    between atoms: C_25  and  N_27
REMARK   11  A    between atoms: N_27  and  C_28
REMARK                            x       y       z     vdW  Elec       q    Type
REMARK                         _______ _______ _______ _____ _____    ______ ____
ROOT
ATOM      1  C   UNL     1      -2.239   1.602  -0.177  0.00  0.00    +0.013 C 
ATOM      2  C   UNL     1      -1.781   0.169   0.098  0.00  0.00    -0.007 C 
ATOM      3  C   UNL     1      -2.756  -0.958  -0.360  0.00  0.00    +0.009 C 
ATOM      4  C   UNL     1      -2.335  -2.197   0.463  0.00  0.00    +0.006 C 
ATOM      5  C   UNL     1      -1.145  -1.702   1.340  0.00  0.00    +0.017 C 
ATOM      6  C   UNL     1      -1.579  -0.217   1.606  0.00  0.00    -0.023 C 
ATOM      7  C   UNL     1      -0.463   0.598   2.262  0.00  0.00    +0.012 C 
ATOM      8  C   UNL     1      -2.884  -0.134   2.399  0.00  0.00    +0.012 C 
ATOM      9  C   UNL     1       0.028  -1.506   0.332  0.00  0.00    +0.096 C 
ATOM     10  C   UNL     1      -0.392  -0.228  -0.490  0.00  0.00    +0.099 C 
ENDROOT
BRANCH  10  11
ATOM     11  N   UNL     1      -0.518  -0.576  -1.907  0.00  0.00    -0.321 N 
ATOM     12  H   UNL     1      -1.128  -1.279  -2.182  0.00  0.00    +0.148 HD
BRANCH  11  13
ATOM     13  C   UNL     1       0.213   0.080  -2.830  0.00  0.00    +0.135 C 
ATOM     14  S   UNL     1       1.384   1.227  -2.337  0.00  0.00    -0.019 S 
BRANCH  13  15
ATOM     15  N   UNL     1       0.024  -0.168  -4.141  0.00  0.00    -0.297 N 
ATOM     16  H   UNL     1      -0.571  -0.883  -4.418  0.00  0.00    +0.154 HD
BRANCH  15  17
ATOM     17  C   UNL     1       0.684   0.605  -5.102  0.00  0.00    +0.033 A 
ATOM     18  C   UNL     1       1.143   0.016  -6.273  0.00  0.00    +0.023 A 
ATOM     19  C   UNL     1       1.794   0.782  -7.220  0.00  0.00    +0.002 A 
ATOM     20  C   UNL     1       1.989   2.134  -7.003  0.00  0.00    +0.000 A 
ATOM     21  C   UNL     1       1.533   2.723  -5.838  0.00  0.00    +0.002 A 
ATOM     22  C   UNL     1       0.876   1.964  -4.890  0.00  0.00    +0.023 A 
ENDBRANCH  15  17
ENDBRANCH  13  15
ENDBRANCH  11  13
ENDBRANCH  10  11
BRANCH   9  23
ATOM     23  N   UNL     1       0.167  -2.685  -0.525  0.00  0.00    -0.321 N 
ATOM     24  H   UNL     1      -0.294  -2.722  -1.378  0.00  0.00    +0.148 HD
BRANCH  23  25
ATOM     25  C   UNL     1       0.936  -3.719  -0.130  0.00  0.00    +0.135 C 
ATOM     26  S   UNL     1       1.645  -3.711   1.429  0.00  0.00    -0.019 S 
BRANCH  25  27
ATOM     27  N   UNL     1       1.148  -4.759  -0.961  0.00  0.00    -0.297 N 
ATOM     28  H   UNL     1       0.813  -4.728  -1.871  0.00  0.00    +0.154 HD
BRANCH  27  29
ATOM     29  C   UNL     1       1.850  -5.882  -0.511  0.00  0.00    +0.033 A 
ATOM     30  C   UNL     1       1.582  -6.414   0.743  0.00  0.00    +0.023 A 
ATOM     31  C   UNL     1       2.277  -7.523   1.184  0.00  0.00    +0.002 A 
ATOM     32  C   UNL     1       3.239  -8.104   0.377  0.00  0.00    +0.000 A 
ATOM     33  C   UNL     1       3.507  -7.577  -0.873  0.00  0.00    +0.002 A 
ATOM     34  C   UNL     1       2.812  -6.471  -1.321  0.00  0.00    +0.023 A 
ENDBRANCH  27  29
ENDBRANCH  25  27
ENDBRANCH  23  25
ENDBRANCH   9  23
TORSDOF 8
