REMARK  Name = ZINC14549189
REMARK  4 active torsions:
REMARK  status: ('A' for Active; 'I' for Inactive)
REMARK    1  A    between atoms: C_1  and  O_2
REMARK    2  A    between atoms: O_2  and  C_3
REMARK    3  A    between atoms: C_3  and  C_5
REMARK    4  A    between atoms: C_18  and  C_21
REMARK                            x       y       z     vdW  Elec       q    Type
REMARK                         _______ _______ _______ _____ _____    ______ ____
ROOT
ATOM      1  C   UNL     1       0.169  -0.043   0.027  0.00  0.00    +0.059 A 
ATOM      2  C   UNL     1       1.365  -0.767   0.008  0.00  0.00    +0.017 A 
ATOM      3  C   UNL     1       1.330  -2.132   0.002  0.00  0.00    +0.024 A 
ATOM      4  C   UNL     1       0.110  -2.804   0.002  0.00  0.00    +0.031 A 
ATOM      5  C   UNL     1      -1.088  -2.099   0.014  0.00  0.00    -0.019 A 
ATOM      6  C   UNL     1      -1.054  -0.717   0.026  0.00  0.00    +0.021 A 
ATOM      7  C   UNL     1      -2.419  -2.783   0.013  0.00  0.00    +0.049 C 
ATOM      8  C   UNL     1      -3.069  -2.725   1.375  0.00  0.00    -0.023 C 
ATOM      9  C   UNL     1      -3.720  -3.837   1.615  0.00  0.00    -0.030 C 
ATOM     10  C   UNL     1      -3.598  -4.788   0.440  0.00  0.00    +0.033 C 
ATOM     11  C   UNL     1      -2.317  -4.293  -0.278  0.00  0.00    +0.029 C 
ATOM     12  C   UNL     1      -1.115  -4.886   0.462  0.00  0.00    +0.106 C 
ATOM     13  N   UNL     1       0.102  -4.197   0.022  0.00  0.00    -0.336 N 
ATOM     14  H   UNL     1       0.883  -4.699  -0.259  0.00  0.00    +0.147 HD
ENDROOT
BRANCH  12  15
ATOM     15  C   UNL     1      -1.293  -4.698   1.947  0.00  0.00    -0.012 A 
ATOM     16  C   UNL     1      -1.036  -3.459   2.532  0.00  0.00    -0.012 A 
ATOM     17  C   UNL     1      -0.607  -2.361   1.756  0.00  0.00    +0.009 A 
ATOM     18  C   UNL     1      -0.365  -1.169   2.358  0.00  0.00    +0.001 A 
ATOM     19  C   UNL     1      -0.529  -0.995   3.732  0.00  0.00    +0.001 A 
ATOM     20  C   UNL     1      -0.949  -2.006   4.535  0.00  0.00    +0.008 A 
ATOM     21  C   UNL     1      -1.214  -3.275   3.976  0.00  0.00    -0.017 A 
ATOM     22  C   UNL     1      -1.631  -4.339   4.773  0.00  0.00    +0.017 A 
ATOM     23  C   UNL     1      -1.882  -5.579   4.188  0.00  0.00    -0.017 A 
ATOM     24  C   UNL     1      -1.710  -5.762   2.744  0.00  0.00    -0.012 A 
ATOM     25  C   UNL     1      -1.973  -7.032   2.185  0.00  0.00    +0.009 A 
ATOM     26  C   UNL     1      -2.377  -8.047   2.990  0.00  0.00    +0.001 A 
ATOM     27  C   UNL     1      -2.541  -7.872   4.365  0.00  0.00    +0.001 A 
ATOM     28  C   UNL     1      -2.305  -6.679   4.966  0.00  0.00    +0.008 A 
ENDBRANCH  12  15
BRANCH   1  29
ATOM     29  C   UNL     1       0.199   1.430   0.041  0.00  0.00    +0.339 C 
ATOM     30  O   UNL     1      -0.841   2.059   0.047  0.00  0.00    -0.245 OA
BRANCH  29  32
ATOM     31  C   UNL     1       1.333   3.532   0.056  0.00  0.00    +0.280 C 
ATOM     32  O   UNL     1       1.379   2.080   0.042  0.00  0.00    -0.464 OA
ENDBRANCH  29  32
ENDBRANCH   1  29
TORSDOF 3
