REMARK  Name = ZINC14578969
REMARK  11 active torsions:
REMARK  status: ('A' for Active; 'I' for Inactive)
REMARK    1  A    between atoms: C_1  and  C_2
REMARK    2  A    between atoms: C_2  and  C_3
REMARK    3  A    between atoms: C_2  and  C_4
REMARK    4  A    between atoms: C_4  and  C_5
REMARK    5  A    between atoms: C_5  and  N_6
REMARK    6  A    between atoms: N_6  and  C_7
REMARK    7  A    between atoms: C_8  and  N_23
REMARK    8  A    between atoms: N_9  and  C_16
REMARK    9  A    between atoms: C_16  and  C_17
REMARK   10  A    between atoms: C_24  and  C_26
REMARK   11  A    between atoms: C_26  and  C_27
REMARK                            x       y       z     vdW  Elec       q    Type
REMARK                         _______ _______ _______ _____ _____    ______ ____
ROOT
ATOM      1  N   UNL     1       4.056   2.951   2.344  0.00  0.00    -0.264 N 
ATOM      2  C   UNL     1       3.423   2.821   3.529  0.00  0.00    +0.226 C 
ATOM      3  O   UNL     1       2.233   2.587   3.559  0.00  0.00    -0.275 OA
ENDROOT
BRANCH   1   4
ATOM      4  C   UNL     1       3.358   2.711   1.142  0.00  0.00    +0.140 A 
ATOM      5  C   UNL     1       3.698   1.645   0.334  0.00  0.00    +0.128 A 
ATOM      6  N   UNL     1       3.002   1.439  -0.834  0.00  0.00    -0.276 N 
ATOM      7  C   UNL     1       1.995   2.261  -1.181  0.00  0.00    +0.331 A 
ATOM      8  O   UNL     1       1.389   2.059  -2.216  0.00  0.00    -0.246 OA
ATOM      9  N   UNL     1       1.646   3.302  -0.404  0.00  0.00    -0.273 N 
ATOM     10  H   UNL     1       0.894   3.898  -0.685  0.00  0.00    +0.173 HD
ATOM     11  C   UNL     1       2.299   3.551   0.748  0.00  0.00    +0.277 A 
ATOM     12  O   UNL     1       1.975   4.497   1.445  0.00  0.00    -0.266 OA
BRANCH   5  13
ATOM     13  N   UNL     1       4.723   0.801   0.691  0.00  0.00    -0.343 N 
ATOM     14  H   UNL     1       5.016   0.109   0.079  0.00  0.00    +0.144 HD
ATOM     15  H   UNL     1       5.152   0.899   1.555  0.00  0.00    +0.144 HD
ENDBRANCH   5  13
BRANCH   6  16
ATOM     16  C   UNL     1       3.355   0.314  -1.704  0.00  0.00    +0.163 C 
BRANCH  16  17
ATOM     17  C   UNL     1       4.394   0.757  -2.701  0.00  0.00    -0.028 A 
ATOM     18  C   UNL     1       4.003   1.271  -3.924  0.00  0.00    +0.005 A 
ATOM     19  C   UNL     1       4.956   1.682  -4.837  0.00  0.00    +0.000 A 
ATOM     20  C   UNL     1       6.300   1.569  -4.532  0.00  0.00    +0.000 A 
ATOM     21  C   UNL     1       6.690   1.049  -3.312  0.00  0.00    +0.000 A 
ATOM     22  C   UNL     1       5.737   0.643  -2.397  0.00  0.00    +0.005 A 
ENDBRANCH  16  17
ENDBRANCH   6  16
ENDBRANCH   1   4
BRANCH   1  23
ATOM     23  C   UNL     1       5.467   3.342   2.306  0.00  0.00    +0.114 C 
BRANCH  23  24
ATOM     24  C   UNL     1       5.576   4.867   2.372  0.00  0.00    +0.022 C 
BRANCH  24  26
ATOM     25  C   UNL     1       7.651   4.885   0.981  0.00  0.00    +0.007 C 
ATOM     26  C   UNL     1       7.050   5.275   2.333  0.00  0.00    -0.016 C 
ATOM     27  C   UNL     1       7.165   6.789   2.524  0.00  0.00    +0.007 C 
ENDBRANCH  24  26
ENDBRANCH  23  24
ENDBRANCH   1  23
BRANCH   2  28
ATOM     28  C   UNL     1       4.195   2.967   4.815  0.00  0.00    +0.154 C 
BRANCH  28  29
ATOM     29  C   UNL     1       3.264   2.779   5.984  0.00  0.00    +0.078 A 
ATOM     30  C   UNL     1       3.778   2.867   7.351  0.00  0.00    +0.011 A 
ATOM     31  C   UNL     1       5.122   3.136   7.617  0.00  0.00    +0.010 A 
ATOM     32  C   UNL     1       5.553   3.216   8.911  0.00  0.00    +0.001 A 
ATOM     33  C   UNL     1       4.671   3.039   9.969  0.00  0.00    +0.001 A 
ATOM     34  C   UNL     1       3.338   2.777   9.738  0.00  0.00    +0.014 A 
ATOM     35  C   UNL     1       2.876   2.692   8.425  0.00  0.00    +0.050 A 
ATOM     36  C   UNL     1       1.468   2.416   8.112  0.00  0.00    +0.272 A 
ATOM     37  O   UNL     1       0.655   2.252   9.004  0.00  0.00    -0.266 OA
ATOM     38  N   UNL     1       1.092   2.348   6.818  0.00  0.00    -0.242 N 
ATOM     39  H   UNL     1       0.164   2.166   6.605  0.00  0.00    +0.192 HD
ATOM     40  N   UNL     1       2.004   2.532   5.778  0.00  0.00    -0.175 NA
ENDBRANCH  28  29
ENDBRANCH   2  28
TORSDOF 9
