REMARK  Name = ZINC39656200
REMARK  8 active torsions:
REMARK  status: ('A' for Active; 'I' for Inactive)
REMARK    1  A    between atoms: C_1  and  C_2
REMARK    2  A    between atoms: C_8  and  C_11
REMARK    3  A    between atoms: C_11  and  C_12
REMARK    4  A    between atoms: C_12  and  N_13
REMARK    5  A    between atoms: C_14  and  C_16
REMARK    6  A    between atoms: C_27  and  C_29
REMARK    7  A    between atoms: C_30  and  C_41
REMARK    8  A    between atoms: C_33  and  C_35
REMARK                            x       y       z     vdW  Elec       q    Type
REMARK                         _______ _______ _______ _____ _____    ______ ____
ROOT
ATOM      1  C   UNL     1       4.257   0.677  -7.440  0.00  0.00    +0.100 C 
ATOM      2  C   UNL     1       5.372   0.894  -6.392  0.00  0.00    +0.121 C 
ATOM      3  N   UNL     1       5.798  -0.473  -6.010  0.00  0.00    -0.296 N 
ATOM      4  C   UNL     1       5.781  -1.234  -7.282  0.00  0.00    +0.115 C 
ATOM      5  C   UNL     1       4.531  -0.719  -8.024  0.00  0.00    -0.004 C 
ATOM      6  C   UNL     1       3.346  -1.643  -7.763  0.00  0.00    -0.010 C 
ATOM      7  C   UNL     1       3.618  -3.008  -8.403  0.00  0.00    -0.082 C 
ATOM      8  N   UNL     1       3.825  -2.841  -9.846  0.00  0.00    +0.379 N 
ATOM      9  C   UNL     1       5.022  -2.027 -10.090  0.00  0.00    -0.082 C 
ATOM     10  C   UNL     1       4.809  -0.621  -9.521  0.00  0.00    -0.010 C 
ATOM     11  C   UNL     1       6.127  -0.923  -4.783  0.00  0.00    +0.248 C 
ATOM     12  O   UNL     1       6.547  -2.057  -4.643  0.00  0.00    -0.270 OA
ATOM     13  H   UNL     1       3.943  -3.747 -10.274  0.00  0.00    -0.086 HD
ATOM     14  H   UNL     1       3.021  -2.384 -10.249  0.00  0.00    -0.086 HD
ENDROOT
BRANCH  11  15
ATOM     15  C   UNL     1       5.983  -0.076  -3.655  0.00  0.00    +0.078 C 
ATOM     16  C   UNL     1       4.877   0.070  -2.906  0.00  0.00    +0.132 C 
ATOM     17  O   UNL     1       5.058   0.957  -1.910  0.00  0.00    -0.410 OA
ATOM     18  N   UNL     1       6.508   1.146  -1.725  0.00  0.00    -0.144 NA
ATOM     19  C   UNL     1       7.052   0.827  -3.068  0.00  0.00    +0.161 C 
ATOM     20  C   UNL     1       3.587  -0.671  -3.152  0.00  0.00    +0.089 C 
ATOM     21  H   UNL     1       6.718   2.098  -1.464  0.00  0.00    +0.168 HD
BRANCH  19  22
ATOM     22  C   UNL     1       8.366   0.098  -2.956  0.00  0.00    -0.023 A 
ATOM     23  C   UNL     1       8.541  -0.863  -1.977  0.00  0.00    +0.005 A 
ATOM     24  C   UNL     1       9.746  -1.532  -1.873  0.00  0.00    +0.000 A 
ATOM     25  C   UNL     1      10.775  -1.241  -2.749  0.00  0.00    +0.000 A 
ATOM     26  C   UNL     1      10.600  -0.282  -3.728  0.00  0.00    +0.000 A 
ATOM     27  C   UNL     1       9.393   0.385  -3.834  0.00  0.00    +0.005 A 
ENDBRANCH  19  22
ENDBRANCH  11  15
BRANCH   1  29
ATOM     28  N   UNL     1       1.805   0.991  -7.511  0.00  0.00    -0.315 N 
ATOM     29  C   UNL     1       2.903   0.713  -6.781  0.00  0.00    +0.218 C 
ATOM     30  O   UNL     1       2.800   0.492  -5.593  0.00  0.00    -0.275 OA
ATOM     31  H   UNL     1       1.887   1.168  -8.462  0.00  0.00    +0.149 HD
BRANCH  28  32
ATOM     32  C   UNL     1       0.488   1.027  -6.870  0.00  0.00    +0.109 C 
BRANCH  32  33
ATOM     33  C   UNL     1      -0.579   1.362  -7.915  0.00  0.00    +0.056 C 
BRANCH  33  41
ATOM     34  C   UNL     1      -2.474   6.098  -5.308  0.00  0.00    +0.044 C 
ATOM     35  C   UNL     1      -2.929   4.691  -5.597  0.00  0.00    -0.050 A 
ATOM     36  C   UNL     1      -4.174   4.266  -5.156  0.00  0.00    +0.005 A 
ATOM     37  C   UNL     1      -4.609   2.983  -5.409  0.00  0.00    +0.026 A 
ATOM     38  C   UNL     1      -3.795   2.104  -6.114  0.00  0.00    +0.047 A 
ATOM     39  N   UNL     1      -3.937   0.794  -6.516  0.00  0.00    -0.360 N 
ATOM     40  C   UNL     1      -2.819   0.392  -7.194  0.00  0.00    +0.087 A 
ATOM     41  C   UNL     1      -1.933   1.399  -7.255  0.00  0.00    -0.021 A 
ATOM     42  C   UNL     1      -2.533   2.540  -6.560  0.00  0.00    +0.003 A 
ATOM     43  C   UNL     1      -2.115   3.845  -6.296  0.00  0.00    +0.013 A 
ATOM     44  H   UNL     1      -4.714   0.240  -6.343  0.00  0.00    +0.165 HD
ENDBRANCH  33  41
ENDBRANCH  32  33
ENDBRANCH  28  32
ENDBRANCH   1  29
TORSDOF 6
