REMARK  Name = ZINC36124332
REMARK  13 active torsions:
REMARK  status: ('A' for Active; 'I' for Inactive)
REMARK    1  A    between atoms: C_1  and  C_2
REMARK    2  A    between atoms: C_5  and  S_8
REMARK    3  A    between atoms: S_8  and  N_11
REMARK    4  A    between atoms: N_11  and  C_12
REMARK    5  A    between atoms: N_11  and  C_16
REMARK    6  A    between atoms: C_12  and  C_13
REMARK    7  A    between atoms: C_13  and  O_14
REMARK    8  A    between atoms: O_14  and  C_15
REMARK    9  A    between atoms: C_16  and  C_17
REMARK   10  A    between atoms: C_27  and  C_29
REMARK   11  A    between atoms: C_29  and  O_30
REMARK   12  A    between atoms: O_30  and  C_31
REMARK   13  A    between atoms: C_36  and  C_37
REMARK                            x       y       z     vdW  Elec       q    Type
REMARK                         _______ _______ _______ _____ _____    ______ ____
ROOT
ATOM      1  C   UNL     1       3.089  -3.942  -1.678  0.00  0.00    +0.232 C 
ATOM      2  O   UNL     1       3.042  -2.974  -0.950  0.00  0.00    -0.274 OA
ATOM      3  N   UNL     1       3.805  -3.894  -2.819  0.00  0.00    -0.290 N 
ATOM      4  C   UNL     1       3.864  -5.060  -3.712  0.00  0.00    +0.114 C 
ATOM      5  C   UNL     1       5.314  -5.569  -3.746  0.00  0.00    +0.061 C 
ATOM      6  C   UNL     1       6.231  -4.395  -3.853  0.00  0.00    -0.004 A 
ATOM      7  C   UNL     1       5.946  -3.086  -3.612  0.00  0.00    -0.014 A 
ATOM      8  C   UNL     1       6.990  -2.178  -3.777  0.00  0.00    +0.013 A 
ATOM      9  C   UNL     1       8.211  -2.613  -4.166  0.00  0.00    +0.046 A 
ATOM     10  S   UNL     1       7.942  -4.372  -4.321  0.00  0.00    -0.101 S 
ATOM     11  C   UNL     1       4.533  -2.673  -3.190  0.00  0.00    +0.144 C 
ENDROOT
BRANCH   1  12
ATOM     12  C   UNL     1       2.346  -5.200  -1.308  0.00  0.00    +0.205 C 
BRANCH  12  13
ATOM     13  N   UNL     1       1.651  -4.999  -0.034  0.00  0.00    -0.166 NA
BRANCH  13  14
ATOM     14  S   UNL     1       0.063  -4.530  -0.023  0.00  0.00    +0.061 S 
ATOM     15  O   UNL     1      -0.476  -4.950   1.223  0.00  0.00    -0.153 OA
ATOM     16  O   UNL     1      -0.490  -4.937  -1.267  0.00  0.00    -0.153 OA
BRANCH  14  21
ATOM     17  C   UNL     1      -0.018   1.503   0.010  0.00  0.00    +0.044 C 
ATOM     18  C   UNL     1       0.002  -0.004   0.002  0.00  0.00    -0.050 A 
ATOM     19  C   UNL     1       0.006  -0.689  -1.199  0.00  0.00    +0.005 A 
ATOM     20  C   UNL     1       0.025  -2.071  -1.206  0.00  0.00    +0.029 A 
ATOM     21  C   UNL     1       0.040  -2.768  -0.013  0.00  0.00    +0.106 A 
ATOM     22  C   UNL     1       0.037  -2.084   1.188  0.00  0.00    +0.029 A 
ATOM     23  C   UNL     1       0.023  -0.702   1.195  0.00  0.00    +0.005 A 
ENDBRANCH  14  21
ENDBRANCH  13  14
BRANCH  13  24
ATOM     24  C   UNL     1       2.360  -5.214   1.229  0.00  0.00    +0.138 C 
BRANCH  24  25
ATOM     25  C   UNL     1       2.304  -6.697   1.601  0.00  0.00    +0.176 C 
BRANCH  25  26
ATOM     26  O   UNL     1       3.024  -7.459   0.629  0.00  0.00    -0.382 OA
ATOM     27  C   UNL     1       3.034  -8.865   0.883  0.00  0.00    +0.194 C 
ENDBRANCH  25  26
ENDBRANCH  24  25
ENDBRANCH  13  24
ENDBRANCH  12  13
ENDBRANCH   1  12
BRANCH  11  28
ATOM     28  C   UNL     1       3.823  -1.980  -4.354  0.00  0.00    +0.256 C 
BRANCH  28  29
ATOM     29  O   UNL     1       3.879  -2.815  -5.512  0.00  0.00    -0.490 OA
BRANCH  29  30
ATOM     30  C   UNL     1       3.290  -2.344  -6.642  0.00  0.00    +0.123 A 
ATOM     31  C   UNL     1       2.676  -1.100  -6.639  0.00  0.00    +0.046 A 
ATOM     32  C   UNL     1       2.078  -0.623  -7.789  0.00  0.00    +0.004 A 
ATOM     33  C   UNL     1       2.092  -1.384  -8.944  0.00  0.00    +0.000 A 
ATOM     34  C   UNL     1       2.703  -2.624  -8.950  0.00  0.00    +0.007 A 
ATOM     35  C   UNL     1       3.307  -3.103  -7.803  0.00  0.00    -0.009 A 
ATOM     36  C   UNL     1       3.978  -4.452  -7.812  0.00  0.00    +0.047 C 
ENDBRANCH  29  30
ENDBRANCH  28  29
ENDBRANCH  11  28
TORSDOF 10
