REMARK  Name = ZINC57371643
REMARK  11 active torsions:
REMARK  status: ('A' for Active; 'I' for Inactive)
REMARK    1  A    between atoms: N_9  and  C_10
REMARK    2  A    between atoms: C_10  and  C_11
REMARK    3  A    between atoms: C_11  and  C_13
REMARK    4  A    between atoms: C_11  and  O_30
REMARK    5  A    between atoms: C_13  and  O_14
REMARK    6  A    between atoms: O_14  and  C_15
REMARK    7  A    between atoms: C_15  and  C_16
REMARK    8  A    between atoms: C_15  and  C_23
REMARK    9  A    between atoms: N_31  and  C_32
REMARK   10  A    between atoms: C_32  and  C_33
REMARK   11  A    between atoms: C_33  and  O_34
REMARK                            x       y       z     vdW  Elec       q    Type
REMARK                         _______ _______ _______ _____ _____    ______ ____
ROOT
ATOM      1  C   UNL     1       5.396  -0.501   1.389  0.00  0.00    +0.160 C 
ENDROOT
BRANCH   1   2
ATOM      2  O   UNL     1       4.793   0.619   2.040  0.00  0.00    -0.388 OA
ATOM      3  H   UNL     1       4.979   1.468   1.615  0.00  0.00    +0.210 HD
ENDBRANCH   1   2
BRANCH   1   4
ATOM      4  C   UNL     1       4.882  -0.594  -0.049  0.00  0.00    +0.158 C 
BRANCH   4  13
ATOM      5  C   UNL     1      -0.017   1.373   0.010  0.00  0.00    +0.002 A 
ATOM      6  C   UNL     1       1.169   2.093   0.002  0.00  0.00    +0.002 A 
ATOM      7  C   UNL     1       2.384   1.439  -0.013  0.00  0.00    +0.028 A 
ATOM      8  C   UNL     1       2.421   0.053  -0.021  0.00  0.00    +0.068 A 
ATOM      9  C   UNL     1       1.224  -0.681  -0.013  0.00  0.00    +0.065 A 
ATOM     10  C   UNL     1       0.002  -0.004   0.002  0.00  0.00    +0.028 A 
ATOM     11  N   UNL     1       1.562  -1.998  -0.024  0.00  0.00    -0.327 N 
ATOM     12  C   UNL     1       2.866  -2.117  -0.037  0.00  0.00    +0.174 A 
ATOM     13  N   UNL     1       3.445  -0.880  -0.036  0.00  0.00    -0.311 N 
ATOM     14  N   UNL     1       3.552  -3.313  -0.050  0.00  0.00    -0.314 N 
ATOM     15  H   UNL     1       4.522  -3.316  -0.059  0.00  0.00    +0.149 HD
ATOM     16  H   UNL     1       0.933  -2.736  -0.021  0.00  0.00    +0.169 HD
BRANCH  14  17
ATOM     17  C   UNL     1       2.816  -4.580  -0.050  0.00  0.00    +0.132 C 
BRANCH  17  18
ATOM     18  C   UNL     1       3.807  -5.745  -0.066  0.00  0.00    +0.174 C 
BRANCH  18  19
ATOM     19  O   UNL     1       4.561  -5.746   1.149  0.00  0.00    -0.393 OA
ATOM     20  H   UNL     1       5.210  -6.460   1.208  0.00  0.00    +0.209 HD
ENDBRANCH  18  19
ENDBRANCH  17  18
ENDBRANCH  14  17
ENDBRANCH   4  13
ENDBRANCH   1   4
BRANCH   1  21
ATOM     21  C   UNL     1       6.916  -0.326   1.377  0.00  0.00    +0.194 C 
BRANCH  21  22
ATOM     22  O   UNL     1       7.410  -0.356   2.717  0.00  0.00    -0.365 OA
BRANCH  22  23
ATOM     23  C   UNL     1       8.827  -0.200   2.818  0.00  0.00    +0.178 C 
BRANCH  23  24
ATOM     24  C   UNL     1       9.167   0.470   4.124  0.00  0.00    -0.014 A 
ATOM     25  C   UNL     1       8.486   0.124   5.277  0.00  0.00    +0.009 A 
ATOM     26  C   UNL     1       8.797   0.738   6.475  0.00  0.00    +0.039 A 
ATOM     27  C   UNL     1       9.791   1.701   6.521  0.00  0.00    +0.123 A 
ATOM     28  C   UNL     1      10.472   2.048   5.366  0.00  0.00    +0.039 A 
ATOM     29  C   UNL     1      10.163   1.428   4.170  0.00  0.00    +0.009 A 
ATOM     30  F   UNL     1      10.095   2.302   7.692  0.00  0.00    -0.205 F 
ENDBRANCH  23  24
BRANCH  23  31
ATOM     31  C   UNL     1       9.486  -1.554   2.763  0.00  0.00    -0.014 A 
ATOM     32  C   UNL     1       8.863  -2.650   3.330  0.00  0.00    +0.009 A 
ATOM     33  C   UNL     1       9.467  -3.892   3.279  0.00  0.00    +0.039 A 
ATOM     34  C   UNL     1      10.696  -4.039   2.660  0.00  0.00    +0.123 A 
ATOM     35  C   UNL     1      11.320  -2.941   2.092  0.00  0.00    +0.039 A 
ATOM     36  C   UNL     1      10.712  -1.700   2.140  0.00  0.00    +0.009 A 
ATOM     37  F   UNL     1      11.288  -5.253   2.610  0.00  0.00    -0.205 F 
ENDBRANCH  23  31
ENDBRANCH  22  23
ENDBRANCH  21  22
ENDBRANCH   1  21
TORSDOF 11
