REMARK  Name = ZINC02195482
REMARK  8 active torsions:
REMARK  status: ('A' for Active; 'I' for Inactive)
REMARK    1  A    between atoms: C_1  and  N_45
REMARK    2  A    between atoms: C_2  and  N_45
REMARK    3  A    between atoms: C_3  and  C_4
REMARK    4  A    between atoms: C_3  and  N_45
REMARK    5  A    between atoms: C_5  and  C_15
REMARK    6  A    between atoms: N_17  and  N_18
REMARK    7  A    between atoms: C_19  and  C_20
REMARK    8  A    between atoms: C_24  and  N_26
REMARK                            x       y       z     vdW  Elec       q    Type
REMARK                         _______ _______ _______ _____ _____    ______ ____
ROOT
ATOM      1  C   UNL     1       1.080   2.284   0.004  0.00  0.00    +0.063 A 
ATOM      2  C   UNL     1      -0.018   1.470   0.010  0.00  0.00    +0.170 A 
ATOM      3  N   UNL     1      -1.119   2.241   0.019  0.00  0.00    -0.124 NA
ATOM      4  N   UNL     1      -0.777   3.483   0.027  0.00  0.00    -0.058 NA
ATOM      5  N   UNL     1       0.623   3.556   0.014  0.00  0.00    -0.194 N 
ATOM      6  C   UNL     1       1.397   4.721   0.014  0.00  0.00    +0.240 A 
ATOM      7  C   UNL     1       0.883   6.094   0.025  0.00  0.00    +0.206 A 
ATOM      8  N   UNL     1       1.899   6.913   0.020  0.00  0.00    -0.032 NA
ATOM      9  O   UNL     1       3.083   6.135   0.006  0.00  0.00    -0.239 OA
ATOM     10  N   UNL     1       2.699   4.771   0.008  0.00  0.00    -0.027 NA
ATOM     11  N   UNL     1      -0.458   6.460   0.038  0.00  0.00    -0.337 N 
ATOM     12  H   UNL     1      -1.147   5.777   0.040  0.00  0.00    +0.144 HD
ATOM     13  H   UNL     1      -0.705   7.398   0.045  0.00  0.00    +0.144 HD
ENDROOT
BRANCH   2  14
ATOM     14  C   UNL     1       0.002  -0.004   0.002  0.00  0.00    +0.285 C 
ATOM     15  O   UNL     1       1.063  -0.598  -0.011  0.00  0.00    -0.267 OA
ATOM     16  N   UNL     1      -1.156  -0.694   0.009  0.00  0.00    -0.202 N 
ATOM     17  H   UNL     1      -2.002  -0.220   0.020  0.00  0.00    +0.178 HD
BRANCH  16  18
ATOM     18  N   UNL     1      -1.137  -2.095   0.002  0.00  0.00    -0.187 NA
ATOM     19  C   UNL     1      -2.252  -2.759   0.009  0.00  0.00    +0.138 C 
BRANCH  19  20
ATOM     20  C   UNL     1      -2.232  -4.233   0.001  0.00  0.00    -0.003 A 
ATOM     21  C   UNL     1      -1.014  -4.918  -0.021  0.00  0.00    +0.011 A 
ATOM     22  C   UNL     1      -1.002  -6.297  -0.023  0.00  0.00    +0.023 A 
ATOM     23  C   UNL     1      -2.194  -7.003  -0.015  0.00  0.00    +0.071 A 
ATOM     24  C   UNL     1      -3.404  -6.330   0.000  0.00  0.00    +0.145 A 
ATOM     25  C   UNL     1      -3.430  -4.951   0.008  0.00  0.00    +0.043 A 
ATOM     26 CL   UNL     1      -2.171  -8.739  -0.025  0.00  0.00    -0.081 Cl
BRANCH  24  27
ATOM     27  N   UNL     1      -4.673  -7.092   0.008  0.00  0.00    +0.058 N 
ATOM     28  O   UNL     1      -5.738  -6.502   0.022  0.00  0.00    -0.126 OA
ATOM     29  O   UNL     1      -4.652  -8.310   0.001  0.00  0.00    -0.126 OA
ENDBRANCH  24  27
ENDBRANCH  19  20
ENDBRANCH  16  18
ENDBRANCH   2  14
BRANCH   1  30
ATOM     30  C   UNL     1       2.522   1.847  -0.011  0.00  0.00    -0.021 C 
BRANCH  30  33
ATOM     31  C   UNL     1       2.312   0.598   2.052  0.00  0.00    -0.096 C 
ATOM     32  C   UNL     1       4.459   1.507   1.400  0.00  0.00    -0.096 C 
ATOM     33  N   UNL     1       2.997   1.724   1.383  0.00  0.00    +0.380 N 
ATOM     34  H   UNL     1       2.783   2.592   1.887  0.00  0.00    -0.082 HD
ENDBRANCH  30  33
ENDBRANCH   1  30
TORSDOF 6
