REMARK  Name = ZINC40389093
REMARK  5 active torsions:
REMARK  status: ('A' for Active; 'I' for Inactive)
REMARK    1  A    between atoms: C_1  and  C_2
REMARK    2  A    between atoms: C_21  and  C_23
REMARK    3  A    between atoms: N_25  and  C_26
REMARK    4  A    between atoms: C_26  and  C_27
REMARK    5  A    between atoms: C_27  and  C_28
REMARK                            x       y       z     vdW  Elec       q    Type
REMARK                         _______ _______ _______ _____ _____    ______ ____
ROOT
ATOM      1  C   UNL     1       0.024   1.525  -0.014  0.00  0.00    +0.028 C 
ATOM      2  C   UNL     1       0.021  -0.005  -0.009  0.00  0.00    +0.073 C 
ATOM      3  C   UNL     1       0.642  -0.524  -1.309  0.00  0.00    +0.022 C 
ATOM      4  C   UNL     1       0.764  -2.048  -1.239  0.00  0.00    +0.003 C 
ATOM      5  C   UNL     1       1.683  -2.435  -0.078  0.00  0.00    +0.019 C 
ATOM      6  C   UNL     1       1.074  -1.938   1.237  0.00  0.00    +0.108 C 
ATOM      7  N   UNL     1       0.816  -0.495   1.126  0.00  0.00    -0.298 N 
ATOM      8  C   UNL     1       1.310   0.376   2.060  0.00  0.00    +0.200 A 
ATOM      9  N   UNL     1       2.151  -0.088   3.023  0.00  0.00    -0.295 N 
ATOM     10  H   UNL     1       2.404  -1.024   3.035  0.00  0.00    +0.172 HD
ATOM     11  C   UNL     1       2.634   0.754   3.963  0.00  0.00    +0.258 A 
ATOM     12  O   UNL     1       3.377   0.346   4.842  0.00  0.00    -0.267 OA
ATOM     13  C   UNL     1       2.265   2.101   3.908  0.00  0.00    +0.069 A 
ATOM     14  C   UNL     1       1.423   2.529   2.897  0.00  0.00    +0.138 A 
ATOM     15  N   UNL     1       0.963   1.645   2.003  0.00  0.00    -0.200 NA
ATOM     16  N   UNL     1       1.078   3.865   2.795  0.00  0.00    -0.270 N 
ATOM     17  C   UNL     1       1.739   4.805   3.491  0.00  0.00    +0.219 C 
ATOM     18  O   UNL     1       1.349   5.953   3.468  0.00  0.00    -0.275 OA
ATOM     19  C   UNL     1       2.958   4.449   4.301  0.00  0.00    +0.114 C 
ATOM     20  C   UNL     1       2.768   3.072   4.942  0.00  0.00    +0.122 C 
ATOM     21  H   UNL     1       0.348   4.127   2.211  0.00  0.00    +0.156 HD
ENDROOT
BRANCH  20  22
ATOM     22  C   UNL     1       4.086   2.587   5.487  0.00  0.00    +0.221 C 
ATOM     23  O   UNL     1       5.056   2.523   4.762  0.00  0.00    -0.275 OA
ATOM     24  N   UNL     1       4.187   2.224   6.781  0.00  0.00    -0.314 N 
ATOM     25  H   UNL     1       3.412   2.275   7.361  0.00  0.00    +0.149 HD
BRANCH  24  26
ATOM     26  C   UNL     1       5.469   1.752   7.311  0.00  0.00    +0.109 C 
BRANCH  26  27
ATOM     27  C   UNL     1       5.311   1.407   8.794  0.00  0.00    +0.054 C 
BRANCH  27  28
ATOM     28  C   UNL     1       6.630   0.921   9.339  0.00  0.00    -0.046 A 
ATOM     29  C   UNL     1       6.944  -0.424   9.292  0.00  0.00    +0.004 A 
ATOM     30  C   UNL     1       8.153  -0.870   9.792  0.00  0.00    +0.000 A 
ATOM     31  C   UNL     1       9.048   0.030  10.339  0.00  0.00    +0.000 A 
ATOM     32  C   UNL     1       8.735   1.376  10.386  0.00  0.00    +0.000 A 
ATOM     33  C   UNL     1       7.527   1.822   9.882  0.00  0.00    +0.004 A 
ENDBRANCH  27  28
ENDBRANCH  26  27
ENDBRANCH  24  26
ENDBRANCH  20  22
TORSDOF 4
