REMARK  Name = ZINC08791254
REMARK  8 active torsions:
REMARK  status: ('A' for Active; 'I' for Inactive)
REMARK    1  A    between atoms: C_1  and  C_2
REMARK    2  A    between atoms: C_16  and  C_18
REMARK    3  A    between atoms: C_18  and  C_19
REMARK    4  A    between atoms: C_19  and  C_20
REMARK    5  A    between atoms: N_25  and  C_28
REMARK    6  A    between atoms: C_28  and  C_29
REMARK    7  A    between atoms: C_32  and  O_35
REMARK    8  A    between atoms: O_35  and  C_36
REMARK                            x       y       z     vdW  Elec       q    Type
REMARK                         _______ _______ _______ _____ _____    ______ ____
ROOT
ATOM      1  C   UNL     1       3.140   6.874   9.780  0.00  0.00    +0.045 C 
ATOM      2  C   UNL     1       3.514   7.479   8.451  0.00  0.00    -0.029 A 
ATOM      3  C   UNL     1       4.563   8.372   8.373  0.00  0.00    +0.005 A 
ATOM      4  C   UNL     1       4.913   8.932   7.158  0.00  0.00    +0.001 A 
ATOM      5  C   UNL     1       4.208   8.596   6.016  0.00  0.00    +0.004 A 
ATOM      6  C   UNL     1       3.161   7.706   6.089  0.00  0.00    -0.027 A 
ATOM      7  C   UNL     1       2.799   7.136   7.306  0.00  0.00    +0.039 A 
ATOM      8  N   UNL     1       1.716   6.271   7.131  0.00  0.00    -0.286 N 
ATOM      9  C   UNL     1       1.311   6.218   5.848  0.00  0.00    +0.211 C 
ATOM     10  O   UNL     1       0.397   5.556   5.404  0.00  0.00    -0.277 OA
ATOM     11  C   UNL     1       2.212   7.140   5.072  0.00  0.00    +0.050 C 
ATOM     12  C   UNL     1       1.413   8.245   4.370  0.00  0.00    +0.088 C 
ATOM     13  C   UNL     1       2.164   8.477   3.029  0.00  0.00    +0.073 C 
ATOM     14  C   UNL     1       3.350   7.490   3.062  0.00  0.00    -0.057 C 
ATOM     15  C   UNL     1       1.166   8.023   1.988  0.00  0.00    +0.224 C 
ATOM     16  O   UNL     1       1.353   8.027   0.790  0.00  0.00    -0.275 OA
ATOM     17  N   UNL     1       0.044   7.617   2.595  0.00  0.00    -0.237 N 
ATOM     18  C   UNL     1       0.071   7.707   3.929  0.00  0.00    +0.225 C 
ATOM     19  O   UNL     1      -0.839   7.402   4.670  0.00  0.00    -0.275 OA
ATOM     20  H   UNL     1       1.304   5.767   7.850  0.00  0.00    +0.155 HD
ATOM     21  N   UNL     1       2.924   6.455   4.007  0.00  0.00    +0.394 N 
ATOM     22  H   UNL     1       2.304   5.783   3.540  0.00  0.00    -0.083 HD
ATOM     23  H   UNL     1       3.741   5.963   4.386  0.00  0.00    -0.083 HD
ENDROOT
BRANCH  14  24
ATOM     24  C   UNL     1       3.597   6.908   1.669  0.00  0.00    -0.006 C 
BRANCH  24  25
ATOM     25  C   UNL     1       4.851   6.031   1.698  0.00  0.00    +0.094 C 
BRANCH  25  26
ATOM     26  C   UNL     1       5.094   5.457   0.326  0.00  0.00    +0.210 C 
ATOM     27  O   UNL     1       4.339   5.723  -0.585  0.00  0.00    -0.276 OA
ATOM     28  N   UNL     1       6.151   4.648   0.112  0.00  0.00    -0.329 N 
ATOM     29  H   UNL     1       6.755   4.436   0.841  0.00  0.00    +0.145 HD
ATOM     30  H   UNL     1       6.307   4.279  -0.771  0.00  0.00    +0.145 HD
ENDBRANCH  25  26
ENDBRANCH  24  25
ENDBRANCH  14  24
BRANCH  17  31
ATOM     31  C   UNL     1      -1.120   7.122   1.857  0.00  0.00    +0.151 C 
BRANCH  31  32
ATOM     32  C   UNL     1      -1.003   5.630   1.677  0.00  0.00    -0.029 A 
ATOM     33  C   UNL     1      -1.531   4.776   2.628  0.00  0.00    +0.009 A 
ATOM     34  C   UNL     1      -1.425   3.409   2.465  0.00  0.00    +0.046 A 
ATOM     35  C   UNL     1      -0.787   2.892   1.346  0.00  0.00    +0.120 A 
ATOM     36  C   UNL     1      -0.253   3.751   0.396  0.00  0.00    +0.046 A 
ATOM     37  C   UNL     1      -0.368   5.117   0.561  0.00  0.00    +0.009 A 
BRANCH  35  38
ATOM     38  O   UNL     1      -0.682   1.547   1.184  0.00  0.00    -0.495 OA
ATOM     39  C   UNL     1      -0.013   1.086   0.008  0.00  0.00    +0.277 C 
ENDBRANCH  35  38
ENDBRANCH  31  32
ENDBRANCH  17  31
TORSDOF 6
