REMARK  Name = ZINC00879750
REMARK  10 active torsions:
REMARK  status: ('A' for Active; 'I' for Inactive)
REMARK    1  A    between atoms: C_1  and  C_2
REMARK    2  A    between atoms: C_2  and  O_3
REMARK    3  A    between atoms: O_3  and  C_4
REMARK    4  A    between atoms: C_4  and  C_6
REMARK    5  A    between atoms: C_7  and  C_36
REMARK    6  A    between atoms: N_8  and  S_26
REMARK    7  A    between atoms: C_12  and  N_15
REMARK    8  A    between atoms: N_15  and  S_16
REMARK    9  A    between atoms: S_16  and  C_19
REMARK   10  A    between atoms: S_26  and  C_29
REMARK                            x       y       z     vdW  Elec       q    Type
REMARK                         _______ _______ _______ _____ _____    ______ ____
ROOT
ATOM      1  C   UNL     1      -1.127   1.875  -0.388  0.00  0.00    +0.089 A 
ATOM      2  C   UNL     1      -1.572   2.465   0.760  0.00  0.00    +0.055 A 
ATOM      3  N   UNL     1      -2.654   3.233   0.490  0.00  0.00    -0.215 N 
ATOM      4  C   UNL     1      -2.962   3.175  -0.856  0.00  0.00    +0.073 A 
ATOM      5  C   UNL     1      -2.022   2.331  -1.467  0.00  0.00    +0.018 A 
ATOM      6  C   UNL     1      -2.084   2.090  -2.837  0.00  0.00    +0.035 A 
ATOM      7  C   UNL     1      -3.077   2.690  -3.592  0.00  0.00    +0.049 A 
ATOM      8  C   UNL     1      -4.007   3.530  -2.984  0.00  0.00    +0.026 A 
ATOM      9  C   UNL     1      -3.957   3.766  -1.628  0.00  0.00    +0.030 A 
ATOM     10  C   UNL     1      -0.953   2.288   2.122  0.00  0.00    +0.066 C 
ENDROOT
BRANCH   3  11
ATOM     11  S   UNL     1      -3.489   4.116   1.614  0.00  0.00    +0.084 S 
ATOM     12  O   UNL     1      -2.586   4.376   2.680  0.00  0.00    -0.148 OA
ATOM     13  O   UNL     1      -4.150   5.155   0.905  0.00  0.00    -0.148 OA
BRANCH  11  14
ATOM     14  C   UNL     1      -4.750   3.071   2.266  0.00  0.00    +0.111 A 
ATOM     15  C   UNL     1      -5.997   3.041   1.671  0.00  0.00    +0.030 A 
ATOM     16  C   UNL     1      -6.985   2.217   2.178  0.00  0.00    +0.022 A 
ATOM     17  C   UNL     1      -6.727   1.431   3.288  0.00  0.00    +0.041 A 
ATOM     18  C   UNL     1      -5.480   1.467   3.886  0.00  0.00    +0.022 A 
ATOM     19  C   UNL     1      -4.492   2.287   3.374  0.00  0.00    +0.030 A 
ATOM     20 CL   UNL     1      -7.969   0.402   3.929  0.00  0.00    -0.084 Cl
ENDBRANCH  11  14
ENDBRANCH   3  11
BRANCH   1  21
ATOM     21  C   UNL     1       0.020   0.970  -0.521  0.00  0.00    +0.342 C 
ATOM     22  O   UNL     1      -0.135  -0.230  -0.397  0.00  0.00    -0.245 OA
BRANCH  21  23
ATOM     23  O   UNL     1       1.244   1.467  -0.788  0.00  0.00    -0.461 OA
BRANCH  23  25
ATOM     24  C   UNL     1       3.633   1.258  -1.214  0.00  0.00    +0.048 C 
ATOM     25  C   UNL     1       2.331   0.512  -0.913  0.00  0.00    +0.229 C 
ENDBRANCH  23  25
ENDBRANCH  21  23
ENDBRANCH   1  21
BRANCH   7  26
ATOM     26  N   UNL     1      -3.146   2.453  -4.969  0.00  0.00    -0.216 N 
ATOM     27  H   UNL     1      -2.858   3.136  -5.594  0.00  0.00    +0.174 HD
BRANCH  26  28
ATOM     28  S   UNL     1      -3.719   1.005  -5.532  0.00  0.00    +0.072 S 
ATOM     29  O   UNL     1      -3.685   1.079  -6.951  0.00  0.00    -0.150 OA
ATOM     30  O   UNL     1      -3.040  -0.011  -4.806  0.00  0.00    -0.150 OA
BRANCH  28  31
ATOM     31  C   UNL     1      -5.417   0.902  -5.073  0.00  0.00    +0.109 A 
ATOM     32  C   UNL     1      -5.772   0.346  -3.859  0.00  0.00    +0.030 A 
ATOM     33  C   UNL     1      -7.103   0.271  -3.496  0.00  0.00    +0.022 A 
ATOM     34  C   UNL     1      -8.082   0.742  -4.353  0.00  0.00    +0.041 A 
ATOM     35  C   UNL     1      -7.726   1.293  -5.571  0.00  0.00    +0.022 A 
ATOM     36  C   UNL     1      -6.394   1.373  -5.931  0.00  0.00    +0.030 A 
ATOM     37 CL   UNL     1      -9.755   0.641  -3.901  0.00  0.00    -0.084 Cl
ENDBRANCH  28  31
ENDBRANCH  26  28
ENDBRANCH   7  26
TORSDOF 8
