REMARK  Name = ZINC38701809
REMARK  7 active torsions:
REMARK  status: ('A' for Active; 'I' for Inactive)
REMARK    1  A    between atoms: C_4  and  O_37
REMARK    2  A    between atoms: C_5  and  C_7
REMARK    3  A    between atoms: N_15  and  C_29
REMARK    4  A    between atoms: C_16  and  C_18
REMARK    5  A    between atoms: C_21  and  O_24
REMARK    6  A    between atoms: O_24  and  C_25
REMARK    7  A    between atoms: C_25  and  C_26
REMARK                            x       y       z     vdW  Elec       q    Type
REMARK                         _______ _______ _______ _____ _____    ______ ____
ROOT
ATOM      1  C   UNL     1       1.243  -2.165  -0.024  0.00  0.00    +0.102 A 
ATOM      2  C   UNL     1       0.135  -3.014   0.075  0.00  0.00    +0.035 A 
ATOM      3  C   UNL     1       0.639  -4.299   0.022  0.00  0.00    +0.126 A 
ATOM      4  N   UNL     1       1.994  -4.170  -0.103  0.00  0.00    -0.272 N 
ATOM      5  H   UNL     1       2.620  -4.909  -0.165  0.00  0.00    +0.189 HD
ATOM      6  N   UNL     1       2.314  -2.926  -0.132  0.00  0.00    -0.173 NA
ATOM      7  C   UNL     1      -0.479  -5.243   0.122  0.00  0.00    +0.266 C 
ATOM      8  O   UNL     1      -0.368  -6.454   0.106  0.00  0.00    -0.268 OA
ATOM      9  N   UNL     1      -1.644  -4.580   0.234  0.00  0.00    -0.280 N 
ATOM     10  C   UNL     1      -1.357  -3.139   0.213  0.00  0.00    +0.142 C 
ENDROOT
BRANCH   9  11
ATOM     11  C   UNL     1      -2.970  -5.189   0.354  0.00  0.00    +0.100 C 
ATOM     12  C   UNL     1      -3.014  -6.096   1.596  0.00  0.00    +0.047 C 
ATOM     13  C   UNL     1      -4.282  -6.983   1.557  0.00  0.00    +0.168 C 
ATOM     14  S   UNL     1      -4.606  -7.146  -0.246  0.00  0.00    -0.029 S 
ATOM     15  O   UNL     1      -5.861  -6.552  -0.546  0.00  0.00    -0.174 OA
ATOM     16  O   UNL     1      -4.355  -8.488  -0.641  0.00  0.00    -0.174 OA
ATOM     17  C   UNL     1      -3.261  -6.068  -0.896  0.00  0.00    +0.188 C 
ENDBRANCH   9  11
BRANCH   1  22
ATOM     18  C   UNL     1       0.275   1.387  -0.789  0.00  0.00    +0.001 A 
ATOM     19  C   UNL     1       1.167   2.090   0.000  0.00  0.00    +0.004 A 
ATOM     20  C   UNL     1       2.086   1.418   0.783  0.00  0.00    +0.046 A 
ATOM     21  C   UNL     1       2.117   0.032   0.781  0.00  0.00    +0.126 A 
ATOM     22  C   UNL     1       1.217  -0.681  -0.015  0.00  0.00    +0.044 A 
ATOM     23  C   UNL     1       0.295   0.007  -0.800  0.00  0.00    +0.014 A 
BRANCH  21  24
ATOM     24  O   UNL     1       3.020  -0.630   1.550  0.00  0.00    -0.506 OA
ATOM     25  H   UNL     1       2.704  -0.836   2.440  0.00  0.00    +0.292 HD
ENDBRANCH  21  24
ENDBRANCH   1  22
BRANCH  10  26
ATOM     26  C   UNL     1      -1.815  -2.502   1.500  0.00  0.00    -0.022 A 
ATOM     27  C   UNL     1      -1.564  -3.128   2.707  0.00  0.00    +0.009 A 
ATOM     28  C   UNL     1      -1.983  -2.546   3.888  0.00  0.00    +0.046 A 
ATOM     29  C   UNL     1      -2.655  -1.333   3.862  0.00  0.00    +0.121 A 
ATOM     30  C   UNL     1      -2.905  -0.707   2.649  0.00  0.00    +0.046 A 
ATOM     31  C   UNL     1      -2.480  -1.290   1.472  0.00  0.00    +0.009 A 
BRANCH  29  32
ATOM     32  O   UNL     1      -3.069  -0.758   5.022  0.00  0.00    -0.483 OA
BRANCH  32  33
ATOM     33  C   UNL     1      -3.755   0.491   4.919  0.00  0.00    +0.324 C 
BRANCH  33  34
ATOM     34  C   UNL     1      -4.133   0.971   6.296  0.00  0.00    +0.248 C 
ATOM     35  O   UNL     1      -3.844   0.309   7.270  0.00  0.00    -0.272 OA
ATOM     36  N   UNL     1      -4.793   2.137   6.446  0.00  0.00    -0.327 N 
ATOM     37  H   UNL     1      -5.024   2.667   5.667  0.00  0.00    +0.145 HD
ATOM     38  H   UNL     1      -5.037   2.446   7.333  0.00  0.00    +0.145 HD
ENDBRANCH  33  34
ENDBRANCH  32  33
ENDBRANCH  29  32
ENDBRANCH  10  26
TORSDOF 7
