REMARK  Name = ZINC36610178
REMARK  12 active torsions:
REMARK  status: ('A' for Active; 'I' for Inactive)
REMARK    1  A    between atoms: C_1  and  C_2
REMARK    2  A    between atoms: C_3  and  C_4
REMARK    3  A    between atoms: C_4  and  C_6
REMARK    4  A    between atoms: C_4  and  N_20
REMARK    5  A    between atoms: N_8  and  C_9
REMARK    6  A    between atoms: C_9  and  S_10
REMARK    7  A    between atoms: S_10  and  C_13
REMARK    8  A    between atoms: C_16  and  C_19
REMARK    9  A    between atoms: N_20  and  C_21
REMARK   10  A    between atoms: C_27  and  C_29
REMARK   11  A    between atoms: C_30  and  O_36
REMARK   12  A    between atoms: C_34  and  O_35
REMARK                            x       y       z     vdW  Elec       q    Type
REMARK                         _______ _______ _______ _____ _____    ______ ____
ROOT
ATOM      1  C   UNL     1       1.182   0.108  -2.198  0.00  0.00    +0.190 C 
ENDROOT
BRANCH   1   2
ATOM      2  C   UNL     1       2.490  -0.565  -2.528  0.00  0.00    +0.239 C 
ATOM      3  O   UNL     1       3.533   0.041  -2.400  0.00  0.00    -0.273 OA
ATOM      4  N   UNL     1       2.500  -1.840  -2.965  0.00  0.00    -0.294 N 
ATOM      5  H   UNL     1       1.666  -2.324  -3.067  0.00  0.00    +0.150 HD
BRANCH   4   6
ATOM      6  C   UNL     1       3.771  -2.494  -3.286  0.00  0.00    +0.278 C 
BRANCH   6   7
ATOM      7  S   UNL     1       4.345  -3.439  -1.847  0.00  0.00    +0.013 S 
ATOM      8  O   UNL     1       5.545  -4.130  -2.163  0.00  0.00    -0.168 OA
ATOM      9  O   UNL     1       4.254  -2.645  -0.672  0.00  0.00    -0.168 OA
BRANCH   7  10
ATOM     10  C   UNL     1       3.140  -4.706  -1.628  0.00  0.00    +0.090 A 
ATOM     11  C   UNL     1       2.039  -4.480  -0.824  0.00  0.00    +0.027 A 
ATOM     12  C   UNL     1       1.094  -5.474  -0.651  0.00  0.00    +0.005 A 
ATOM     13  C   UNL     1       1.250  -6.693  -1.284  0.00  0.00    -0.050 A 
ATOM     14  C   UNL     1       2.351  -6.918  -2.089  0.00  0.00    +0.005 A 
ATOM     15  C   UNL     1       3.294  -5.923  -2.265  0.00  0.00    +0.027 A 
ATOM     16  C   UNL     1       0.220  -7.777  -1.096  0.00  0.00    +0.044 C 
ENDBRANCH   7  10
ENDBRANCH   6   7
ENDBRANCH   4   6
ENDBRANCH   1   2
BRANCH   1  19
ATOM     17  C   UNL     1      -1.221  -1.263  -2.742  0.00  0.00    +0.035 C 
ATOM     18  C   UNL     1      -0.659  -1.250  -1.343  0.00  0.00    -0.032 C 
ATOM     19  C   UNL     1       0.485  -0.658  -1.103  0.00  0.00    +0.000 C 
ENDBRANCH   1  19
BRANCH   1  20
ATOM     20  N   UNL     1       1.438   1.478  -1.748  0.00  0.00    -0.252 N 
ATOM     21  C   UNL     1       0.993   2.521  -2.477  0.00  0.00    +0.259 C 
ATOM     22  O   UNL     1       1.298   3.656  -2.164  0.00  0.00    -0.269 OA
BRANCH  20  23
ATOM     23  C   UNL     1       2.145   1.705  -0.563  0.00  0.00    +0.038 A 
ATOM     24  C   UNL     1       2.752   0.645   0.099  0.00  0.00    +0.023 A 
ATOM     25  C   UNL     1       3.449   0.873   1.269  0.00  0.00    +0.002 A 
ATOM     26  C   UNL     1       3.543   2.153   1.783  0.00  0.00    +0.000 A 
ATOM     27  C   UNL     1       2.939   3.210   1.127  0.00  0.00    +0.002 A 
ATOM     28  C   UNL     1       2.246   2.991  -0.048  0.00  0.00    +0.023 A 
ENDBRANCH  20  23
BRANCH  21  29
ATOM     29  C   UNL     1       0.136   2.286  -3.651  0.00  0.00    +0.120 A 
ATOM     30  C   UNL     1      -1.260   2.352  -3.531  0.00  0.00    +0.133 A 
ATOM     31  C   UNL     1      -2.057   2.130  -4.643  0.00  0.00    +0.046 A 
ATOM     32  C   UNL     1      -1.480   1.843  -5.866  0.00  0.00    +0.007 A 
ATOM     33  C   UNL     1      -0.106   1.776  -5.995  0.00  0.00    +0.046 A 
ATOM     34  C   UNL     1       0.710   2.000  -4.898  0.00  0.00    +0.133 A 
BRANCH  34  35
ATOM     35  O   UNL     1       2.059   1.939  -5.029  0.00  0.00    -0.506 OA
ATOM     36  H   UNL     1       2.421   1.045  -4.955  0.00  0.00    +0.292 HD
ENDBRANCH  34  35
BRANCH  30  37
ATOM     37  O   UNL     1      -1.828   2.632  -2.331  0.00  0.00    -0.506 OA
ATOM     38  H   UNL     1      -1.968   3.576  -2.173  0.00  0.00    +0.292 HD
ENDBRANCH  30  37
ENDBRANCH  21  29
ENDBRANCH   1  20
TORSDOF 10
