REMARK  Name = ZINC40774515
REMARK  9 active torsions:
REMARK  status: ('A' for Active; 'I' for Inactive)
REMARK    1  A    between atoms: CD1_1  and  CG_2
REMARK    2  A    between atoms: CG_2  and  CD2_3
REMARK    3  A    between atoms: CG_2  and  CB_4
REMARK    4  A    between atoms: CB_4  and  CA_5
REMARK    5  A    between atoms: CA_5  and  C_7
REMARK    6  A    between atoms: CA_5  and  N_9
REMARK    7  A    between atoms: C_7  and  O_8
REMARK    8  A    between atoms: N_9  and  C_10
REMARK    9  A    between atoms: C_13  and  N_17
REMARK                            x       y       z     vdW  Elec       q    Type
REMARK                         _______ _______ _______ _____ _____    ______ ____
ROOT
ATOM      1  C   UNK A   0       3.994  -0.179   0.494  0.00  0.00    +0.099 A 
ATOM      2  C   UNK A   0       4.672   0.845  -0.156  0.00  0.00    +0.149 A 
ATOM      3  C   UNK A   0       5.796   1.407   0.422  0.00  0.00    +0.063 A 
ATOM      4  C   UNK A   0       6.248   0.946   1.651  0.00  0.00    +0.030 A 
ATOM      5  C   UNK A   0       5.572  -0.077   2.302  0.00  0.00    +0.063 A 
ATOM      6  C   UNK A   0       4.444  -0.635   1.727  0.00  0.00    +0.149 A 
ATOM      7  F   UNK A   0       3.783  -1.627   2.363  0.00  0.00    -0.203 F 
ATOM      8  F   UNK A   0       4.232   1.292  -1.353  0.00  0.00    -0.203 F 
ENDROOT
BRANCH   4   9
ATOM      9  N   UNK A   0       7.386   1.514   2.235  0.00  0.00    -0.358 N 
ATOM     10  H   UNK A   0       7.859   2.229   1.781  0.00  0.00    +0.142 HD
ATOM     11  H   UNK A   0       7.702   1.193   3.094  0.00  0.00    +0.142 HD
ENDBRANCH   4   9
BRANCH   1  12
ATOM     12  N   LEU A   1       2.854  -0.750  -0.092  0.00  0.00    -0.334 N 
ATOM     13  H   LEU A   1       2.507  -1.592   0.242  0.00  0.00    +0.147 HD
BRANCH  12  14
ATOM     14  CA  LEU A   1       2.187  -0.073  -1.207  0.00  0.00    +0.096 C 
BRANCH  14  15
ATOM     15  CB  LEU A   1       0.718  -0.497  -1.257  0.00  0.00    +0.027 C 
BRANCH  15  17
ATOM     16  CD1 LEU A   1      -0.019   1.526   0.010  0.00  0.00    +0.007 C 
ATOM     17  CG  LEU A   1       0.002  -0.004   0.002  0.00  0.00    -0.015 C 
ATOM     18  CD2 LEU A   1      -1.433  -0.534   0.013  0.00  0.00    +0.007 C 
ENDBRANCH  15  17
ENDBRANCH  14  15
BRANCH  14  19
ATOM     19  C   LEU A   1       2.874  -0.457  -2.520  0.00  0.00    +0.178 C 
BRANCH  19  20
ATOM     20  O   LEU A   1       2.692  -1.853  -2.762  0.00  0.00    -0.393 OA
ATOM     21  H   LEU A   1       3.102  -2.167  -3.579  0.00  0.00    +0.209 HD
ENDBRANCH  19  20
ENDBRANCH  14  19
ENDBRANCH  12  14
ENDBRANCH   1  12
TORSDOF 7
