REMARK  Name = ZINC17164462
REMARK  16 active torsions:
REMARK  status: ('A' for Active; 'I' for Inactive)
REMARK    1  A    between atoms: C_1  and  C_2
REMARK    2  A    between atoms: C_2  and  O_3
REMARK    3  A    between atoms: O_3  and  C_4
REMARK    4  A    between atoms: C_4  and  C_6
REMARK    5  A    between atoms: C_6  and  C_7
REMARK    6  A    between atoms: C_7  and  C_8
REMARK    7  A    between atoms: C_8  and  C_10
REMARK    8  A    between atoms: C_8  and  N_15
REMARK    9  A    between atoms: C_10  and  O_12
REMARK   10  A    between atoms: O_12  and  C_13
REMARK   11  A    between atoms: C_13  and  C_14
REMARK   12  A    between atoms: C_16  and  C_18
REMARK   13  A    between atoms: C_21  and  N_24
REMARK   14  A    between atoms: N_24  and  S_25
REMARK   15  A    between atoms: S_25  and  C_28
REMARK   16  A    between atoms: C_31  and  N_34
REMARK                            x       y       z     vdW  Elec       q    Type
REMARK                         _______ _______ _______ _____ _____    ______ ____
ROOT
ATOM      1  C   UNL     1       3.436   3.878  -0.559  0.00  0.00    +0.037 A 
ATOM      2  C   UNL     1       2.242   4.274  -1.170  0.00  0.00    +0.015 A 
ATOM      3  C   UNL     1       1.096   3.535  -0.982  0.00  0.00    +0.025 A 
ATOM      4  C   UNL     1       1.125   2.395  -0.183  0.00  0.00    +0.048 A 
ATOM      5  C   UNL     1       2.310   2.002   0.431  0.00  0.00    +0.025 A 
ATOM      6  C   UNL     1       3.461   2.732   0.241  0.00  0.00    +0.015 A 
ENDROOT
BRANCH   1   8
ATOM      7  N   UNL     1       5.816   4.284  -0.170  0.00  0.00    -0.298 N 
ATOM      8  C   UNL     1       4.666   4.667  -0.760  0.00  0.00    +0.245 C 
ATOM      9  O   UNL     1       4.642   5.663  -1.457  0.00  0.00    -0.270 OA
ATOM     10  H   UNL     1       5.834   3.490   0.386  0.00  0.00    +0.150 HD
BRANCH   7  11
ATOM     11  C   UNL     1       7.037   5.068  -0.370  0.00  0.00    +0.183 C 
BRANCH  11  12
ATOM     12  C   UNL     1       7.713   4.629  -1.643  0.00  0.00    +0.328 C 
ATOM     13  O   UNL     1       7.224   3.752  -2.316  0.00  0.00    -0.249 OA
BRANCH  12  14
ATOM     14  O   UNL     1       8.858   5.213  -2.031  0.00  0.00    -0.464 OA
BRANCH  14  15
ATOM     15  C   UNL     1       9.453   4.740  -3.268  0.00  0.00    +0.229 C 
ATOM     16  C   UNL     1      10.742   5.518  -3.544  0.00  0.00    +0.048 C 
ENDBRANCH  14  15
ENDBRANCH  12  14
ENDBRANCH  11  12
BRANCH  11  17
ATOM     17  C   UNL     1       7.984   4.846   0.812  0.00  0.00    +0.045 C 
BRANCH  17  18
ATOM     18  C   UNL     1       7.347   5.405   2.087  0.00  0.00    +0.123 C 
BRANCH  18  19
ATOM     19  C   UNL     1       8.279   5.187   3.251  0.00  0.00    +0.307 C 
ATOM     20  O   UNL     1       9.343   4.641   3.079  0.00  0.00    -0.251 OA
BRANCH  19  21
ATOM     21  O   UNL     1       7.928   5.600   4.478  0.00  0.00    -0.465 OA
BRANCH  21  23
ATOM     22  C   UNL     1       8.304   5.892   6.867  0.00  0.00    +0.048 C 
ATOM     23  C   UNL     1       8.874   5.357   5.552  0.00  0.00    +0.229 C 
ENDBRANCH  21  23
ENDBRANCH  19  21
ENDBRANCH  18  19
ENDBRANCH  17  18
ENDBRANCH  11  17
ENDBRANCH   7  11
ENDBRANCH   1   8
BRANCH   4  24
ATOM     24  N   UNL     1      -0.035   1.651   0.005  0.00  0.00    -0.216 N 
ATOM     25  H   UNL     1      -0.873   2.100   0.198  0.00  0.00    +0.174 HD
BRANCH  24  26
ATOM     26  S   UNL     1       0.014  -0.000  -0.105  0.00  0.00    +0.072 S 
ATOM     27  O   UNL     1       1.068  -0.433   0.745  0.00  0.00    -0.150 OA
ATOM     28  O   UNL     1      -1.323  -0.457   0.046  0.00  0.00    -0.150 OA
BRANCH  26  29
ATOM     29  C   UNL     1       0.500  -0.398  -1.752  0.00  0.00    +0.109 A 
ATOM     30  C   UNL     1      -0.450  -0.458  -2.755  0.00  0.00    +0.030 A 
ATOM     31  C   UNL     1      -0.072  -0.764  -4.048  0.00  0.00    +0.024 A 
ATOM     32  C   UNL     1       1.262  -1.023  -4.337  0.00  0.00    +0.025 A 
ATOM     33  C   UNL     1       2.212  -0.968  -3.325  0.00  0.00    +0.024 A 
ATOM     34  C   UNL     1       1.828  -0.656  -2.036  0.00  0.00    +0.030 A 
BRANCH  32  35
ATOM     35  N   UNL     1       1.647  -1.338  -5.642  0.00  0.00    -0.358 N 
ATOM     36  H   UNL     1       2.578  -1.519  -5.843  0.00  0.00    +0.142 HD
ATOM     37  H   UNL     1       0.982  -1.377  -6.348  0.00  0.00    +0.142 HD
ENDBRANCH  32  35
ENDBRANCH  26  29
ENDBRANCH  24  26
ENDBRANCH   4  24
TORSDOF 14
