REMARK  Name = ZINC33421934
REMARK  8 active torsions:
REMARK  status: ('A' for Active; 'I' for Inactive)
REMARK    1  A    between atoms: C_1  and  C_2
REMARK    2  A    between atoms: C_2  and  C_3
REMARK    3  A    between atoms: C_3  and  C_5
REMARK    4  A    between atoms: C_3  and  C_6
REMARK    5  A    between atoms: C_6  and  C_37
REMARK    6  A    between atoms: C_11  and  C_14
REMARK    7  A    between atoms: N_26  and  C_29
REMARK    8  A    between atoms: C_32  and  C_36
REMARK                            x       y       z     vdW  Elec       q    Type
REMARK                         _______ _______ _______ _____ _____    ______ ____
ROOT
ATOM      1  C   UNL     1      -0.631   2.215  -1.211  0.00  0.00    +0.051 C 
ATOM      2  C   UNL     1      -0.637   3.688  -1.026  0.00  0.00    +0.086 C 
ATOM      3  C   UNL     1       0.831   4.055  -1.492  0.00  0.00    +0.077 C 
ATOM      4  C   UNL     1       0.824   3.310  -2.805  0.00  0.00    -0.026 C 
ATOM      5  N   UNL     1       0.224   1.987  -2.422  0.00  0.00    +0.396 N 
ATOM      6  C   UNL     1       0.746   5.522  -1.312  0.00  0.00    +0.229 C 
ATOM      7  O   UNL     1       1.265   6.378  -1.995  0.00  0.00    -0.275 OA
ATOM      8  N   UNL     1      -0.044   5.705  -0.207  0.00  0.00    -0.210 N 
ATOM      9  C   UNL     1      -0.745   4.575   0.132  0.00  0.00    +0.229 C 
ATOM     10  O   UNL     1      -1.325   4.350   1.173  0.00  0.00    -0.275 OA
ATOM     11  H   UNL     1       1.014   1.261  -2.182  0.00  0.00    -0.083 HD
ATOM     12  H   UNL     1      -0.398   1.596  -3.241  0.00  0.00    -0.083 HD
ENDROOT
BRANCH   4  13
ATOM     13  C   UNL     1      -0.039   4.018  -3.818  0.00  0.00    -0.053 A 
ATOM     14  C   UNL     1      -1.365   3.724  -3.911  0.00  0.00    +0.002 A 
ATOM     15  C   UNL     1      -2.179   4.368  -4.841  0.00  0.00    +0.001 A 
ATOM     16  C   UNL     1      -1.672   5.309  -5.683  0.00  0.00    +0.008 A 
ATOM     17  C   UNL     1      -0.308   5.639  -5.616  0.00  0.00    -0.018 A 
ATOM     18  C   UNL     1       0.519   4.988  -4.667  0.00  0.00    -0.016 A 
ATOM     19  C   UNL     1       1.882   5.323  -4.596  0.00  0.00    +0.009 A 
ATOM     20  C   UNL     1       2.388   6.268  -5.434  0.00  0.00    +0.001 A 
ATOM     21  C   UNL     1       1.574   6.913  -6.364  0.00  0.00    +0.001 A 
ATOM     22  C   UNL     1       0.252   6.607  -6.468  0.00  0.00    +0.008 A 
ENDBRANCH   4  13
BRANCH   8  23
ATOM     23  C   UNL     1      -0.127   6.914   0.498  0.00  0.00    +0.045 A 
ATOM     24  C   UNL     1       0.618   8.012   0.088  0.00  0.00    +0.024 A 
ATOM     25  C   UNL     1       0.534   9.201   0.784  0.00  0.00    +0.006 A 
ATOM     26  C   UNL     1      -0.290   9.301   1.890  0.00  0.00    -0.032 A 
ATOM     27  C   UNL     1      -1.034   8.209   2.302  0.00  0.00    +0.046 A 
ATOM     28  C   UNL     1      -0.957   7.017   1.606  0.00  0.00    +0.044 A 
ATOM     29 CL   UNL     1      -2.067   8.338   3.691  0.00  0.00    -0.083 Cl
ATOM     30  C   UNL     1      -0.380  10.601   2.647  0.00  0.00    +0.045 C 
ENDBRANCH   8  23
BRANCH   1  31
ATOM     31  C   UNL     1      -2.030   1.709  -1.452  0.00  0.00    +0.347 C 
ATOM     32  O   UNL     1      -2.977   2.322  -1.018  0.00  0.00    -0.248 OA
ATOM     33  O   UNL     1      -2.224   0.579  -2.149  0.00  0.00    -0.248 OA
ENDBRANCH   1  31
BRANCH   1  34
ATOM     34  C   UNL     1      -0.019   1.526   0.010  0.00  0.00    -0.014 C 
ATOM     35  C   UNL     1       1.301   2.209   0.373  0.00  0.00    +0.006 C 
BRANCH  34  37
ATOM     36  C   UNL     1      -0.461   0.784   2.355  0.00  0.00    +0.004 C 
ATOM     37  C   UNL     1      -0.987   1.626   1.191  0.00  0.00    -0.001 C 
ENDBRANCH  34  37
ENDBRANCH   1  34
TORSDOF 5
