REMARK  Name = ZINC05024159
REMARK  8 active torsions:
REMARK  status: ('A' for Active; 'I' for Inactive)
REMARK    1  A    between atoms: C_1  and  O_2
REMARK    2  A    between atoms: O_2  and  C_3
REMARK    3  A    between atoms: C_5  and  C_19
REMARK    4  A    between atoms: C_8  and  O_9
REMARK    5  A    between atoms: O_9  and  C_10
REMARK    6  A    between atoms: C_10  and  C_12
REMARK    7  A    between atoms: N_20  and  N_21
REMARK    8  A    between atoms: C_22  and  C_23
REMARK                            x       y       z     vdW  Elec       q    Type
REMARK                         _______ _______ _______ _____ _____    ______ ____
ROOT
ATOM      1  C   UNL     1      -1.388  -0.406   2.360  0.00  0.00    +0.163 A 
ATOM      2  C   UNL     1      -2.621   0.218   2.355  0.00  0.00    +0.059 A 
ATOM      3  C   UNL     1      -3.771  -0.516   2.046  0.00  0.00    -0.002 A 
ATOM      4  C   UNL     1      -3.667  -1.878   1.743  0.00  0.00    +0.013 A 
ATOM      5  C   UNL     1      -2.433  -2.492   1.750  0.00  0.00    +0.051 A 
ATOM      6  C   UNL     1      -1.292  -1.762   2.051  0.00  0.00    +0.173 A 
ENDROOT
BRANCH   1   8
ATOM      7  C   UNL     1      -0.440   1.689   2.966  0.00  0.00    +0.277 C 
ATOM      8  O   UNL     1      -0.268   0.304   2.660  0.00  0.00    -0.491 OA
ENDBRANCH   1   8
BRANCH   3   9
ATOM      9  C   UNL     1      -5.086   0.142   2.039  0.00  0.00    +0.140 C 
ATOM     10  N   UNL     1      -6.159  -0.545   1.750  0.00  0.00    -0.180 NA
BRANCH  10  11
ATOM     11  N   UNL     1      -7.313   0.032   1.744  0.00  0.00    -0.263 N 
ATOM     12  C   UNL     1      -8.393  -0.660   1.453  0.00  0.00    +0.143 C 
ATOM     13  N   UNL     1      -9.626  -0.042   1.448  0.00  0.00    -0.342 N 
ATOM     14  H   UNL     1      -9.703   0.891   1.702  0.00  0.00    +0.144 HD
ATOM     15  H   UNL     1     -10.417  -0.541   1.189  0.00  0.00    +0.144 HD
ATOM     16  H   UNL     1      -7.384   0.976   1.955  0.00  0.00    +0.190 HD
BRANCH  12  17
ATOM     17  C   UNL     1      -8.285  -2.097   1.133  0.00  0.00    +0.187 A 
ATOM     18  C   UNL     1      -9.245  -2.877   0.342  0.00  0.00    +0.191 A 
ATOM     19  N   UNL     1      -8.816  -4.107   0.272  0.00  0.00    -0.033 NA
ATOM     20  O   UNL     1      -7.597  -4.186   0.990  0.00  0.00    -0.240 OA
ATOM     21  N   UNL     1      -7.314  -2.895   1.501  0.00  0.00    -0.044 NA
ATOM     22  N   UNL     1     -10.411  -2.390  -0.234  0.00  0.00    -0.339 N 
ATOM     23  H   UNL     1     -10.602  -1.439  -0.212  0.00  0.00    +0.144 HD
ATOM     24  H   UNL     1     -11.035  -3.000  -0.658  0.00  0.00    +0.144 HD
ENDBRANCH  12  17
ENDBRANCH  10  11
ENDBRANCH   3   9
BRANCH   6  25
ATOM     25  O   UNL     1      -0.077  -2.372   2.051  0.00  0.00    -0.419 OA
BRANCH  25  26
ATOM     26  C   UNL     1       0.422  -2.786   3.232  0.00  0.00    +0.345 C 
ATOM     27  O   UNL     1      -0.233  -2.660   4.247  0.00  0.00    -0.245 OA
BRANCH  26  28
ATOM     28  C   UNL     1       1.767  -3.393   3.292  0.00  0.00    +0.059 A 
ATOM     29  C   UNL     1       2.526  -3.534   2.128  0.00  0.00    +0.016 A 
ATOM     30  C   UNL     1       3.781  -4.101   2.191  0.00  0.00    +0.021 A 
ATOM     31  C   UNL     1       4.290  -4.531   3.405  0.00  0.00    +0.041 A 
ATOM     32  C   UNL     1       3.542  -4.394   4.564  0.00  0.00    +0.021 A 
ATOM     33  C   UNL     1       2.288  -3.822   4.515  0.00  0.00    +0.016 A 
ATOM     34 CL   UNL     1       5.870  -5.245   3.476  0.00  0.00    -0.084 Cl
ENDBRANCH  26  28
ENDBRANCH  25  26
ENDBRANCH   6  25
TORSDOF 7
