REMARK  Name = ZINC20566629
REMARK  7 active torsions:
REMARK  status: ('A' for Active; 'I' for Inactive)
REMARK    1  A    between atoms: C_1  and  C_2
REMARK    2  A    between atoms: C_2  and  C_3
REMARK    3  A    between atoms: C_3  and  C_4
REMARK    4  A    between atoms: C_4  and  N_5
REMARK    5  A    between atoms: C_10  and  C_28
REMARK    6  A    between atoms: C_28  and  C_29
REMARK    7  A    between atoms: C_32  and  O_35
REMARK                            x       y       z     vdW  Elec       q    Type
REMARK                         _______ _______ _______ _____ _____    ______ ____
ROOT
ATOM      1  N   UNL     1       1.471  -2.526   2.420  0.00  0.00    -0.242 N 
ATOM      2  C   UNL     1       2.818  -2.755   2.456  0.00  0.00    +0.227 C 
ATOM      3  O   UNL     1       3.650  -2.353   1.671  0.00  0.00    -0.275 OA
ATOM      4  C   UNL     1       3.055  -3.607   3.673  0.00  0.00    +0.107 C 
ATOM      5  C   UNL     1       4.247  -3.296   4.585  0.00  0.00    +0.072 C 
ATOM      6  N   UNL     1       3.719  -3.637   5.947  0.00  0.00    -0.295 NA
ATOM      7  C   UNL     1       2.234  -3.454   5.907  0.00  0.00    +0.136 C 
ATOM      8  C   UNL     1       1.937  -2.930   4.564  0.00  0.00    +0.122 C 
ATOM      9  C   UNL     1       0.855  -2.794   3.617  0.00  0.00    +0.228 C 
ATOM     10  O   UNL     1      -0.334  -2.897   3.831  0.00  0.00    -0.275 OA
ATOM     11  C   UNL     1       1.560  -4.770   6.196  0.00  0.00    +0.005 A 
ATOM     12  C   UNL     1       1.544  -5.984   5.546  0.00  0.00    +0.027 A 
ATOM     13  C   UNL     1       0.811  -7.038   6.064  0.00  0.00    +0.041 A 
ATOM     14  C   UNL     1       0.095  -6.867   7.236  0.00  0.00    +0.022 A 
ATOM     15  C   UNL     1       0.110  -5.652   7.890  0.00  0.00    +0.025 A 
ATOM     16  C   UNL     1       0.846  -4.588   7.375  0.00  0.00    +0.039 A 
ATOM     17  N   UNL     1       1.017  -3.284   7.846  0.00  0.00    -0.283 N 
ATOM     18  C   UNL     1       1.815  -2.555   7.046  0.00  0.00    +0.243 C 
ATOM     19  O   UNL     1       2.138  -1.397   7.208  0.00  0.00    -0.273 OA
ATOM     20 CL   UNL     1       0.789  -8.569   5.247  0.00  0.00    -0.084 Cl
ATOM     21  H   UNL     1       3.960  -4.583   6.203  0.00  0.00    +0.124 HD
ATOM     22  H   UNL     1       0.607  -2.944   8.656  0.00  0.00    +0.155 HD
ENDROOT
BRANCH   1  23
ATOM     23  C   UNL     1       0.763  -2.041   1.233  0.00  0.00    +0.116 C 
BRANCH  23  24
ATOM     24  C   UNL     1       0.742  -0.511   1.242  0.00  0.00    +0.019 C 
BRANCH  24  26
ATOM     25  C   UNL     1      -0.019   1.526   0.010  0.00  0.00    +0.004 C 
ATOM     26  C   UNL     1       0.002  -0.004   0.002  0.00  0.00    -0.002 C 
ENDBRANCH  24  26
ENDBRANCH  23  24
ENDBRANCH   1  23
BRANCH   5  27
ATOM     27  C   UNL     1       4.623  -1.815   4.500  0.00  0.00    +0.054 C 
BRANCH  27  28
ATOM     28  C   UNL     1       5.870  -1.566   5.309  0.00  0.00    -0.046 A 
ATOM     29  C   UNL     1       5.769  -1.231   6.647  0.00  0.00    +0.007 A 
ATOM     30  C   UNL     1       6.910  -1.001   7.391  0.00  0.00    +0.045 A 
ATOM     31  C   UNL     1       8.158  -1.108   6.795  0.00  0.00    +0.117 A 
ATOM     32  C   UNL     1       8.257  -1.444   5.453  0.00  0.00    +0.045 A 
ATOM     33  C   UNL     1       7.113  -1.678   4.714  0.00  0.00    +0.007 A 
BRANCH  31  34
ATOM     34  O   UNL     1       9.283  -0.882   7.524  0.00  0.00    -0.507 OA
ATOM     35  H   UNL     1       9.639  -1.673   7.953  0.00  0.00    +0.292 HD
ENDBRANCH  31  34
ENDBRANCH  27  28
ENDBRANCH   5  27
TORSDOF 6
