REMARK  Name = ZINC03838839
REMARK  17 active torsions:
REMARK  status: ('A' for Active; 'I' for Inactive)
REMARK    1  A    between atoms: C_1  and  C_2
REMARK    2  A    between atoms: C_2  and  C_3
REMARK    3  A    between atoms: C_2  and  C_4
REMARK    4  A    between atoms: C_4  and  C_5
REMARK    5  A    between atoms: C_5  and  C_7
REMARK    6  A    between atoms: C_5  and  N_10
REMARK    7  A    between atoms: C_11  and  C_13
REMARK    8  A    between atoms: C_15  and  N_24
REMARK    9  A    between atoms: C_17  and  O_23
REMARK   10  A    between atoms: C_19  and  O_22
REMARK   11  A    between atoms: C_25  and  C_27
REMARK   12  A    between atoms: C_27  and  C_29
REMARK   13  A    between atoms: C_27  and  N_64
REMARK   14  A    between atoms: C_29  and  C_30
REMARK   15  A    between atoms: C_30  and  C_31
REMARK   16  A    between atoms: C_30  and  C_32
REMARK   17  A    between atoms: C_33  and  N_64
REMARK                            x       y       z     vdW  Elec       q    Type
REMARK                         _______ _______ _______ _____ _____    ______ ____
ROOT
ATOM      1  C   UNL     1       1.026  -4.827  -2.227  0.00  0.00    +0.015 C 
ATOM      2  C   UNL     1       0.362  -4.462  -1.152  0.00  0.00    +0.006 C 
ATOM      3  C   UNL     1      -1.102  -4.129  -1.148  0.00  0.00    +0.127 C 
ATOM      4  C   UNL     1      -1.769  -4.672  -2.413  0.00  0.00    +0.167 C 
ATOM      5  C   UNL     1      -0.939  -4.234  -3.627  0.00  0.00    +0.149 C 
ATOM      6  C   UNL     1       0.404  -4.965  -3.586  0.00  0.00    +0.074 C 
ENDROOT
BRANCH   1   8
ATOM      7  N   UNL     1       3.180  -5.493  -3.166  0.00  0.00    -0.300 N 
ATOM      8  C   UNL     1       2.462  -5.116  -2.089  0.00  0.00    +0.241 C 
ATOM      9  O   UNL     1       3.001  -5.014  -1.004  0.00  0.00    -0.271 OA
ATOM     10  H   UNL     1       2.749  -5.574  -4.031  0.00  0.00    +0.150 HD
BRANCH   7  11
ATOM     11  C   UNL     1       4.610  -5.781  -3.029  0.00  0.00    +0.159 C 
BRANCH  11  12
ATOM     12  C   UNL     1       4.794  -7.209  -2.585  0.00  0.00    +0.231 C 
ATOM     13  O   UNL     1       3.827  -7.917  -2.401  0.00  0.00    -0.274 OA
ATOM     14  N   UNL     1       6.035  -7.700  -2.392  0.00  0.00    -0.328 N 
ATOM     15  H   UNL     1       6.809  -7.134  -2.539  0.00  0.00    +0.145 HD
ATOM     16  H   UNL     1       6.154  -8.619  -2.107  0.00  0.00    +0.145 HD
ENDBRANCH  11  12
BRANCH  11  17
ATOM     17  C   UNL     1       5.303  -5.571  -4.376  0.00  0.00    +0.034 C 
BRANCH  17  19
ATOM     18  C   UNL     1       6.023  -3.258  -3.765  0.00  0.00    +0.007 C 
ATOM     19  C   UNL     1       5.223  -4.094  -4.767  0.00  0.00    -0.015 C 
ATOM     20  C   UNL     1       5.806  -3.905  -6.169  0.00  0.00    +0.007 C 
ENDBRANCH  17  19
ENDBRANCH  11  17
ENDBRANCH   7  11
ENDBRANCH   1   8
BRANCH   3  21
ATOM     21  N   UNL     1      -1.269  -2.674  -1.097  0.00  0.00    -0.308 N 
ATOM     22  C   UNL     1      -1.251  -2.035   0.089  0.00  0.00    +0.200 C 
ATOM     23  O   UNL     1      -1.097  -2.663   1.114  0.00  0.00    -0.278 OA
ATOM     24  H   UNL     1      -1.393  -2.171  -1.918  0.00  0.00    +0.149 HD
BRANCH  22  25
ATOM     25  C   UNL     1      -1.423  -0.538   0.141  0.00  0.00    +0.016 C 
BRANCH  25  27
ATOM     26  C   UNL     1      -3.453  -0.222   1.423  0.00  0.00    -0.099 C 
ATOM     27  N   UNL     1      -1.980  -0.152   1.451  0.00  0.00    +0.385 N 
ATOM     28  H   UNL     1      -1.690   0.807   1.673  0.00  0.00    -0.085 HD
ATOM     29  H   UNL     1      -1.624  -0.792   2.172  0.00  0.00    -0.085 HD
ENDBRANCH  25  27
BRANCH  25  30
ATOM     30  C   UNL     1      -0.064   0.138  -0.046  0.00  0.00    -0.004 C 
BRANCH  30  31
ATOM     31  C   UNL     1      -0.254   1.654  -0.118  0.00  0.00    -0.018 C 
ATOM     32  C   UNL     1       1.113   2.338  -0.180  0.00  0.00    +0.007 C 
ATOM     33  C   UNL     1      -1.058   2.009  -1.371  0.00  0.00    +0.007 C 
ENDBRANCH  30  31
ENDBRANCH  25  30
ENDBRANCH  22  25
ENDBRANCH   3  21
BRANCH   5  34
ATOM     34  O   UNL     1      -1.633  -4.573  -4.830  0.00  0.00    -0.389 OA
ATOM     35  H   UNL     1      -1.157  -4.337  -5.638  0.00  0.00    +0.210 HD
ENDBRANCH   5  34
BRANCH   4  36
ATOM     36  O   UNL     1      -3.093  -4.146  -2.522  0.00  0.00    -0.387 OA
ATOM     37  H   UNL     1      -3.574  -4.450  -3.304  0.00  0.00    +0.210 HD
ENDBRANCH   4  36
TORSDOF 12
