REMARK  Name = ZINC23099709
REMARK  10 active torsions:
REMARK  status: ('A' for Active; 'I' for Inactive)
REMARK    1  A    between atoms: C_1  and  C_2
REMARK    2  A    between atoms: C_2  and  C_3
REMARK    3  A    between atoms: N_5  and  C_6
REMARK    4  A    between atoms: C_10  and  N_12
REMARK    5  A    between atoms: C_13  and  C_15
REMARK    6  A    between atoms: C_17  and  S_22
REMARK    7  A    between atoms: C_20  and  C_21
REMARK    8  A    between atoms: S_22  and  N_25
REMARK    9  A    between atoms: N_25  and  C_26
REMARK   10  A    between atoms: C_30  and  C_32
REMARK                            x       y       z     vdW  Elec       q    Type
REMARK                         _______ _______ _______ _____ _____    ______ ____
ROOT
ATOM      1  C   UNL     1      -8.400   2.174   0.620  0.00  0.00    +0.042 A 
ATOM      2  C   UNL     1      -8.400   3.555   0.416  0.00  0.00    +0.042 A 
ATOM      3  C   UNL     1      -9.595   4.225   0.256  0.00  0.00    +0.109 A 
ATOM      4  C   UNL     1     -10.792   3.533   0.308  0.00  0.00    +0.029 A 
ATOM      5  C   UNL     1     -10.799   2.165   0.514  0.00  0.00    +0.006 A 
ATOM      6  C   UNL     1      -9.611   1.482   0.671  0.00  0.00    -0.038 A 
ATOM      7  C   UNL     1      -9.620  -0.008   0.896  0.00  0.00    +0.044 C 
ENDROOT
BRANCH   1   9
ATOM      8  N   UNL     1      -5.955   2.120   0.747  0.00  0.00    -0.281 N 
ATOM      9  C   UNL     1      -7.123   1.448   0.787  0.00  0.00    +0.249 C 
ATOM     10  O   UNL     1      -7.125   0.245   0.960  0.00  0.00    -0.270 OA
ATOM     11  H   UNL     1      -5.946   3.192   0.497  0.00  0.00    +0.155 HD
BRANCH   8  16
ATOM     12  C   UNL     1      -2.405   1.157   0.637  0.00  0.00    +0.035 A 
ATOM     13  C   UNL     1      -2.384   0.134   1.577  0.00  0.00    +0.023 A 
ATOM     14  C   UNL     1      -3.544  -0.225   2.235  0.00  0.00    +0.004 A 
ATOM     15  C   UNL     1      -4.729   0.432   1.962  0.00  0.00    +0.023 A 
ATOM     16  C   UNL     1      -4.756   1.456   1.024  0.00  0.00    +0.035 A 
ATOM     17  C   UNL     1      -3.591   1.823   0.364  0.00  0.00    +0.046 A 
BRANCH  12  20
ATOM     18  C   UNL     1      -1.283   1.943  -1.308  0.00  0.00    +0.217 C 
ATOM     19  O   UNL     1      -2.333   1.912  -1.914  0.00  0.00    -0.275 OA
ATOM     20  N   UNL     1      -1.229   1.520  -0.030  0.00  0.00    -0.285 N 
ATOM     21  H   UNL     1      -0.262   1.460   0.490  0.00  0.00    +0.155 HD
BRANCH  18  23
ATOM     22  C   UNL     1      -0.373   2.879  -3.417  0.00  0.00    +0.013 C 
ATOM     23  C   UNL     1      -0.039   2.461  -1.983  0.00  0.00    +0.093 C 
ENDBRANCH  18  23
ENDBRANCH  12  20
ENDBRANCH   8  16
ENDBRANCH   1   9
BRANCH   3  24
ATOM     24  S   UNL     1      -9.597   5.967  -0.007  0.00  0.00    +0.072 S 
ATOM     25  O   UNL     1      -8.329   6.296  -0.558  0.00  0.00    -0.150 OA
ATOM     26  O   UNL     1     -10.818   6.277  -0.666  0.00  0.00    -0.150 OA
BRANCH  24  27
ATOM     27  N   UNL     1      -9.667   6.688   1.482  0.00  0.00    -0.216 N 
ATOM     28  H   UNL     1     -10.548   7.282   1.764  0.00  0.00    +0.174 HD
BRANCH  27  29
ATOM     29  C   UNL     1      -8.607   6.540   2.380  0.00  0.00    +0.048 A 
ATOM     30  C   UNL     1      -7.297   6.684   1.940  0.00  0.00    +0.024 A 
ATOM     31  C   UNL     1      -6.252   6.537   2.831  0.00  0.00    +0.002 A 
ATOM     32  C   UNL     1      -6.508   6.248   4.159  0.00  0.00    +0.003 A 
ATOM     33  C   UNL     1      -7.811   6.104   4.600  0.00  0.00    -0.049 A 
ATOM     34  C   UNL     1      -8.861   6.254   3.715  0.00  0.00    +0.027 A 
ATOM     35  C   UNL     1      -8.085   5.790   6.048  0.00  0.00    +0.044 C 
ENDBRANCH  27  29
ENDBRANCH  24  27
ENDBRANCH   3  24
TORSDOF 7
