REMARK  Name = ZINC06871184
REMARK  9 active torsions:
REMARK  status: ('A' for Active; 'I' for Inactive)
REMARK    1  A    between atoms: C_1  and  C_2
REMARK    2  A    between atoms: C_2  and  N_3
REMARK    3  A    between atoms: C_14  and  C_16
REMARK    4  A    between atoms: C_16  and  N_52
REMARK    5  A    between atoms: C_17  and  C_18
REMARK    6  A    between atoms: C_17  and  N_52
REMARK    7  A    between atoms: C_18  and  N_19
REMARK    8  A    between atoms: N_19  and  C_20
REMARK    9  A    between atoms: C_23  and  N_27
REMARK                            x       y       z     vdW  Elec       q    Type
REMARK                         _______ _______ _______ _____ _____    ______ ____
ROOT
ATOM      1  N   UNL     1      -1.055   9.328  -1.339  0.00  0.00    +0.383 N 
ATOM      2  H   UNL     1      -1.558   8.571  -1.817  0.00  0.00    -0.085 HD
ATOM      3  H   UNL     1      -0.170   9.511  -1.827  0.00  0.00    -0.085 HD
ENDROOT
BRANCH   1   4
ATOM      4  C   UNL     1      -0.770   8.923   0.050  0.00  0.00    -0.047 C 
BRANCH   4  16
ATOM      5  N   UNL     1       2.180   4.106   0.001  0.00  0.00    -0.340 N 
ATOM      6  C   UNL     1       1.164   3.167   0.007  0.00  0.00    +0.050 A 
ATOM      7  C   UNL     1       1.175   1.775   0.000  0.00  0.00    +0.026 A 
ATOM      8  C   UNL     1      -0.013   1.076   0.008  0.00  0.00    +0.002 A 
ATOM      9  C   UNL     1      -1.226   1.747   0.017  0.00  0.00    +0.001 A 
ATOM     10  C   UNL     1      -1.257   3.124   0.030  0.00  0.00    +0.010 A 
ATOM     11  C   UNL     1      -0.064   3.844   0.022  0.00  0.00    +0.008 A 
ATOM     12  C   UNL     1       0.251   5.284   0.025  0.00  0.00    +0.008 A 
ATOM     13  C   UNL     1       1.651   5.384   0.012  0.00  0.00    +0.050 A 
ATOM     14  C   UNL     1       2.243   6.643   0.011  0.00  0.00    +0.026 A 
ATOM     15  C   UNL     1       1.457   7.776   0.023  0.00  0.00    +0.004 A 
ATOM     16  C   UNL     1       0.074   7.674   0.037  0.00  0.00    -0.064 A 
ATOM     17  C   UNL     1      -0.531   6.436   0.037  0.00  0.00    +0.012 A 
BRANCH   5  19
ATOM     18  C   UNL     1       4.095   3.690  -1.462  0.00  0.00    +0.027 C 
ATOM     19  C   UNL     1       3.611   3.792  -0.014  0.00  0.00    +0.119 C 
ENDBRANCH   5  19
ENDBRANCH   4  16
ENDBRANCH   1   4
BRANCH   1  20
ATOM     20  C   UNL     1      -1.881  10.550  -1.357  0.00  0.00    -0.063 C 
BRANCH  20  21
ATOM     21  C   UNL     1      -2.160  10.945  -2.809  0.00  0.00    +0.082 C 
BRANCH  21  22
ATOM     22  N   UNL     1      -2.981  12.159  -2.835  0.00  0.00    -0.345 N 
ATOM     23  H   UNL     1      -3.257  12.576  -2.004  0.00  0.00    +0.146 HD
BRANCH  22  24
ATOM     24  C   UNL     1      -3.366  12.715  -4.058  0.00  0.00    +0.046 A 
ATOM     25  C   UNL     1      -2.973  12.119  -5.249  0.00  0.00    +0.026 A 
ATOM     26  C   UNL     1      -3.355  12.671  -6.455  0.00  0.00    +0.034 A 
ATOM     27  C   UNL     1      -4.130  13.816  -6.479  0.00  0.00    +0.128 A 
ATOM     28  C   UNL     1      -4.525  14.413  -5.296  0.00  0.00    +0.054 A 
ATOM     29  C   UNL     1      -4.150  13.863  -4.085  0.00  0.00    +0.064 A 
ATOM     30 CL   UNL     1      -4.652  14.607  -2.599  0.00  0.00    -0.082 Cl
BRANCH  27  31
ATOM     31  N   UNL     1      -4.539  14.405  -7.774  0.00  0.00    +0.056 N 
ATOM     32  O   UNL     1      -4.192  13.880  -8.818  0.00  0.00    -0.126 OA
ATOM     33  O   UNL     1      -5.221  15.413  -7.797  0.00  0.00    -0.126 OA
ENDBRANCH  27  31
ENDBRANCH  22  24
ENDBRANCH  21  22
ENDBRANCH  20  21
ENDBRANCH   1  20
TORSDOF 8
