REMARK  Name = ZINC18138322
REMARK  11 active torsions:
REMARK  status: ('A' for Active; 'I' for Inactive)
REMARK    1  A    between atoms: C_4  and  S_7
REMARK    2  A    between atoms: S_7  and  C_8
REMARK    3  A    between atoms: C_8  and  C_9
REMARK    4  A    between atoms: C_9  and  N_10
REMARK    5  A    between atoms: N_10  and  C_11
REMARK    6  A    between atoms: C_11  and  N_13
REMARK    7  A    between atoms: N_13  and  N_14
REMARK    8  A    between atoms: N_14  and  C_15
REMARK    9  A    between atoms: C_18  and  S_24
REMARK   10  A    between atoms: C_20  and  N_21
REMARK   11  A    between atoms: S_24  and  N_27
REMARK                            x       y       z     vdW  Elec       q    Type
REMARK                         _______ _______ _______ _____ _____    ______ ____
ROOT
ATOM      1  N   UNL     1      -1.313   1.691  -0.483  0.00  0.00    -0.263 N 
ATOM      2  H   UNL     1      -1.344   2.661  -0.483  0.00  0.00    +0.170 HD
ENDROOT
BRANCH   1   3
ATOM      3  C   UNL     1      -2.473   0.956  -0.230  0.00  0.00    +0.075 A 
ATOM      4  C   UNL     1      -2.458  -0.429  -0.342  0.00  0.00    +0.028 A 
ATOM      5  C   UNL     1      -3.607  -1.153  -0.091  0.00  0.00    +0.030 A 
ATOM      6  C   UNL     1      -4.771  -0.502   0.271  0.00  0.00    +0.107 A 
ATOM      7  C   UNL     1      -4.790   0.876   0.383  0.00  0.00    +0.063 A 
ATOM      8  C   UNL     1      -3.644   1.607   0.139  0.00  0.00    +0.150 A 
BRANCH   8   9
ATOM      9  N   UNL     1      -3.663   3.081   0.264  0.00  0.00    +0.058 N 
ATOM     10  O   UNL     1      -2.696   3.667   0.716  0.00  0.00    -0.126 OA
ATOM     11  O   UNL     1      -4.647   3.709  -0.084  0.00  0.00    -0.126 OA
ENDBRANCH   8   9
BRANCH   6  12
ATOM     12  S   UNL     1      -6.235  -1.430   0.590  0.00  0.00    +0.056 S 
ATOM     13  O   UNL     1      -7.329  -0.548   0.380  0.00  0.00    -0.153 OA
ATOM     14  O   UNL     1      -6.099  -2.657  -0.113  0.00  0.00    -0.153 OA
BRANCH  12  15
ATOM     15  N   UNL     1      -6.234  -1.806   2.203  0.00  0.00    -0.204 NA
ATOM     16  H   UNL     1      -5.503  -1.512   2.769  0.00  0.00    +0.144 HD
ATOM     17  H   UNL     1      -6.964  -2.320   2.582  0.00  0.00    +0.144 HD
ENDBRANCH  12  15
ENDBRANCH   6  12
ENDBRANCH   1   3
BRANCH   1  18
ATOM     18  N   UNL     1      -0.105   1.029  -0.737  0.00  0.00    -0.248 N 
ATOM     19  H   UNL     1      -0.074   0.059  -0.737  0.00  0.00    +0.172 HD
BRANCH  18  20
ATOM     20  C   UNL     1       1.013   1.739  -0.986  0.00  0.00    +0.147 C 
ATOM     21  S   UNL     1       2.488   0.929  -1.303  0.00  0.00    -0.017 S 
BRANCH  20  22
ATOM     22  N   UNL     1       0.970   3.086  -0.986  0.00  0.00    -0.325 N 
ATOM     23  H   UNL     1       0.135   3.544  -0.806  0.00  0.00    +0.148 HD
BRANCH  22  24
ATOM     24  C   UNL     1       2.186   3.857  -1.257  0.00  0.00    +0.114 C 
BRANCH  24  25
ATOM     25  C   UNL     1       1.865   5.352  -1.197  0.00  0.00    +0.093 C 
BRANCH  25  26
ATOM     26  S   UNL     1       3.370   6.307  -1.532  0.00  0.00    -0.124 S 
BRANCH  26  30
ATOM     27  C   UNL     1       2.014  10.620  -1.265  0.00  0.00    +0.000 A 
ATOM     28  C   UNL     1       3.335  10.329  -1.552  0.00  0.00    +0.001 A 
ATOM     29  C   UNL     1       3.752   9.015  -1.634  0.00  0.00    +0.015 A 
ATOM     30  C   UNL     1       2.842   7.985  -1.428  0.00  0.00    +0.008 A 
ATOM     31  C   UNL     1       1.514   8.281  -1.146  0.00  0.00    +0.015 A 
ATOM     32  C   UNL     1       1.105   9.597  -1.060  0.00  0.00    +0.001 A 
ENDBRANCH  26  30
ENDBRANCH  25  26
ENDBRANCH  24  25
ENDBRANCH  22  24
ENDBRANCH  20  22
ENDBRANCH  18  20
ENDBRANCH   1  18
TORSDOF 11
