REMARK  Name = ZINC09153659
REMARK  7 active torsions:
REMARK  status: ('A' for Active; 'I' for Inactive)
REMARK    1  A    between atoms: C_1  and  C_2
REMARK    2  A    between atoms: N_10  and  C_11
REMARK    3  A    between atoms: N_14  and  C_29
REMARK    4  A    between atoms: N_17  and  C_18
REMARK    5  A    between atoms: C_18  and  C_19
REMARK    6  A    between atoms: N_21  and  C_22
REMARK    7  A    between atoms: C_29  and  C_30
REMARK                            x       y       z     vdW  Elec       q    Type
REMARK                         _______ _______ _______ _____ _____    ______ ____
ROOT
ATOM      1  C   UNL     1      -4.214   1.147  -3.354  0.00  0.00    +0.044 C 
ATOM      2  C   UNL     1      -4.247   1.587  -1.913  0.00  0.00    -0.050 A 
ATOM      3  C   UNL     1      -5.454   1.952  -1.332  0.00  0.00    +0.005 A 
ATOM      4  C   UNL     1      -5.506   2.358  -0.017  0.00  0.00    +0.027 A 
ATOM      5  C   UNL     1      -4.339   2.403   0.742  0.00  0.00    +0.051 A 
ATOM      6  C   UNL     1      -3.118   2.031   0.148  0.00  0.00    +0.025 A 
ATOM      7  C   UNL     1      -3.090   1.623  -1.189  0.00  0.00    +0.015 A 
ATOM      8  C   UNL     1      -2.092   2.181   1.179  0.00  0.00    +0.085 A 
ATOM      9  C   UNL     1      -2.735   2.622   2.321  0.00  0.00    +0.132 A 
ATOM     10  N   UNL     1      -4.088   2.746   2.051  0.00  0.00    -0.337 N 
ATOM     11  C   UNL     1      -5.100   3.193   3.012  0.00  0.00    +0.149 C 
ATOM     12  C   UNL     1      -1.961   2.858   3.486  0.00  0.00    +0.281 A 
ATOM     13  O   UNL     1      -2.493   3.251   4.509  0.00  0.00    -0.265 OA
ATOM     14  N   UNL     1      -0.630   2.644   3.451  0.00  0.00    -0.255 N 
ATOM     15  C   UNL     1      -0.026   2.210   2.332  0.00  0.00    +0.333 A 
ATOM     16  O   UNL     1       1.176   2.027   2.336  0.00  0.00    -0.246 OA
ATOM     17  N   UNL     1      -0.725   1.974   1.205  0.00  0.00    -0.282 N 
ENDROOT
BRANCH  17  18
ATOM     18  C   UNL     1      -0.035   1.502   0.002  0.00  0.00    +0.223 C 
BRANCH  18  19
ATOM     19  C   UNL     1      -0.004  -0.005  -0.001  0.00  0.00    +0.237 C 
ATOM     20  O   UNL     1      -0.508  -0.623   0.912  0.00  0.00    -0.274 OA
ATOM     21  N   UNL     1       0.585  -0.664  -1.018  0.00  0.00    -0.283 N 
ATOM     22  H   UNL     1       0.931  -0.173  -1.779  0.00  0.00    +0.155 HD
BRANCH  21  23
ATOM     23  C   UNL     1       0.697  -2.059  -0.976  0.00  0.00    +0.052 A 
ATOM     24  C   UNL     1      -0.305  -2.820  -0.389  0.00  0.00    +0.025 A 
ATOM     25  C   UNL     1      -0.195  -4.197  -0.354  0.00  0.00    +0.002 A 
ATOM     26  C   UNL     1       0.918  -4.817  -0.892  0.00  0.00    +0.002 A 
ATOM     27  C   UNL     1       1.921  -4.062  -1.472  0.00  0.00    +0.022 A 
ATOM     28  C   UNL     1       1.814  -2.685  -1.516  0.00  0.00    +0.062 A 
ATOM     29 CL   UNL     1       3.074  -1.738  -2.243  0.00  0.00    -0.082 Cl
ENDBRANCH  21  23
ENDBRANCH  18  19
ENDBRANCH  17  18
BRANCH  14  30
ATOM     30  C   UNL     1       0.170   2.888   4.654  0.00  0.00    +0.165 C 
BRANCH  30  31
ATOM     31  C   UNL     1       0.651   4.316   4.656  0.00  0.00    -0.028 A 
ATOM     32  C   UNL     1       1.861   4.639   4.072  0.00  0.00    +0.005 A 
ATOM     33  C   UNL     1       2.300   5.950   4.070  0.00  0.00    +0.000 A 
ATOM     34  C   UNL     1       1.533   6.936   4.662  0.00  0.00    +0.000 A 
ATOM     35  C   UNL     1       0.325   6.612   5.251  0.00  0.00    +0.000 A 
ATOM     36  C   UNL     1      -0.116   5.302   5.248  0.00  0.00    +0.005 A 
ENDBRANCH  30  31
ENDBRANCH  14  30
TORSDOF 5
