REMARK  Name = ZINC20914083
REMARK  12 active torsions:
REMARK  status: ('A' for Active; 'I' for Inactive)
REMARK    1  A    between atoms: C_1  and  O_2
REMARK    2  A    between atoms: O_2  and  C_3
REMARK    3  A    between atoms: C_3  and  C_5
REMARK    4  A    between atoms: C_8  and  C_11
REMARK    5  A    between atoms: N_12  and  N_13
REMARK    6  A    between atoms: C_17  and  S_20
REMARK    7  A    between atoms: N_18  and  N_19
REMARK    8  A    between atoms: S_20  and  C_21
REMARK    9  A    between atoms: C_21  and  C_22
REMARK   10  A    between atoms: C_22  and  C_23
REMARK   11  A    between atoms: N_25  and  C_26
REMARK   12  A    between atoms: C_31  and  N_32
REMARK                            x       y       z     vdW  Elec       q    Type
REMARK                         _______ _______ _______ _____ _____    ______ ____
ROOT
ATOM      1  N   UNL     1      -6.283   5.991  -0.010  0.00  0.00    -0.204 N 
ATOM      2  C   UNL     1      -6.296   7.378   0.006  0.00  0.00    +0.254 A 
ATOM      3  N   UNL     1      -5.250   8.166   0.031  0.00  0.00    -0.109 NA
ATOM      4  N   UNL     1      -5.624   9.396   0.036  0.00  0.00    -0.119 NA
ATOM      5  C   UNL     1      -6.933   9.467   0.025  0.00  0.00    +0.210 A 
ATOM      6  N   UNL     1      -7.408   8.182   0.005  0.00  0.00    -0.211 N 
ATOM      7  H   UNL     1      -7.230   5.432  -0.025  0.00  0.00    +0.177 HD
ENDROOT
BRANCH   6   8
ATOM      8  N   UNL     1      -8.714   7.784  -0.012  0.00  0.00    -0.294 N 
ATOM      9  H   UNL     1      -9.518   8.536  -0.011  0.00  0.00    +0.163 HD
ATOM     10  H   UNL     1      -8.963   6.713  -0.028  0.00  0.00    +0.163 HD
ENDBRANCH   6   8
BRANCH   1  12
ATOM     11  C   UNL     1      -5.050   4.002  -0.021  0.00  0.00    +0.138 C 
ATOM     12  N   UNL     1      -5.063   5.302  -0.006  0.00  0.00    -0.188 NA
BRANCH  11  16
ATOM     13  C   UNL     1      -1.361   1.920  -0.011  0.00  0.00    +0.059 A 
ATOM     14  C   UNL     1      -1.375   3.319   0.011  0.00  0.00    +0.015 A 
ATOM     15  C   UNL     1      -2.563   3.990   0.002  0.00  0.00    +0.010 A 
ATOM     16  C   UNL     1      -3.769   3.279  -0.018  0.00  0.00    -0.005 A 
ATOM     17  C   UNL     1      -3.755   1.879  -0.034  0.00  0.00    +0.010 A 
ATOM     18  C   UNL     1      -2.566   1.208  -0.030  0.00  0.00    +0.015 A 
BRANCH  13  19
ATOM     19  C   UNL     1      -0.078   1.195  -0.006  0.00  0.00    +0.339 C 
ATOM     20  O   UNL     1      -0.066  -0.020  -0.020  0.00  0.00    -0.245 OA
BRANCH  19  22
ATOM     21  C   UNL     1       2.308   1.101   0.004  0.00  0.00    +0.280 C 
ATOM     22  O   UNL     1       1.083   1.880   0.007  0.00  0.00    -0.464 OA
ENDBRANCH  19  22
ENDBRANCH  13  19
ENDBRANCH  11  16
ENDBRANCH   1  12
BRANCH   5  23
ATOM     23  S   UNL     1      -7.901  10.939   0.034  0.00  0.00    -0.084 S 
BRANCH  23  24
ATOM     24  C   UNL     1      -6.584  12.181   0.061  0.00  0.00    +0.086 C 
BRANCH  24  25
ATOM     25  C   UNL     1      -7.203  13.580   0.072  0.00  0.00    +0.107 C 
BRANCH  25  26
ATOM     26  C   UNL     1      -6.106  14.614   0.094  0.00  0.00    +0.218 C 
ATOM     27  O   UNL     1      -4.944  14.265   0.100  0.00  0.00    -0.275 OA
ATOM     28  N   UNL     1      -6.417  15.925   0.107  0.00  0.00    -0.284 N 
ATOM     29  H   UNL     1      -7.467  16.243   0.029  0.00  0.00    +0.155 HD
BRANCH  28  30
ATOM     30  C   UNL     1      -5.403  16.883   0.221  0.00  0.00    +0.064 A 
ATOM     31  C   UNL     1      -4.169  16.665  -0.378  0.00  0.00    +0.025 A 
ATOM     32  C   UNL     1      -3.172  17.615  -0.268  0.00  0.00    +0.002 A 
ATOM     33  C   UNL     1      -3.398  18.777   0.447  0.00  0.00    +0.002 A 
ATOM     34  C   UNL     1      -4.624  18.994   1.049  0.00  0.00    +0.034 A 
ATOM     35  C   UNL     1      -5.626  18.051   0.939  0.00  0.00    +0.147 A 
BRANCH  35  36
ATOM     36  N   UNL     1      -6.938  18.284   1.585  0.00  0.00    +0.058 N 
ATOM     37  O   UNL     1      -7.168  19.349   2.129  0.00  0.00    -0.126 OA
ATOM     38  O   UNL     1      -7.787  17.411   1.572  0.00  0.00    -0.126 OA
ENDBRANCH  35  36
ENDBRANCH  28  30
ENDBRANCH  25  26
ENDBRANCH  24  25
ENDBRANCH  23  24
ENDBRANCH   5  23
TORSDOF 11
