REMARK  Name = ZINC01264693
REMARK  5 active torsions:
REMARK  status: ('A' for Active; 'I' for Inactive)
REMARK    1  A    between atoms: C_4  and  C_7
REMARK    2  A    between atoms: C_7  and  C_8
REMARK    3  A    between atoms: C_10  and  C_26
REMARK    4  A    between atoms: C_10  and  C_30
REMARK    5  A    between atoms: N_16  and  C_19
REMARK                            x       y       z     vdW  Elec       q    Type
REMARK                         _______ _______ _______ _____ _____    ______ ____
ROOT
ATOM      1  C   UNL     1       5.626  -1.305   1.013  0.00  0.00    +0.079 C 
ATOM      2  N   UNL     1       5.289  -2.492   1.591  0.00  0.00    -0.310 N 
ATOM      3  C   UNL     1       5.745  -2.758   2.965  0.00  0.00    +0.258 C 
ATOM      4  C   UNL     1       5.613  -1.476   3.748  0.00  0.00    +0.099 A 
ATOM      5  C   UNL     1       5.446  -1.491   5.137  0.00  0.00    +0.262 A 
ATOM      6  N   UNL     1       5.340  -0.322   5.802  0.00  0.00    -0.274 N 
ATOM      7  C   UNL     1       5.401   0.851   5.147  0.00  0.00    +0.335 A 
ATOM      8  O   UNL     1       5.311   1.888   5.775  0.00  0.00    -0.246 OA
ATOM      9  N   UNL     1       5.560   0.902   3.811  0.00  0.00    -0.248 N 
ATOM     10  C   UNL     1       5.660  -0.266   3.081  0.00  0.00    +0.132 A 
ATOM     11  N   UNL     1       5.787  -0.233   1.743  0.00  0.00    -0.332 N 
ATOM     12  O   UNL     1       5.397  -2.549   5.741  0.00  0.00    -0.267 OA
ATOM     13  H   UNL     1       5.998   0.608   1.308  0.00  0.00    +0.168 HD
ATOM     14  H   UNL     1       5.217  -0.327   6.764  0.00  0.00    +0.173 HD
ATOM     15  H   UNL     1       4.761  -3.146   1.108  0.00  0.00    +0.149 HD
ENDROOT
BRANCH   9  16
ATOM     16  C   UNL     1       5.624   2.141   3.160  0.00  0.00    +0.053 A 
ATOM     17  C   UNL     1       6.848   2.773   2.986  0.00  0.00    +0.026 A 
ATOM     18  C   UNL     1       6.907   3.995   2.344  0.00  0.00    +0.002 A 
ATOM     19  C   UNL     1       5.749   4.589   1.876  0.00  0.00    +0.000 A 
ATOM     20  C   UNL     1       4.529   3.962   2.049  0.00  0.00    +0.002 A 
ATOM     21  C   UNL     1       4.464   2.737   2.684  0.00  0.00    +0.026 A 
ENDBRANCH   9  16
BRANCH   3  22
ATOM     22  C   UNL     1       7.207  -3.208   2.949  0.00  0.00    +0.424 C 
ATOM     23  F   UNL     1       7.998  -2.201   2.386  0.00  0.00    -0.168 F 
ATOM     24  F   UNL     1       7.633  -3.459   4.258  0.00  0.00    -0.168 F 
ATOM     25  F   UNL     1       7.327  -4.375   2.187  0.00  0.00    -0.168 F 
ENDBRANCH   3  22
BRANCH   3  26
ATOM     26  C   UNL     1       4.874  -3.844   3.599  0.00  0.00    +0.424 C 
ATOM     27  F   UNL     1       4.735  -4.912   2.705  0.00  0.00    -0.168 F 
ATOM     28  F   UNL     1       5.478  -4.298   4.777  0.00  0.00    -0.168 F 
ATOM     29  F   UNL     1       3.612  -3.317   3.895  0.00  0.00    -0.168 F 
ENDBRANCH   3  26
BRANCH   1  30
ATOM     30  C   UNL     1       5.822  -1.229  -0.479  0.00  0.00    +0.104 C 
BRANCH  30  34
ATOM     31  C   UNL     1       2.109  -0.258  -2.356  0.00  0.00    +0.000 A 
ATOM     32  C   UNL     1       2.967   0.751  -1.958  0.00  0.00    +0.000 A 
ATOM     33  C   UNL     1       4.168   0.436  -1.351  0.00  0.00    +0.004 A 
ATOM     34  C   UNL     1       4.511  -0.886  -1.141  0.00  0.00    -0.040 A 
ATOM     35  C   UNL     1       3.653  -1.894  -1.537  0.00  0.00    +0.004 A 
ATOM     36  C   UNL     1       2.452  -1.580  -2.146  0.00  0.00    +0.000 A 
ENDBRANCH  30  34
ENDBRANCH   1  30
TORSDOF 5
