REMARK  Name = ZINC43557125
REMARK  9 active torsions:
REMARK  status: ('A' for Active; 'I' for Inactive)
REMARK    1  A    between atoms: C_1  and  C_2
REMARK    2  A    between atoms: C_2  and  C_3
REMARK    3  A    between atoms: C_3  and  C_4
REMARK    4  A    between atoms: N_12  and  C_13
REMARK    5  A    between atoms: N_12  and  C_14
REMARK    6  A    between atoms: C_14  and  C_16
REMARK    7  A    between atoms: C_14  and  C_17
REMARK    8  A    between atoms: C_20  and  S_23
REMARK    9  A    between atoms: S_23  and  N_26
REMARK                            x       y       z     vdW  Elec       q    Type
REMARK                         _______ _______ _______ _____ _____    ______ ____
ROOT
ATOM      1  C   UNL     1       0.692  -2.010  -1.199  0.00  0.00    +0.104 A 
ATOM      2  N   UNL     1      -0.176  -2.867  -1.698  0.00  0.00    -0.145 NA
ATOM      3  N   UNL     1       0.059  -4.105  -1.604  0.00  0.00    -0.126 NA
ATOM      4  C   UNL     1       1.147  -4.565  -1.020  0.00  0.00    +0.189 A 
ATOM      5  S   UNL     1       1.923  -3.140  -0.564  0.00  0.00    -0.035 S 
ATOM      6  N   UNL     1       1.552  -5.883  -0.835  0.00  0.00    -0.247 N 
ATOM      7  C   UNL     1       0.783  -6.894  -1.284  0.00  0.00    +0.308 C 
ATOM      8  O   UNL     1      -0.265  -6.655  -1.853  0.00  0.00    -0.252 OA
ATOM      9  N   UNL     1       1.176  -8.171  -1.104  0.00  0.00    -0.282 N 
ATOM     10  C   UNL     1       2.439  -8.459  -0.420  0.00  0.00    +0.134 C 
ATOM     11  H   UNL     1       2.389  -6.074  -0.382  0.00  0.00    +0.158 HD
ENDROOT
BRANCH   9  12
ATOM     12  C   UNL     1       0.340  -9.270  -1.593  0.00  0.00    +0.104 C 
ATOM     13  C   UNL     1       1.175 -10.185  -2.491  0.00  0.00    +0.033 C 
BRANCH  12  14
ATOM     14  C   UNL     1      -0.187 -10.060  -0.422  0.00  0.00    -0.027 A 
ATOM     15  C   UNL     1      -1.546 -10.269  -0.286  0.00  0.00    +0.007 A 
ATOM     16  C   UNL     1      -2.030 -10.993   0.788  0.00  0.00    +0.029 A 
ATOM     17  C   UNL     1      -1.153 -11.508   1.725  0.00  0.00    +0.105 A 
ATOM     18  C   UNL     1       0.207 -11.300   1.587  0.00  0.00    +0.029 A 
ATOM     19  C   UNL     1       0.690 -10.579   0.511  0.00  0.00    +0.007 A 
BRANCH  17  20
ATOM     20  S   UNL     1      -1.769 -12.430   3.094  0.00  0.00    +0.056 S 
ATOM     21  O   UNL     1      -0.789 -12.338   4.119  0.00  0.00    -0.153 OA
ATOM     22  O   UNL     1      -3.115 -12.019   3.288  0.00  0.00    -0.153 OA
BRANCH  20  23
ATOM     23  N   UNL     1      -1.822 -14.019   2.631  0.00  0.00    -0.204 NA
ATOM     24  H   UNL     1      -1.538 -14.274   1.739  0.00  0.00    +0.144 HD
ATOM     25  H   UNL     1      -2.136 -14.695   3.251  0.00  0.00    +0.144 HD
ENDBRANCH  20  23
ENDBRANCH  17  20
ENDBRANCH  12  14
ENDBRANCH   9  12
BRANCH   1  26
ATOM     26  C   UNL     1       0.660  -0.504  -1.175  0.00  0.00    +0.064 C 
BRANCH  26  28
ATOM     27  C   UNL     1      -0.071   1.501   0.124  0.00  0.00    +0.004 C 
ATOM     28  C   UNL     1      -0.037  -0.028   0.101  0.00  0.00    +0.003 C 
ENDBRANCH  26  28
ENDBRANCH   1  26
TORSDOF 6
