REMARK  Name = ZINC40385386
REMARK  9 active torsions:
REMARK  status: ('A' for Active; 'I' for Inactive)
REMARK    1  A    between atoms: C_1  and  C_2
REMARK    2  A    between atoms: C_2  and  N_3
REMARK    3  A    between atoms: N_3  and  C_4
REMARK    4  A    between atoms: N_3  and  S_6
REMARK    5  A    between atoms: C_4  and  C_5
REMARK    6  A    between atoms: S_6  and  N_9
REMARK    7  A    between atoms: N_9  and  C_10
REMARK    8  A    between atoms: C_13  and  S_17
REMARK    9  A    between atoms: S_17  and  N_20
REMARK                            x       y       z     vdW  Elec       q    Type
REMARK                         _______ _______ _______ _____ _____    ______ ____
ROOT
ATOM      1  C   UNL     1      -3.635   0.359   3.175  0.00  0.00    +0.112 A 
ATOM      2  C   UNL     1      -3.048   0.061   4.399  0.00  0.00    +0.069 A 
ATOM      3  C   UNL     1      -3.828  -0.011   5.538  0.00  0.00    +0.050 A 
ATOM      4  C   UNL     1      -5.190   0.214   5.460  0.00  0.00    +0.108 A 
ATOM      5  C   UNL     1      -5.778   0.510   4.244  0.00  0.00    +0.050 A 
ATOM      6  C   UNL     1      -5.003   0.589   3.102  0.00  0.00    +0.069 A 
ATOM      7 CL   UNL     1      -5.741   0.969   1.577  0.00  0.00    -0.081 Cl
ATOM      8 CL   UNL     1      -1.338  -0.221   4.497  0.00  0.00    -0.081 Cl
ENDROOT
BRANCH   4   9
ATOM      9  S   UNL     1      -6.180   0.120   6.915  0.00  0.00    +0.056 S 
ATOM     10  O   UNL     1      -7.505  -0.167   6.487  0.00  0.00    -0.153 OA
ATOM     11  O   UNL     1      -5.479  -0.709   7.831  0.00  0.00    -0.153 OA
BRANCH   9  12
ATOM     12  N   UNL     1      -6.217   1.636   7.581  0.00  0.00    -0.204 NA
ATOM     13  H   UNL     1      -5.739   2.365   7.154  0.00  0.00    +0.144 HD
ATOM     14  H   UNL     1      -6.716   1.796   8.397  0.00  0.00    +0.144 HD
ENDBRANCH   9  12
ENDBRANCH   4   9
BRANCH   1  15
ATOM     15  N   UNL     1      -2.849   0.433   2.021  0.00  0.00    -0.084 NA
BRANCH  15  16
ATOM     16  S   UNL     1      -2.104  -0.926   1.438  0.00  0.00    +0.131 S 
ATOM     17  O   UNL     1      -3.135  -1.857   1.137  0.00  0.00    -0.136 OA
ATOM     18  O   UNL     1      -1.045  -1.226   2.336  0.00  0.00    -0.136 OA
BRANCH  16  19
ATOM     19  N   UNL     1      -1.400  -0.517  -0.005  0.00  0.00    -0.163 NA
BRANCH  19  21
ATOM     20  C   UNL     1      -0.039   1.514  -0.024  0.00  0.00    +0.022 C 
ATOM     21  C   UNL     1      -0.024  -0.016  -0.032  0.00  0.00    +0.107 C 
ENDBRANCH  19  21
BRANCH  19  22
ATOM     22  C   UNL     1      -2.153  -0.658  -1.253  0.00  0.00    +0.107 C 
ATOM     23  C   UNL     1      -1.829  -2.009  -1.895  0.00  0.00    +0.022 C 
ENDBRANCH  19  22
ENDBRANCH  16  19
ENDBRANCH  15  16
ENDBRANCH   1  15
TORSDOF 7
