REMARK  Name = ZINC38827322
REMARK  9 active torsions:
REMARK  status: ('A' for Active; 'I' for Inactive)
REMARK    1  A    between atoms: C_1  and  N_2
REMARK    2  A    between atoms: N_2  and  C_3
REMARK    3  A    between atoms: N_2  and  C_4
REMARK    4  A    between atoms: C_4  and  C_5
REMARK    5  A    between atoms: C_5  and  N_6
REMARK    6  A    between atoms: C_10  and  C_15
REMARK    7  A    between atoms: C_11  and  C_13
REMARK    8  A    between atoms: C_17  and  C_22
REMARK    9  A    between atoms: C_19  and  N_21
REMARK                            x       y       z     vdW  Elec       q    Type
REMARK                         _______ _______ _______ _____ _____    ______ ____
ROOT
ATOM      1  N   UNL     1      -2.733  -2.544  -0.111  0.00  0.00    -0.329 N 
ATOM      2  C   UNL     1      -3.432  -2.911   1.026  0.00  0.00    +0.144 A 
ATOM      3  C   UNL     1      -4.720  -3.355   0.719  0.00  0.00    +0.093 A 
ATOM      4  N   UNL     1      -5.542  -3.750   1.668  0.00  0.00    -0.234 NA
ATOM      5  C   UNL     1      -5.154  -3.730   2.941  0.00  0.00    +0.176 A 
ATOM      6  C   UNL     1      -3.859  -3.285   3.263  0.00  0.00    +0.178 A 
ATOM      7  N   UNL     1      -3.037  -2.889   2.299  0.00  0.00    -0.217 NA
ATOM      8  C   UNL     1      -4.904  -3.277  -0.781  0.00  0.00    +0.111 C 
ATOM      9  C   UNL     1      -3.566  -2.728  -1.302  0.00  0.00    +0.031 C 
ENDROOT
BRANCH   8  10
ATOM     10  C   UNL     1      -6.027  -2.334  -1.126  0.00  0.00    +0.142 A 
ATOM     11  N   UNL     1      -5.942  -1.075  -0.725  0.00  0.00    -0.193 NA
ATOM     12  C   UNL     1      -6.894  -0.196  -0.995  0.00  0.00    +0.281 A 
ATOM     13  O   UNL     1      -6.794   1.087  -0.579  0.00  0.00    -0.265 OA
ATOM     14  C   UNL     1      -8.020  -0.635  -1.730  0.00  0.00    +0.068 A 
ATOM     15  C   UNL     1      -9.074   0.225  -2.061  0.00  0.00    +0.030 A 
ATOM     16  C   UNL     1     -10.134  -0.256  -2.773  0.00  0.00    +0.019 A 
ATOM     17  C   UNL     1     -10.181  -1.589  -3.175  0.00  0.00    +0.017 A 
ATOM     18  C   UNL     1      -9.171  -2.451  -2.868  0.00  0.00    +0.029 A 
ATOM     19  C   UNL     1      -8.066  -1.991  -2.138  0.00  0.00    +0.078 A 
ATOM     20  N   UNL     1      -7.043  -2.796  -1.815  0.00  0.00    -0.231 NA
ATOM     21 BR   UNL     1     -11.559   0.904  -3.221  0.00  0.00    -0.050 Br
ENDBRANCH   8  10
BRANCH   9  22
ATOM     22  N   UNL     1      -2.942  -3.697  -2.214  0.00  0.00    +0.391 N 
ATOM     23  H   UNL     1      -2.816  -4.576  -1.736  0.00  0.00    -0.087 HD
ATOM     24  H   UNL     1      -3.536  -3.833  -3.018  0.00  0.00    -0.087 HD
ATOM     25  H   UNL     1      -2.045  -3.346  -2.515  0.00  0.00    -0.087 HD
ENDBRANCH   9  22
BRANCH   6  26
ATOM     26  C   UNL     1      -3.429  -3.260   4.629  0.00  0.00    +0.122 C 
ATOM     27  N   UNL     1      -3.087  -3.240   5.712  0.00  0.00    -0.189 NA
ENDBRANCH   6  26
BRANCH   5  28
ATOM     28  C   UNL     1      -6.047  -4.159   3.975  0.00  0.00    +0.122 C 
ATOM     29  N   UNL     1      -6.756  -4.499   4.795  0.00  0.00    -0.189 NA
ENDBRANCH   5  28
BRANCH   1  30
ATOM     30  C   UNL     1      -1.358  -2.037  -0.122  0.00  0.00    +0.086 C 
BRANCH  30  31
ATOM     31  C   UNL     1      -1.376  -0.512   0.012  0.00  0.00    -0.060 C 
BRANCH  31  33
ATOM     32  C   UNL     1      -0.018   1.465   0.010  0.00  0.00    -0.097 C 
ATOM     33  N   UNL     1       0.002  -0.004   0.002  0.00  0.00    +0.377 N 
ATOM     34  C   UNL     1       0.713  -0.491   1.192  0.00  0.00    -0.097 C 
ATOM     35  H   UNL     1       0.474  -0.330  -0.828  0.00  0.00    -0.083 HD
ENDBRANCH  31  33
ENDBRANCH  30  31
ENDBRANCH   1  30
TORSDOF 7
