REMARK  Name = ZINC33636121
REMARK  22 active torsions:
REMARK  status: ('A' for Active; 'I' for Inactive)
REMARK    1  A    between atoms: C_1  and  C_2
REMARK    2  A    between atoms: C_2  and  C_3
REMARK    3  A    between atoms: C_3  and  C_4
REMARK    4  A    between atoms: C_3  and  C_5
REMARK    5  A    between atoms: C_3  and  C_6
REMARK    6  A    between atoms: C_9  and  O_17
REMARK    7  A    between atoms: C_10  and  C_12
REMARK    8  A    between atoms: C_12  and  C_13
REMARK    9  A    between atoms: C_12  and  C_14
REMARK   10  A    between atoms: C_12  and  C_15
REMARK   11  A    between atoms: C_15  and  C_16
REMARK   12  A    between atoms: O_17  and  C_18
REMARK   13  A    between atoms: C_18  and  C_19
REMARK   14  A    between atoms: C_19  and  C_20
REMARK   15  A    between atoms: C_20  and  C_21
REMARK   16  A    between atoms: C_21  and  N_22
REMARK   17  A    between atoms: C_23  and  C_25
REMARK   18  A    between atoms: C_28  and  C_30
REMARK   19  A    between atoms: C_30  and  C_32
REMARK   20  A    between atoms: C_30  and  N_36
REMARK   21  A    between atoms: C_32  and  C_34
REMARK   22  A    between atoms: C_32  and  O_35
REMARK                            x       y       z     vdW  Elec       q    Type
REMARK                         _______ _______ _______ _____ _____    ______ ____
ROOT
ATOM      1  C   UNL     1      -1.036   3.567   0.026  0.00  0.00    +0.022 C 
ENDROOT
BRANCH   1   2
ATOM      2  C   UNL     1      -2.371   4.314   0.037  0.00  0.00    +0.042 C 
BRANCH   2   3
ATOM      3  C   UNL     1      -2.112   5.821   0.044  0.00  0.00    +0.229 C 
BRANCH   3   4
ATOM      4  O   UNL     1      -3.359   6.519   0.053  0.00  0.00    -0.492 OA
BRANCH   4   8
ATOM      5  C   UNL     1      -3.199  10.641   0.075  0.00  0.00    -0.041 A 
ATOM      6  C   UNL     1      -2.028   9.905   0.066  0.00  0.00    +0.008 A 
ATOM      7  C   UNL     1      -2.079   8.525   0.058  0.00  0.00    +0.046 A 
ATOM      8  C   UNL     1      -3.306   7.877   0.060  0.00  0.00    +0.124 A 
ATOM      9  C   UNL     1      -4.479   8.618   0.064  0.00  0.00    +0.000 A 
ATOM     10  C   UNL     1      -4.423   9.998   0.077  0.00  0.00    +0.012 A 
BRANCH   5  11
ATOM     11  C   UNL     1      -3.140  12.147   0.082  0.00  0.00    -0.010 C 
ATOM     12  C   UNL     1      -3.847  12.691  -1.161  0.00  0.00    +0.016 C 
ATOM     13  C   UNL     1      -3.836  12.678   1.337  0.00  0.00    +0.016 C 
BRANCH  11  15
ATOM     14  C   UNL     1      -1.620  14.130   0.085  0.00  0.00    +0.005 C 
ATOM     15  C   UNL     1      -1.679  12.601   0.078  0.00  0.00    +0.007 C 
ENDBRANCH  11  15
ENDBRANCH   5  11
BRANCH   9  16
ATOM     16  C   UNL     1      -5.813   7.917   0.061  0.00  0.00    -0.007 C 
ATOM     17  C   UNL     1      -5.930   7.035   1.305  0.00  0.00    +0.016 C 
ATOM     18  C   UNL     1      -6.935   8.958   0.066  0.00  0.00    +0.016 C 
BRANCH  16  19
ATOM     19  C   UNL     1      -5.930   7.048  -1.193  0.00  0.00    +0.008 C 
ATOM     20  C   UNL     1      -7.284   6.337  -1.197  0.00  0.00    +0.005 C 
ENDBRANCH  16  19
ENDBRANCH   9  16
ENDBRANCH   4   8
ENDBRANCH   3   4
ENDBRANCH   2   3
ENDBRANCH   1   2
BRANCH   1  21
ATOM     21  C   UNL     1      -1.295   2.059   0.019  0.00  0.00    +0.104 C 
BRANCH  21  22
ATOM     22  N   UNL     1      -0.016   1.344   0.009  0.00  0.00    -0.310 N 
ATOM     23  C   UNL     1       0.002  -0.004   0.002  0.00  0.00    +0.266 C 
ATOM     24  O   UNL     1      -1.043  -0.626   0.009  0.00  0.00    -0.268 OA
ATOM     25  H   UNL     1       0.929   1.907   0.008  0.00  0.00    +0.149 HD
BRANCH  23  26
ATOM     26  C   UNL     1       1.289  -0.724  -0.014  0.00  0.00    +0.163 A 
ATOM     27  C   UNL     1       1.460  -2.074  -0.017  0.00  0.00    +0.230 A 
ATOM     28  O   UNL     1       2.783  -2.300  -0.037  0.00  0.00    -0.449 OA
ATOM     29  C   UNL     1       3.411  -1.116  -0.036  0.00  0.00    +0.184 A 
ATOM     30  N   UNL     1       2.528  -0.163  -0.023  0.00  0.00    -0.210 NA
BRANCH  29  31
ATOM     31  C   UNL     1       4.906  -0.921  -0.049  0.00  0.00    +0.042 C 
BRANCH  31  32
ATOM     32  N   UNL     1       5.527  -1.835   0.919  0.00  0.00    +0.387 N 
ATOM     33  H   UNL     1       6.617  -1.693   0.910  0.00  0.00    -0.089 HD
ATOM     34  H   UNL     1       5.290  -2.874   0.647  0.00  0.00    -0.089 HD
ATOM     35  H   UNL     1       5.138  -1.622   1.926  0.00  0.00    -0.089 HD
ENDBRANCH  31  32
BRANCH  31  36
ATOM     36  C   UNL     1       5.447  -1.218  -1.449  0.00  0.00    +0.106 C 
ATOM     37  C   UNL     1       6.975  -1.141  -1.432  0.00  0.00    +0.036 C 
BRANCH  36  38
ATOM     38  O   UNL     1       5.040  -2.527  -1.850  0.00  0.00    -0.393 OA
ATOM     39  H   UNL     1       5.336  -2.918  -2.834  0.00  0.00    +0.210 HD
ENDBRANCH  36  38
ENDBRANCH  31  36
ENDBRANCH  29  31
ENDBRANCH  23  26
ENDBRANCH  21  22
ENDBRANCH   1  21
TORSDOF 15
