REMARK  Name = ZINC39685897
REMARK  11 active torsions:
REMARK  status: ('A' for Active; 'I' for Inactive)
REMARK    1  A    between atoms: C_1  and  C_2
REMARK    2  A    between atoms: C_2  and  C_3
REMARK    3  A    between atoms: C_2  and  C_4
REMARK    4  A    between atoms: C_4  and  C_6
REMARK    5  A    between atoms: C_4  and  N_13
REMARK    6  A    between atoms: N_8  and  C_9
REMARK    7  A    between atoms: C_9  and  C_10
REMARK    8  A    between atoms: C_9  and  C_11
REMARK    9  A    between atoms: C_9  and  C_12
REMARK   10  A    between atoms: C_14  and  C_16
REMARK   11  A    between atoms: C_27  and  C_29
REMARK                            x       y       z     vdW  Elec       q    Type
REMARK                         _______ _______ _______ _____ _____    ______ ____
ROOT
ATOM      1  C   UNL     1       0.103  -3.804   1.930  0.00  0.00    +0.100 C 
ATOM      2  C   UNL     1       1.419  -3.986   1.140  0.00  0.00    +0.121 C 
ATOM      3  N   UNL     1       2.487  -3.650   2.110  0.00  0.00    -0.295 N 
ATOM      4  C   UNL     1       2.021  -4.235   3.390  0.00  0.00    +0.115 C 
ATOM      5  C   UNL     1       0.502  -3.972   3.405  0.00  0.00    -0.004 C 
ATOM      6  C   UNL     1      -0.233  -5.159   4.020  0.00  0.00    -0.010 C 
ATOM      7  C   UNL     1       0.135  -5.269   5.502  0.00  0.00    -0.082 C 
ATOM      8  N   UNL     1      -0.234  -4.028   6.194  0.00  0.00    +0.379 N 
ATOM      9  C   UNL     1       0.547  -2.906   5.659  0.00  0.00    -0.082 C 
ATOM     10  C   UNL     1       0.197  -2.695   4.184  0.00  0.00    -0.010 C 
ATOM     11  C   UNL     1       3.626  -2.967   1.880  0.00  0.00    +0.265 C 
ATOM     12  O   UNL     1       3.834  -2.482   0.785  0.00  0.00    -0.268 OA
ATOM     13  H   UNL     1      -1.217  -3.848   6.057  0.00  0.00    -0.086 HD
ATOM     14  H   UNL     1      -0.046  -4.126   7.181  0.00  0.00    -0.086 HD
ENDROOT
BRANCH  11  15
ATOM     15  C   UNL     1       4.626  -2.806   2.964  0.00  0.00    +0.126 A 
ATOM     16  C   UNL     1       5.758  -2.009   2.739  0.00  0.00    +0.033 A 
ATOM     17  C   UNL     1       6.685  -1.853   3.728  0.00  0.00    +0.012 A 
ATOM     18  C   UNL     1       6.467  -2.507   4.955  0.00  0.00    +0.000 A 
ATOM     19  C   UNL     1       7.379  -2.390   6.016  0.00  0.00    +0.010 A 
ATOM     20  C   UNL     1       7.135  -3.037   7.189  0.00  0.00    +0.001 A 
ATOM     21  C   UNL     1       5.990  -3.816   7.352  0.00  0.00    +0.002 A 
ATOM     22  C   UNL     1       5.085  -3.953   6.347  0.00  0.00    +0.028 A 
ATOM     23  C   UNL     1       5.301  -3.299   5.118  0.00  0.00    +0.072 A 
ATOM     24  N   UNL     1       4.427  -3.412   4.118  0.00  0.00    -0.242 NA
ENDBRANCH  11  15
BRANCH   1  26
ATOM     25  N   UNL     1      -1.788  -2.214   1.826  0.00  0.00    -0.303 N 
ATOM     26  C   UNL     1      -0.465  -2.429   1.693  0.00  0.00    +0.219 C 
ATOM     27  O   UNL     1       0.269  -1.515   1.381  0.00  0.00    -0.275 OA
ATOM     28  H   UNL     1      -2.376  -2.945   2.075  0.00  0.00    +0.149 HD
BRANCH  25  29
ATOM     29  C   UNL     1      -2.341  -0.877   1.596  0.00  0.00    +0.161 C 
BRANCH  29  30
ATOM     30  C   UNL     1      -3.630  -0.727   2.362  0.00  0.00    +0.234 C 
ATOM     31  O   UNL     1      -4.232  -1.712   2.734  0.00  0.00    -0.274 OA
ATOM     32  N   UNL     1      -4.114   0.501   2.632  0.00  0.00    -0.309 N 
ATOM     33  H   UNL     1      -3.598   1.289   2.399  0.00  0.00    +0.149 HD
BRANCH  32  34
ATOM     34  C   UNL     1      -5.421   0.648   3.279  0.00  0.00    +0.026 C 
ATOM     35  C   UNL     1      -5.396  -0.048   4.641  0.00  0.00    +0.031 C 
ATOM     36  C   UNL     1      -5.731   2.133   3.471  0.00  0.00    +0.031 C 
ATOM     37  C   UNL     1      -6.499   0.011   2.401  0.00  0.00    +0.031 C 
ENDBRANCH  32  34
ENDBRANCH  29  30
BRANCH  29  39
ATOM     38  C   UNL     1      -1.287  -0.736  -0.665  0.00  0.00    +0.009 C 
ATOM     39  C   UNL     1      -2.610  -0.686   0.102  0.00  0.00    +0.012 C 
ATOM     40  C   UNL     1      -3.530  -1.802  -0.397  0.00  0.00    +0.009 C 
ENDBRANCH  29  39
ENDBRANCH  25  29
ENDBRANCH   1  26
TORSDOF 6
