REMARK  Name = ZINC42784395
REMARK  6 active torsions:
REMARK  status: ('A' for Active; 'I' for Inactive)
REMARK    1  A    between atoms: C_6  and  C_7
REMARK    2  A    between atoms: C_7  and  S_8
REMARK    3  A    between atoms: S_8  and  C_9
REMARK    4  A    between atoms: C_11  and  C_19
REMARK    5  A    between atoms: N_21  and  N_22
REMARK    6  A    between atoms: C_23  and  C_25
REMARK                            x       y       z     vdW  Elec       q    Type
REMARK                         _______ _______ _______ _____ _____    ______ ____
ROOT
ATOM      1  C   UNL     1      -3.379  -2.000  -1.513  0.00  0.00    +0.004 C 
ATOM      2  C   UNL     1      -3.066  -3.439  -1.098  0.00  0.00    +0.075 C 
ATOM      3  C   UNL     1      -3.620  -4.393  -2.163  0.00  0.00    -0.003 C 
ATOM      4  C   UNL     1      -2.972  -4.045  -3.510  0.00  0.00    -0.015 C 
ATOM      5  C   UNL     1      -3.288  -2.586  -3.847  0.00  0.00    -0.077 C 
ATOM      6  N   UNL     1      -4.102  -1.994  -2.787  0.00  0.00    +0.388 N 
ATOM      7  C   UNL     1      -5.378  -2.701  -2.658  0.00  0.00    -0.077 C 
ATOM      8  C   UNL     1      -5.133  -4.161  -2.281  0.00  0.00    -0.015 C 
ATOM      9  H   UNL     1      -4.300  -1.036  -3.037  0.00  0.00    -0.080 HD
ENDROOT
BRANCH   2  10
ATOM     10  C   UNL     1      -3.711  -3.733   0.232  0.00  0.00    +0.232 C 
ATOM     11  O   UNL     1      -4.526  -4.625   0.327  0.00  0.00    -0.274 OA
ATOM     12  N   UNL     1      -3.381  -3.004   1.317  0.00  0.00    -0.234 N 
ATOM     13  H   UNL     1      -2.729  -2.290   1.242  0.00  0.00    +0.173 HD
BRANCH  12  14
ATOM     14  N   UNL     1      -3.981  -3.277   2.553  0.00  0.00    -0.230 N 
ATOM     15  C   UNL     1      -3.651  -2.548   3.638  0.00  0.00    +0.262 C 
ATOM     16  O   UNL     1      -2.834  -1.653   3.543  0.00  0.00    -0.269 OA
ATOM     17  H   UNL     1      -4.633  -3.991   2.629  0.00  0.00    +0.173 HD
BRANCH  15  18
ATOM     18  C   UNL     1      -4.284  -2.836   4.941  0.00  0.00    +0.057 A 
ATOM     19  C   UNL     1      -5.219  -3.867   5.054  0.00  0.00    +0.016 A 
ATOM     20  C   UNL     1      -5.805  -4.132   6.274  0.00  0.00    +0.021 A 
ATOM     21  C   UNL     1      -5.469  -3.377   7.386  0.00  0.00    +0.042 A 
ATOM     22  C   UNL     1      -4.543  -2.353   7.282  0.00  0.00    +0.040 A 
ATOM     23  C   UNL     1      -3.944  -2.082   6.068  0.00  0.00    +0.054 A 
ATOM     24 CL   UNL     1      -2.777  -0.803   5.939  0.00  0.00    -0.083 Cl
ATOM     25 CL   UNL     1      -6.213  -3.717   8.918  0.00  0.00    -0.083 Cl
ENDBRANCH  15  18
ENDBRANCH  12  14
ENDBRANCH   2  10
BRANCH   1  26
ATOM     26  S   UNL     1      -1.829  -1.075  -1.696  0.00  0.00    -0.171 S 
BRANCH  26  27
ATOM     27  C   UNL     1      -1.293  -0.775   0.011  0.00  0.00    +0.102 C 
BRANCH  27  33
ATOM     28  C   UNL     1      -0.017   1.378   0.010  0.00  0.00    +0.006 A 
ATOM     29  C   UNL     1       1.171   2.086   0.002  0.00  0.00    +0.020 A 
ATOM     30  C   UNL     1       2.378   1.410  -0.013  0.00  0.00    +0.041 A 
ATOM     31  C   UNL     1       2.396   0.027  -0.021  0.00  0.00    +0.020 A 
ATOM     32  C   UNL     1       1.208  -0.679  -0.013  0.00  0.00    +0.006 A 
ATOM     33  C   UNL     1       0.002  -0.004   0.002  0.00  0.00    -0.038 A 
ATOM     34 CL   UNL     1       3.870   2.298  -0.023  0.00  0.00    -0.084 Cl
ENDBRANCH  27  33
ENDBRANCH  26  27
ENDBRANCH   1  26
TORSDOF 6
