REMARK  Name = ZINC21736364
REMARK  9 active torsions:
REMARK  status: ('A' for Active; 'I' for Inactive)
REMARK    1  A    between atoms: C_1  and  C_2
REMARK    2  A    between atoms: C_2  and  N_3
REMARK    3  A    between atoms: C_7  and  S_29
REMARK    4  A    between atoms: C_11  and  S_12
REMARK    5  A    between atoms: S_12  and  C_13
REMARK    6  A    between atoms: C_13  and  C_14
REMARK    7  A    between atoms: N_16  and  C_17
REMARK    8  A    between atoms: C_18  and  C_26
REMARK    9  A    between atoms: S_29  and  N_32
REMARK                            x       y       z     vdW  Elec       q    Type
REMARK                         _______ _______ _______ _____ _____    ______ ____
ROOT
ATOM      1  C   UNL     1      -1.331   2.079   0.020  0.00  0.00    +0.173 C 
ENDROOT
BRANCH   1   2
ATOM      2  C   UNL     1      -0.016   1.344   0.009  0.00  0.00    +0.228 C 
ATOM      3  O   UNL     1       1.026   1.964   0.003  0.00  0.00    -0.275 OA
ATOM      4  N   UNL     1       0.002  -0.004   0.002  0.00  0.00    -0.279 N 
ATOM      5  H   UNL     1      -0.943  -0.567   0.008  0.00  0.00    +0.155 HD
BRANCH   4   6
ATOM      6  C   UNL     1       1.212  -0.681  -0.013  0.00  0.00    +0.084 A 
ATOM      7  C   UNL     1       1.434  -2.051  -0.017  0.00  0.00    +0.068 A 
ATOM      8  C   UNL     1       2.813  -2.508  -0.037  0.00  0.00    -0.023 A 
ATOM      9  C   UNL     1       3.743  -1.529  -0.041  0.00  0.00    -0.004 A 
ATOM     10  S   UNL     1       2.814  -0.022  -0.024  0.00  0.00    -0.077 S 
ATOM     11  C   UNL     1       5.231  -1.697  -0.054  0.00  0.00    +0.043 C 
ATOM     12  C   UNL     1       5.557  -3.152   0.314  0.00  0.00    +0.005 C 
ATOM     13  C   UNL     1       4.671  -4.082  -0.519  0.00  0.00    +0.005 C 
ATOM     14  C   UNL     1       3.219  -3.976  -0.049  0.00  0.00    +0.037 C 
BRANCH   7  15
ATOM     15  C   UNL     1       0.318  -3.002  -0.005  0.00  0.00    +0.244 C 
ATOM     16  O   UNL     1      -0.157  -3.396  -1.054  0.00  0.00    -0.270 OA
ATOM     17  N   UNL     1      -0.182  -3.439   1.168  0.00  0.00    -0.325 N 
ATOM     18  H   UNL     1      -1.019  -4.153   1.177  0.00  0.00    +0.145 HD
ATOM     19  H   UNL     1       0.247  -3.083   2.116  0.00  0.00    +0.145 HD
ENDBRANCH   7  15
ENDBRANCH   4   6
ENDBRANCH   1   2
BRANCH   1  20
ATOM     20  S   UNL     1      -1.025   3.863   0.028  0.00  0.00    -0.078 S 
BRANCH  20  29
ATOM     21  N   UNL     1      -3.044   5.776   0.053  0.00  0.00    -0.319 N 
ATOM     22  C   UNL     1      -4.429   5.822   0.054  0.00  0.00    +0.070 A 
ATOM     23  C   UNL     1      -5.356   6.853   0.064  0.00  0.00    +0.030 A 
ATOM     24  C   UNL     1      -6.705   6.563   0.069  0.00  0.00    +0.030 A 
ATOM     25  C   UNL     1      -7.141   5.247   0.065  0.00  0.00    +0.107 A 
ATOM     26  C   UNL     1      -6.234   4.210   0.055  0.00  0.00    +0.058 A 
ATOM     27  C   UNL     1      -4.865   4.487   0.050  0.00  0.00    +0.092 A 
ATOM     28  N   UNL     1      -3.754   3.704   0.040  0.00  0.00    -0.222 NA
ATOM     29  C   UNL     1      -2.683   4.458   0.039  0.00  0.00    +0.170 A 
BRANCH  25  30
ATOM     30  S   UNL     1      -8.868   4.897   0.071  0.00  0.00    +0.056 S 
ATOM     31  O   UNL     1      -9.016   3.593   0.617  0.00  0.00    -0.153 OA
ATOM     32  O   UNL     1      -9.510   6.034   0.631  0.00  0.00    -0.153 OA
BRANCH  30  33
ATOM     33  N   UNL     1      -9.356   4.808  -1.509  0.00  0.00    -0.204 NA
ATOM     34  H   UNL     1     -10.433   4.590  -1.548  0.00  0.00    +0.144 HD
ATOM     35  H   UNL     1      -8.801   4.007  -2.019  0.00  0.00    +0.144 HD
ENDBRANCH  30  33
ENDBRANCH  25  30
BRANCH  21  37
ATOM     36  C   UNL     1      -1.825   7.341  -1.377  0.00  0.00    +0.027 C 
ATOM     37  C   UNL     1      -2.136   6.926   0.062  0.00  0.00    +0.121 C 
ENDBRANCH  21  37
ENDBRANCH  20  29
ENDBRANCH   1  20
TORSDOF 8
