REMARK  Name = ZINC12636393
REMARK  14 active torsions:
REMARK  status: ('A' for Active; 'I' for Inactive)
REMARK    1  A    between atoms: C_1  and  C_2
REMARK    2  A    between atoms: C_5  and  O_8
REMARK    3  A    between atoms: O_8  and  C_9
REMARK    4  A    between atoms: C_9  and  C_10
REMARK    5  A    between atoms: C_10  and  N_11
REMARK    6  A    between atoms: C_15  and  C_42
REMARK    7  A    between atoms: N_19  and  O_20
REMARK    8  A    between atoms: O_20  and  C_21
REMARK    9  A    between atoms: C_23  and  N_36
REMARK   10  A    between atoms: C_25  and  O_35
REMARK   11  A    between atoms: C_27  and  O_34
REMARK   12  A    between atoms: C_29  and  C_32
REMARK   13  A    between atoms: C_32  and  O_33
REMARK   14  A    between atoms: C_37  and  C_39
REMARK                            x       y       z     vdW  Elec       q    Type
REMARK                         _______ _______ _______ _____ _____    ______ ____
ROOT
ATOM      1  N   UNL     1       0.587  -3.475  -4.786  0.00  0.00    -0.262 N 
ATOM      2  C   UNL     1       1.581  -2.503  -4.859  0.00  0.00    +0.046 A 
ATOM      3  C   UNL     1       2.596  -2.292  -5.786  0.00  0.00    +0.024 A 
ATOM      4  C   UNL     1       3.469  -1.234  -5.629  0.00  0.00    +0.005 A 
ATOM      5  C   UNL     1       3.347  -0.373  -4.551  0.00  0.00    -0.050 A 
ATOM      6  C   UNL     1       2.345  -0.568  -3.621  0.00  0.00    +0.015 A 
ATOM      7  C   UNL     1       1.458  -1.626  -3.774  0.00  0.00    +0.030 A 
ATOM      8  C   UNL     1       0.306  -2.108  -2.974  0.00  0.00    +0.174 C 
ATOM      9  N   UNL     1      -0.167  -1.595  -1.875  0.00  0.00    -0.076 NA
ATOM     10  C   UNL     1      -0.194  -3.300  -3.705  0.00  0.00    +0.273 C 
ATOM     11  O   UNL     1      -1.138  -3.994  -3.385  0.00  0.00    -0.268 OA
ATOM     12  C   UNL     1       4.308   0.777  -4.394  0.00  0.00    +0.044 C 
ENDROOT
BRANCH   1  13
ATOM     13  C   UNL     1       0.413  -4.552  -5.763  0.00  0.00    +0.155 C 
BRANCH  13  14
ATOM     14  C   UNL     1      -0.528  -4.084  -6.875  0.00  0.00    +0.248 C 
BRANCH  14  15
ATOM     15  O   UNL     1       0.083  -3.013  -7.597  0.00  0.00    -0.490 OA
BRANCH  15  20
ATOM     16  C   UNL     1      -2.856  -0.800 -11.862  0.00  0.00    +0.044 C 
ATOM     17  C   UNL     1      -2.070  -1.392 -10.721  0.00  0.00    -0.050 A 
ATOM     18  C   UNL     1      -0.816  -0.895 -10.416  0.00  0.00    +0.007 A 
ATOM     19  C   UNL     1      -0.093  -1.437  -9.370  0.00  0.00    +0.046 A 
ATOM     20  C   UNL     1      -0.626  -2.479  -8.626  0.00  0.00    +0.121 A 
ATOM     21  C   UNL     1      -1.882  -2.980  -8.938  0.00  0.00    +0.046 A 
ATOM     22  C   UNL     1      -2.603  -2.432  -9.981  0.00  0.00    +0.007 A 
ENDBRANCH  15  20
ENDBRANCH  14  15
ENDBRANCH  13  14
ENDBRANCH   1  13
BRANCH   9  23
ATOM     23  O   UNL     1       0.438  -0.445  -1.312  0.00  0.00    -0.359 OA
BRANCH  23  24
ATOM     24  C   UNL     1      -0.183   0.009  -0.108  0.00  0.00    +0.360 C 
ATOM     25  C   UNL     1      -0.019   1.527   0.010  0.00  0.00    +0.175 C 
ATOM     26  C   UNL     1       1.472   1.865   0.101  0.00  0.00    +0.172 C 
ATOM     27  C   UNL     1       2.083   1.120   1.291  0.00  0.00    +0.176 C 
ATOM     28  C   UNL     1       1.837  -0.382   1.123  0.00  0.00    +0.179 C 
ATOM     29  O   UNL     1       0.433  -0.625   1.015  0.00  0.00    -0.330 OA
BRANCH  25  30
ATOM     30  N   UNL     1      -0.702   2.000   1.216  0.00  0.00    -0.304 N 
ATOM     31  C   UNL     1      -1.199   3.252   1.262  0.00  0.00    +0.210 C 
ATOM     32  O   UNL     1      -1.080   3.987   0.304  0.00  0.00    -0.276 OA
ATOM     33  C   UNL     1      -1.902   3.740   2.502  0.00  0.00    +0.109 C 
ATOM     34  H   UNL     1      -0.797   1.413   1.982  0.00  0.00    +0.149 HD
ENDBRANCH  25  30
BRANCH  27  35
ATOM     35  O   UNL     1       1.473   1.571   2.502  0.00  0.00    -0.387 OA
ATOM     36  H   UNL     1       1.810   1.136   3.298  0.00  0.00    +0.210 HD
ENDBRANCH  27  35
BRANCH  26  37
ATOM     37  O   UNL     1       1.633   3.273   0.285  0.00  0.00    -0.387 OA
ATOM     38  H   UNL     1       2.554   3.559   0.351  0.00  0.00    +0.210 HD
ENDBRANCH  26  37
BRANCH  28  39
ATOM     39  C   UNL     1       2.392  -1.129   2.338  0.00  0.00    +0.190 C 
BRANCH  39  40
ATOM     40  O   UNL     1       2.266  -2.537   2.129  0.00  0.00    -0.392 OA
ATOM     41  H   UNL     1       2.599  -3.074   2.861  0.00  0.00    +0.210 HD
ENDBRANCH  39  40
ENDBRANCH  28  39
ENDBRANCH  23  24
ENDBRANCH   9  23
TORSDOF 11
