REMARK  Name = ZINC39637167
REMARK  5 active torsions:
REMARK  status: ('A' for Active; 'I' for Inactive)
REMARK    1  A    between atoms: C_1  and  C_2
REMARK    2  A    between atoms: C_7  and  N_12
REMARK    3  A    between atoms: C_9  and  C_11
REMARK    4  A    between atoms: C_13  and  C_15
REMARK    5  A    between atoms: C_26  and  C_28
REMARK                            x       y       z     vdW  Elec       q    Type
REMARK                         _______ _______ _______ _____ _____    ______ ____
ROOT
ATOM      1  C   UNL     1       1.056  -0.406   6.006  0.00  0.00    +0.100 C 
ATOM      2  C   UNL     1       0.534  -1.747   6.569  0.00  0.00    +0.121 C 
ATOM      3  N   UNL     1       0.703  -1.628   8.036  0.00  0.00    -0.296 N 
ATOM      4  C   UNL     1       0.331  -0.225   8.338  0.00  0.00    +0.115 C 
ATOM      5  C   UNL     1       0.920   0.590   7.169  0.00  0.00    -0.004 C 
ATOM      6  C   UNL     1       2.289   1.146   7.551  0.00  0.00    -0.010 C 
ATOM      7  C   UNL     1       2.122   2.176   8.671  0.00  0.00    -0.082 C 
ATOM      8  N   UNL     1       1.242   3.259   8.215  0.00  0.00    +0.379 N 
ATOM      9  C   UNL     1      -0.099   2.731   7.938  0.00  0.00    -0.082 C 
ATOM     10  C   UNL     1      -0.026   1.724   6.787  0.00  0.00    -0.010 C 
ATOM     11  C   UNL     1       1.104  -2.580   8.902  0.00  0.00    +0.247 C 
ATOM     12  O   UNL     1       1.108  -2.353  10.096  0.00  0.00    -0.270 OA
ATOM     13  H   UNL     1       1.183   3.966   8.932  0.00  0.00    -0.086 HD
ATOM     14  H   UNL     1       1.622   3.667   7.374  0.00  0.00    -0.086 HD
ENDROOT
BRANCH  11  15
ATOM     15  C   UNL     1       1.538  -3.900   8.399  0.00  0.00    +0.045 A 
ATOM     16  C   UNL     1       0.741  -4.601   7.487  0.00  0.00    +0.014 A 
ATOM     17  C   UNL     1       1.144  -5.832   7.016  0.00  0.00    +0.001 A 
ATOM     18  C   UNL     1       2.341  -6.389   7.439  0.00  0.00    +0.012 A 
ATOM     19  C   UNL     1       3.146  -5.709   8.345  0.00  0.00    +0.031 A 
ATOM     20  C   UNL     1       2.752  -4.451   8.829  0.00  0.00    +0.006 A 
ATOM     21  C   UNL     1       3.790  -3.953   9.765  0.00  0.00    -0.006 A 
ATOM     22  C   UNL     1       3.884  -2.784  10.508  0.00  0.00    +0.009 A 
ATOM     23  C   UNL     1       4.987  -2.565  11.320  0.00  0.00    +0.001 A 
ATOM     24  C   UNL     1       5.997  -3.504  11.396  0.00  0.00    +0.001 A 
ATOM     25  C   UNL     1       5.918  -4.676  10.661  0.00  0.00    +0.012 A 
ATOM     26  C   UNL     1       4.819  -4.908   9.844  0.00  0.00    +0.030 A 
ATOM     27  C   UNL     1       4.450  -6.045   8.966  0.00  0.00    +0.194 C 
ATOM     28  O   UNL     1       5.099  -7.054   8.781  0.00  0.00    -0.287 OA
ENDBRANCH  11  15
BRANCH   1  30
ATOM     29  N   UNL     1       0.725   0.878   3.918  0.00  0.00    -0.312 N 
ATOM     30  C   UNL     1       0.213   0.035   4.836  0.00  0.00    +0.218 C 
ATOM     31  O   UNL     1      -0.924  -0.369   4.722  0.00  0.00    -0.275 OA
ATOM     32  H   UNL     1       1.635   1.201   4.009  0.00  0.00    +0.149 HD
BRANCH  29  38
ATOM     33  C   UNL     1      -1.898   3.244   1.525  0.00  0.00    +0.008 C 
ATOM     34  C   UNL     1      -0.441   3.103   1.080  0.00  0.00    -0.009 C 
ATOM     35  C   UNL     1      -0.347   2.063  -0.038  0.00  0.00    +0.003 C 
ATOM     36  C   UNL     1      -0.855   0.715   0.476  0.00  0.00    +0.002 C 
ATOM     37  C   UNL     1      -0.000   0.267   1.664  0.00  0.00    +0.022 C 
ATOM     38  C   UNL     1      -0.094   1.307   2.781  0.00  0.00    +0.076 C 
ATOM     39  C   UNL     1       0.414   2.655   2.267  0.00  0.00    +0.009 C 
ATOM     40  C   UNL     1       0.320   3.696   3.384  0.00  0.00    +0.009 C 
ENDBRANCH  29  38
ENDBRANCH   1  30
TORSDOF 3
