REMARK  Name = ZINC35137795
REMARK  15 active torsions:
REMARK  status: ('A' for Active; 'I' for Inactive)
REMARK    1  A    between atoms: C_1  and  C_2
REMARK    2  A    between atoms: C_2  and  C_3
REMARK    3  A    between atoms: C_8  and  N_9
REMARK    4  A    between atoms: N_12  and  C_13
REMARK    5  A    between atoms: N_12  and  C_33
REMARK    6  A    between atoms: C_13  and  C_14
REMARK    7  A    between atoms: N_16  and  C_17
REMARK    8  A    between atoms: C_19  and  C_29
REMARK    9  A    between atoms: N_21  and  C_22
REMARK   10  A    between atoms: C_27  and  C_28
REMARK   11  A    between atoms: C_29  and  C_30
REMARK   12  A    between atoms: C_29  and  C_31
REMARK   13  A    between atoms: C_29  and  C_32
REMARK   14  A    between atoms: C_33  and  C_34
REMARK   15  A    between atoms: C_33  and  C_35
REMARK                            x       y       z     vdW  Elec       q    Type
REMARK                         _______ _______ _______ _____ _____    ______ ____
ROOT
ATOM      1  C   UNL     1      -3.381   0.853   6.097  0.00  0.00    +0.236 C 
ATOM      2  O   UNL     1      -2.924   1.869   5.620  0.00  0.00    -0.274 OA
ATOM      3  N   UNL     1      -4.220   0.921   7.150  0.00  0.00    -0.269 N 
ATOM      4  H   UNL     1      -4.586   0.108   7.532  0.00  0.00    +0.156 HD
ENDROOT
BRANCH   3   5
ATOM      5  C   UNL     1      -4.562   2.160   7.690  0.00  0.00    +0.129 A 
ATOM      6  C   UNL     1      -4.229   3.379   7.184  0.00  0.00    +0.069 A 
ATOM      7  C   UNL     1      -4.767   4.355   8.026  0.00  0.00    +0.071 A 
ATOM      8  N   UNL     1      -5.400   3.757   9.003  0.00  0.00    -0.169 NA
ATOM      9  N   UNL     1      -5.294   2.373   8.817  0.00  0.00    -0.218 N 
BRANCH   9  10
ATOM     10  C   UNL     1      -5.842   1.384   9.645  0.00  0.00    +0.070 A 
ATOM     11  C   UNL     1      -6.679   0.413   9.110  0.00  0.00    +0.028 A 
ATOM     12  C   UNL     1      -7.217  -0.560   9.928  0.00  0.00    +0.002 A 
ATOM     13  C   UNL     1      -6.924  -0.569  11.280  0.00  0.00    +0.000 A 
ATOM     14  C   UNL     1      -6.091   0.396  11.816  0.00  0.00    +0.005 A 
ATOM     15  C   UNL     1      -5.545   1.369  11.001  0.00  0.00    -0.025 A 
ATOM     16  C   UNL     1      -4.633   2.417  11.585  0.00  0.00    +0.046 C 
ENDBRANCH   9  10
BRANCH   7  17
ATOM     17  C   UNL     1      -4.640   5.846   7.841  0.00  0.00    +0.006 C 
ATOM     18  C   UNL     1      -5.568   6.301   6.713  0.00  0.00    +0.017 C 
ATOM     19  C   UNL     1      -5.029   6.556   9.140  0.00  0.00    +0.017 C 
ATOM     20  C   UNL     1      -3.194   6.193   7.484  0.00  0.00    +0.017 C 
ENDBRANCH   7  17
ENDBRANCH   3   5
BRANCH   1  21
ATOM     21  C   UNL     1      -3.012  -0.487   5.513  0.00  0.00    +0.205 C 
BRANCH  21  25
ATOM     22  N   UNL     1       0.075  -0.007   3.577  0.00  0.00    -0.269 N 
ATOM     23  C   UNL     1      -0.764  -0.270   4.598  0.00  0.00    +0.307 C 
ATOM     24  O   UNL     1      -0.321  -0.487   5.709  0.00  0.00    -0.252 OA
ATOM     25  N   UNL     1      -2.095  -0.292   4.387  0.00  0.00    -0.274 N 
ATOM     26  H   UNL     1      -0.279   0.201   2.699  0.00  0.00    +0.156 HD
BRANCH  22  32
ATOM     27  C   UNL     1       2.320  -0.216   2.710  0.00  0.00    -0.026 A 
ATOM     28  C   UNL     1       3.686  -0.237   2.917  0.00  0.00    +0.005 A 
ATOM     29  C   UNL     1       4.195  -0.084   4.193  0.00  0.00    +0.000 A 
ATOM     30  C   UNL     1       3.340   0.091   5.266  0.00  0.00    +0.002 A 
ATOM     31  C   UNL     1       1.974   0.113   5.066  0.00  0.00    +0.023 A 
ATOM     32  C   UNL     1       1.459  -0.035   3.784  0.00  0.00    +0.038 A 
BRANCH  27  34
ATOM     33  C   UNL     1       1.518   0.994   0.700  0.00  0.00    +0.009 C 
ATOM     34  C   UNL     1       1.765  -0.383   1.319  0.00  0.00    +0.033 C 
ENDBRANCH  27  34
ENDBRANCH  22  32
BRANCH  25  35
ATOM     35  C   UNL     1      -2.625  -0.123   3.032  0.00  0.00    +0.072 C 
ATOM     36  C   UNL     1      -3.332  -1.408   2.596  0.00  0.00    +0.028 C 
ATOM     37  C   UNL     1      -3.622   1.038   3.016  0.00  0.00    +0.028 C 
ENDBRANCH  25  35
ENDBRANCH  21  25
ENDBRANCH   1  21
TORSDOF 8
