REMARK  Name = ZINC09542637
REMARK  10 active torsions:
REMARK  status: ('A' for Active; 'I' for Inactive)
REMARK    1  A    between atoms: C_1  and  C_2
REMARK    2  A    between atoms: C_2  and  O_3
REMARK    3  A    between atoms: O_3  and  C_4
REMARK    4  A    between atoms: C_8  and  C_11
REMARK    5  A    between atoms: C_9  and  O_10
REMARK    6  A    between atoms: C_14  and  C_28
REMARK    7  A    between atoms: C_16  and  C_18
REMARK    8  A    between atoms: C_21  and  C_24
REMARK    9  A    between atoms: C_24  and  O_26
REMARK   10  A    between atoms: O_26  and  C_27
REMARK                            x       y       z     vdW  Elec       q    Type
REMARK                         _______ _______ _______ _____ _____    ______ ____
ROOT
ATOM      1  C   UNL     1      -1.210   7.491  -0.337  0.00  0.00    -0.028 C 
ATOM      2  C   UNL     1      -1.400   6.021   0.041  0.00  0.00    +0.044 C 
ATOM      3  C   UNL     1      -0.069   5.322   0.031  0.00  0.00    +0.040 C 
ATOM      4  N   UNL     1       1.048   5.946   0.025  0.00  0.00    -0.299 NA
ATOM      5  C   UNL     1       1.174   7.398   0.022  0.00  0.00    +0.081 C 
ATOM      6  N   UNL     1      -0.083   8.031   0.449  0.00  0.00    +0.401 N 
ATOM      7  H   UNL     1      -0.239   7.840   1.445  0.00  0.00    -0.081 HD
ATOM      8  H   UNL     1      -0.020   9.046   0.301  0.00  0.00    -0.081 HD
ENDROOT
BRANCH   3   9
ATOM      9  C   UNL     1      -0.050   3.846   0.023  0.00  0.00    -0.003 A 
ATOM     10  C   UNL     1       1.167   3.160   0.008  0.00  0.00    +0.010 A 
ATOM     11  C   UNL     1       1.178   1.781   0.000  0.00  0.00    +0.002 A 
ATOM     12  C   UNL     1      -0.013   1.076   0.008  0.00  0.00    +0.015 A 
ATOM     13  C   UNL     1      -1.222   1.748   0.017  0.00  0.00    +0.018 A 
ATOM     14  C   UNL     1      -1.248   3.129   0.030  0.00  0.00    +0.025 A 
ATOM     15 BR   UNL     1      -2.843   0.775   0.020  0.00  0.00    -0.050 Br
ENDBRANCH   3   9
BRANCH   1  20
ATOM     16  C   UNL     1      -4.690   8.957  -0.603  0.00  0.00    +0.162 A 
ATOM     17  C   UNL     1      -4.764   9.693   0.569  0.00  0.00    +0.049 A 
ATOM     18  C   UNL     1      -3.692   9.714   1.441  0.00  0.00    +0.004 A 
ATOM     19  C   UNL     1      -2.546   8.997   1.150  0.00  0.00    +0.006 A 
ATOM     20  C   UNL     1      -2.463   8.266  -0.020  0.00  0.00    -0.016 A 
ATOM     21  C   UNL     1      -3.534   8.240  -0.898  0.00  0.00    +0.160 A 
BRANCH  21  22
ATOM     22  O   UNL     1      -3.456   7.516  -2.047  0.00  0.00    -0.503 OA
ATOM     23  H   UNL     1      -3.762   6.603  -1.958  0.00  0.00    +0.292 HD
ENDBRANCH  21  22
BRANCH  16  24
ATOM     24  O   UNL     1      -5.744   8.935  -1.462  0.00  0.00    -0.489 OA
BRANCH  24  26
ATOM     25  C   UNL     1      -7.970   9.549  -2.175  0.00  0.00    +0.048 C 
ATOM     26  C   UNL     1      -6.897   9.694  -1.093  0.00  0.00    +0.226 C 
ENDBRANCH  24  26
ENDBRANCH  16  24
ENDBRANCH   1  20
BRANCH   5  27
ATOM     27  C   UNL     1       1.518   7.863  -1.370  0.00  0.00    -0.040 A 
ATOM     28  C   UNL     1       1.099   9.109  -1.803  0.00  0.00    +0.004 A 
ATOM     29  C   UNL     1       1.415   9.543  -3.073  0.00  0.00    +0.015 A 
ATOM     30  C   UNL     1       2.151   8.719  -3.926  0.00  0.00    +0.059 A 
ATOM     31  C   UNL     1       2.566   7.461  -3.485  0.00  0.00    +0.015 A 
ATOM     32  C   UNL     1       2.248   7.041  -2.210  0.00  0.00    +0.004 A 
BRANCH  30  33
ATOM     33  C   UNL     1       2.488   9.175  -5.290  0.00  0.00    +0.339 C 
ATOM     34  O   UNL     1       3.128   8.455  -6.031  0.00  0.00    -0.245 OA
BRANCH  33  35
ATOM     35  O   UNL     1       2.086  10.389  -5.713  0.00  0.00    -0.464 OA
ATOM     36  C   UNL     1       2.454  10.771  -7.065  0.00  0.00    +0.280 C 
ENDBRANCH  33  35
ENDBRANCH  30  33
ENDBRANCH   5  27
TORSDOF 8
