REMARK  Name = ZINC36039427
REMARK  11 active torsions:
REMARK  status: ('A' for Active; 'I' for Inactive)
REMARK    1  A    between atoms: C_1  and  C_2
REMARK    2  A    between atoms: C_2  and  N_3
REMARK    3  A    between atoms: N_3  and  C_4
REMARK    4  A    between atoms: C_4  and  C_5
REMARK    5  A    between atoms: C_5  and  N_7
REMARK    6  A    between atoms: C_10  and  C_23
REMARK    7  A    between atoms: N_12  and  C_13
REMARK    8  A    between atoms: C_16  and  O_21
REMARK    9  A    between atoms: C_17  and  O_19
REMARK   10  A    between atoms: O_19  and  C_20
REMARK   11  A    between atoms: O_21  and  C_22
REMARK                            x       y       z     vdW  Elec       q    Type
REMARK                         _______ _______ _______ _____ _____    ______ ____
ROOT
ATOM      1  N   UNL     1       1.602  -3.764   2.607  0.00  0.00    -0.148 NA
ATOM      2  C   UNL     1       2.247  -4.205   3.687  0.00  0.00    +0.205 A 
ATOM      3  N   UNL     1       2.800  -3.433   4.657  0.00  0.00    -0.326 N 
ATOM      4  C   UNL     1       3.373  -4.278   5.600  0.00  0.00    +0.066 A 
ATOM      5  C   UNL     1       3.165  -5.545   5.199  0.00  0.00    +0.120 A 
ATOM      6  N   UNL     1       2.461  -5.508   4.012  0.00  0.00    -0.287 N 
ATOM      7  H   UNL     1       2.796  -2.463   4.687  0.00  0.00    +0.169 HD
ENDROOT
BRANCH   4   8
ATOM      8  C   UNL     1       4.084  -3.859   6.827  0.00  0.00    -0.000 A 
ATOM      9  C   UNL     1       4.619  -4.817   7.689  0.00  0.00    +0.011 A 
ATOM     10  C   UNL     1       5.282  -4.421   8.832  0.00  0.00    +0.020 A 
ATOM     11  C   UNL     1       5.416  -3.074   9.126  0.00  0.00    +0.041 A 
ATOM     12  C   UNL     1       4.887  -2.119   8.275  0.00  0.00    +0.020 A 
ATOM     13  C   UNL     1       4.228  -2.503   7.125  0.00  0.00    +0.011 A 
ATOM     14 CL   UNL     1       6.251  -2.583  10.566  0.00  0.00    -0.084 Cl
ENDBRANCH   4   8
BRANCH   6  15
ATOM     15  C   UNL     1       2.042  -6.621   3.270  0.00  0.00    +0.053 A 
ATOM     16  C   UNL     1       1.346  -6.441   2.082  0.00  0.00    +0.030 A 
ATOM     17  C   UNL     1       0.932  -7.536   1.349  0.00  0.00    +0.051 A 
ATOM     18  C   UNL     1       1.211  -8.817   1.798  0.00  0.00    +0.162 A 
ATOM     19  C   UNL     1       1.909  -9.001   2.987  0.00  0.00    +0.163 A 
ATOM     20  C   UNL     1       2.329  -7.903   3.719  0.00  0.00    +0.075 A 
BRANCH  19  21
ATOM     21  O   UNL     1       2.183 -10.258   3.429  0.00  0.00    -0.491 OA
ATOM     22  C   UNL     1       2.903 -10.371   4.658  0.00  0.00    +0.277 C 
ENDBRANCH  19  21
BRANCH  18  23
ATOM     23  O   UNL     1       0.802  -9.895   1.075  0.00  0.00    -0.491 OA
ATOM     24  C   UNL     1       0.090  -9.632  -0.136  0.00  0.00    +0.277 C 
ENDBRANCH  18  23
ENDBRANCH   6  15
BRANCH   1  25
ATOM     25  C   UNL     1       1.461  -2.459   2.405  0.00  0.00    +0.222 C 
ATOM     26  O   UNL     1       1.921  -1.666   3.205  0.00  0.00    -0.276 OA
BRANCH  25  27
ATOM     27  C   UNL     1       0.733  -1.960   1.184  0.00  0.00    +0.017 C 
BRANCH  27  28
ATOM     28  N   UNL     1       0.713  -0.491   1.192  0.00  0.00    +0.385 N 
ATOM     29  H   UNL     1       1.659  -0.141   1.185  0.00  0.00    -0.085 HD
ATOM     30  H   UNL     1       0.240  -0.165   2.022  0.00  0.00    -0.085 HD
BRANCH  28  32
ATOM     31  C   UNL     1      -0.019   1.526   0.010  0.00  0.00    -0.017 C 
ATOM     32  C   UNL     1       0.002  -0.004   0.002  0.00  0.00    -0.085 C 
ENDBRANCH  28  32
ENDBRANCH  27  28
ENDBRANCH  25  27
ENDBRANCH   1  25
TORSDOF 8
