REMARK  Name = ZINC38688570
REMARK  9 active torsions:
REMARK  status: ('A' for Active; 'I' for Inactive)
REMARK    1  A    between atoms: C_2  and  C_3
REMARK    2  A    between atoms: C_3  and  O_4
REMARK    3  A    between atoms: O_4  and  C_5
REMARK    4  A    between atoms: C_8  and  C_11
REMARK    5  A    between atoms: C_16  and  O_25
REMARK    6  A    between atoms: C_20  and  N_24
REMARK    7  A    between atoms: C_21  and  C_22
REMARK    8  A    between atoms: O_25  and  C_26
REMARK    9  A    between atoms: C_26  and  C_28
REMARK                            x       y       z     vdW  Elec       q    Type
REMARK                         _______ _______ _______ _____ _____    ______ ____
ROOT
ATOM      1  C   UNL     1      -5.714  -5.176  -1.466  0.00  0.00    +0.098 C 
ATOM      2  C   UNL     1      -6.250  -5.082  -2.869  0.00  0.00    +0.008 A 
ATOM      3  C   UNL     1      -7.052  -4.010  -3.221  0.00  0.00    +0.012 A 
ATOM      4  C   UNL     1      -7.553  -3.907  -4.503  0.00  0.00    +0.047 A 
ATOM      5  C   UNL     1      -7.254  -4.882  -5.445  0.00  0.00    +0.135 A 
ATOM      6  C   UNL     1      -6.452  -5.956  -5.097  0.00  0.00    +0.093 A 
ATOM      7  C   UNL     1      -5.948  -6.058  -3.806  0.00  0.00    +0.138 A 
ATOM      8  O   UNL     1      -5.165  -7.115  -3.481  0.00  0.00    -0.441 OA
ATOM      9  C   UNL     1      -4.989  -7.447  -2.191  0.00  0.00    +0.199 C 
ATOM     10  C   UNL     1      -5.231  -6.573  -1.190  0.00  0.00    +0.098 C 
ENDROOT
BRANCH   1  14
ATOM     11  C   UNL     1      -2.464  -2.439  -1.006  0.00  0.00    +0.121 A 
ATOM     12  C   UNL     1      -3.594  -2.317  -0.210  0.00  0.00    +0.046 A 
ATOM     13  C   UNL     1      -4.643  -3.202  -0.361  0.00  0.00    +0.008 A 
ATOM     14  C   UNL     1      -4.568  -4.211  -1.304  0.00  0.00    -0.034 A 
ATOM     15  C   UNL     1      -3.443  -4.336  -2.097  0.00  0.00    +0.008 A 
ATOM     16  C   UNL     1      -2.393  -3.449  -1.955  0.00  0.00    +0.046 A 
BRANCH  11  17
ATOM     17  O   UNL     1      -1.431  -1.569  -0.859  0.00  0.00    -0.488 OA
BRANCH  17  18
ATOM     18  C   UNL     1      -1.573  -0.555   0.138  0.00  0.00    +0.256 C 
BRANCH  18  20
ATOM     19  C   UNL     1      -0.453   1.613   0.209  0.00  0.00    +0.007 C 
ATOM     20  C   UNL     1      -0.339   0.309   0.154  0.00  0.00    +0.006 C 
ENDBRANCH  18  20
ENDBRANCH  17  18
ENDBRANCH  11  17
ENDBRANCH   1  14
BRANCH   9  21
ATOM     21  N   UNL     1      -4.550  -8.711  -1.882  0.00  0.00    -0.328 N 
ATOM     22  H   UNL     1      -4.372  -9.349  -2.591  0.00  0.00    +0.145 HD
ATOM     23  H   UNL     1      -4.418  -8.965  -0.955  0.00  0.00    +0.145 HD
ENDBRANCH   9  21
BRANCH  10  24
ATOM     24  C   UNL     1      -5.022  -6.988   0.164  0.00  0.00    +0.101 C 
ATOM     25  N   UNL     1      -4.857  -7.318   1.239  0.00  0.00    -0.191 NA
ENDBRANCH  10  24
BRANCH   5  26
ATOM     26  O   UNL     1      -7.748  -4.782  -6.708  0.00  0.00    -0.422 OA
BRANCH  26  27
ATOM     27  C   UNL     1      -8.687  -5.670  -7.092  0.00  0.00    +0.351 C 
ATOM     28  O   UNL     1      -9.143  -6.459  -6.287  0.00  0.00    -0.244 OA
BRANCH  27  29
ATOM     29  C   UNL     1      -9.160  -5.684  -8.484  0.00  0.00    +0.144 A 
ATOM     30  C   UNL     1     -10.131  -6.583  -8.908  0.00  0.00    +0.033 A 
ATOM     31  C   UNL     1     -10.513  -6.557 -10.274  0.00  0.00    +0.018 A 
ATOM     32  C   UNL     1     -11.621  -7.295 -10.717  0.00  0.00    +0.011 A 
ATOM     33  C   UNL     1     -12.001  -7.227 -12.027  0.00  0.00    +0.001 A 
ATOM     34  C   UNL     1     -11.296  -6.439 -12.927  0.00  0.00    +0.004 A 
ATOM     35  C   UNL     1     -10.192  -5.721 -12.517  0.00  0.00    +0.047 A 
ATOM     36  C   UNL     1      -9.782  -5.780 -11.192  0.00  0.00    +0.139 A 
ATOM     37  O   UNL     1      -8.674  -5.113 -10.787  0.00  0.00    -0.422 OA
ATOM     38  C   UNL     1      -8.627  -4.741  -9.485  0.00  0.00    +0.351 A 
ATOM     39  O   UNL     1      -8.158  -3.669  -9.151  0.00  0.00    -0.244 OA
ENDBRANCH  27  29
ENDBRANCH  26  27
ENDBRANCH   5  26
TORSDOF 9
