REMARK  Name = ZINC35842626
REMARK  21 active torsions:
REMARK  status: ('A' for Active; 'I' for Inactive)
REMARK    1  A    between atoms: C_1  and  C_2
REMARK    2  A    between atoms: C_2  and  C_3
REMARK    3  A    between atoms: C_3  and  C_4
REMARK    4  A    between atoms: C_4  and  N_5
REMARK    5  A    between atoms: N_5  and  C_6
REMARK    6  A    between atoms: N_5  and  C_13
REMARK    7  A    between atoms: C_6  and  C_7
REMARK    8  A    between atoms: C_7  and  C_9
REMARK    9  A    between atoms: C_7  and  O_12
REMARK   10  A    between atoms: C_9  and  C_10
REMARK   11  A    between atoms: C_10  and  C_11
REMARK   12  A    between atoms: C_13  and  C_14
REMARK   13  A    between atoms: N_16  and  C_17
REMARK   14  A    between atoms: N_16  and  C_29
REMARK   15  A    between atoms: C_17  and  C_18
REMARK   16  A    between atoms: C_18  and  C_19
REMARK   17  A    between atoms: C_29  and  C_30
REMARK   18  A    between atoms: C_33  and  C_36
REMARK   19  A    between atoms: C_36  and  C_37
REMARK   20  A    between atoms: C_36  and  C_38
REMARK   21  A    between atoms: C_36  and  C_39
REMARK                            x       y       z     vdW  Elec       q    Type
REMARK                         _______ _______ _______ _____ _____    ______ ____
ROOT
ATOM      1  C   UNL     1       2.699  -4.223   1.029  0.00  0.00    +0.199 C 
ATOM      2  O   UNL     1       3.006  -3.304   0.300  0.00  0.00    -0.278 OA
ATOM      3  N   UNL     1       3.097  -5.477   0.735  0.00  0.00    -0.298 N 
ENDROOT
BRANCH   1   4
ATOM      4  C   UNL     1       1.874  -3.964   2.263  0.00  0.00    +0.019 C 
BRANCH   4   5
ATOM      5  N   UNL     1       1.573  -2.529   2.358  0.00  0.00    +0.387 N 
ATOM      6  H   UNL     1       2.433  -2.002   2.330  0.00  0.00    -0.081 HD
BRANCH   5   7
ATOM      7  C   UNL     1       0.872  -2.258   3.620  0.00  0.00    -0.047 C 
BRANCH   7   8
ATOM      8  C   UNL     1       1.813  -2.531   4.795  0.00  0.00    +0.098 C 
BRANCH   8   9
ATOM      9  O   UNL     1       2.957  -1.680   4.697  0.00  0.00    -0.394 OA
ATOM     10  H   UNL     1       2.755  -0.739   4.789  0.00  0.00    +0.210 HD
ENDBRANCH   8   9
BRANCH   8  11
ATOM     11  C   UNL     1       1.082  -2.254   6.109  0.00  0.00    +0.029 C 
BRANCH  11  12
ATOM     12  C   UNL     1       1.980  -2.645   7.285  0.00  0.00    -0.001 C 
ATOM     13  C   UNL     1       1.249  -2.367   8.600  0.00  0.00    +0.004 C 
ENDBRANCH  11  12
ENDBRANCH   8  11
ENDBRANCH   7   8
ENDBRANCH   5   7
BRANCH   5  14
ATOM     14  C   UNL     1       0.720  -2.133   1.229  0.00  0.00    -0.078 C 
BRANCH  14  15
ATOM     15  C   UNL     1       0.527  -0.615   1.244  0.00  0.00    -0.019 C 
BRANCH  15  17
ATOM     16  C   UNL     1      -0.441   1.331   0.011  0.00  0.00    +0.004 C 
ATOM     17  C   UNL     1      -0.249  -0.187  -0.004  0.00  0.00    -0.005 C 
ENDBRANCH  15  17
ENDBRANCH  14  15
ENDBRANCH   5  14
ENDBRANCH   4   5
ENDBRANCH   1   4
BRANCH   3  18
ATOM     18  C   UNL     1       2.726  -6.588   1.616  0.00  0.00    +0.113 C 
BRANCH  18  19
ATOM     19  C   UNL     1       1.391  -7.178   1.159  0.00  0.00    +0.056 C 
BRANCH  19  20
ATOM     20  C   UNL     1       1.010  -8.321   2.064  0.00  0.00    -0.021 A 
ATOM     21  C   UNL     1       1.257  -9.623   1.854  0.00  0.00    +0.087 A 
ATOM     22  N   UNL     1       0.763 -10.366   2.892  0.00  0.00    -0.360 N 
ATOM     23  H   UNL     1       0.822 -11.331   2.963  0.00  0.00    +0.165 HD
ATOM     24  C   UNL     1       0.171  -9.538   3.819  0.00  0.00    +0.047 A 
ATOM     25  C   UNL     1       0.305  -8.220   3.344  0.00  0.00    +0.003 A 
ATOM     26  C   UNL     1      -0.204  -7.156   4.091  0.00  0.00    +0.010 A 
ATOM     27  C   UNL     1      -0.828  -7.400   5.282  0.00  0.00    +0.001 A 
ATOM     28  C   UNL     1      -0.959  -8.697   5.756  0.00  0.00    +0.002 A 
ATOM     29  C   UNL     1      -0.472  -9.763   5.031  0.00  0.00    +0.026 A 
ENDBRANCH  19  20
ENDBRANCH  18  19
ENDBRANCH   3  18
BRANCH   3  30
ATOM     30  C   UNL     1       3.899  -5.729  -0.464  0.00  0.00    +0.142 C 
BRANCH  30  31
ATOM     31  C   UNL     1       5.362  -5.616  -0.123  0.00  0.00    -0.030 A 
ATOM     32  C   UNL     1       6.003  -4.395  -0.226  0.00  0.00    +0.005 A 
ATOM     33  C   UNL     1       7.346  -4.291   0.087  0.00  0.00    +0.004 A 
ATOM     34  C   UNL     1       8.047  -5.407   0.503  0.00  0.00    -0.042 A 
ATOM     35  C   UNL     1       7.406  -6.627   0.607  0.00  0.00    +0.004 A 
ATOM     36  C   UNL     1       6.063  -6.731   0.298  0.00  0.00    +0.005 A 
BRANCH  34  37
ATOM     37  C   UNL     1       9.511  -5.293   0.844  0.00  0.00    -0.013 C 
ATOM     38  C   UNL     1       9.692  -4.294   1.988  0.00  0.00    +0.015 C 
ATOM     39  C   UNL     1      10.042  -6.662   1.272  0.00  0.00    +0.015 C 
ATOM     40  C   UNL     1      10.284  -4.808  -0.384  0.00  0.00    +0.015 C 
ENDBRANCH  34  37
ENDBRANCH  30  31
ENDBRANCH   3  30
TORSDOF 16
