REMARK  Name = ZINC09806060
REMARK  10 active torsions:
REMARK  status: ('A' for Active; 'I' for Inactive)
REMARK    1  A    between atoms: C_4  and  S_7
REMARK    2  A    between atoms: S_7  and  N_10
REMARK    3  A    between atoms: C_14  and  C_16
REMARK    4  A    between atoms: C_16  and  N_17
REMARK    5  A    between atoms: C_18  and  C_20
REMARK    6  A    between atoms: N_22  and  C_23
REMARK    7  A    between atoms: C_23  and  C_24
REMARK    8  A    between atoms: C_24  and  C_25
REMARK    9  A    between atoms: C_28  and  S_31
REMARK   10  A    between atoms: S_31  and  N_34
REMARK                            x       y       z     vdW  Elec       q    Type
REMARK                         _______ _______ _______ _____ _____    ______ ____
ROOT
ATOM      1  N   UNL     1      -6.302   3.685   4.088  0.00  0.00    -0.306 N 
ATOM      2  C   UNL     1      -5.741   3.227   2.952  0.00  0.00    +0.299 C 
ATOM      3  O   UNL     1      -6.099   3.665   1.879  0.00  0.00    -0.265 OA
ATOM      4  H   UNL     1      -5.972   3.382   4.949  0.00  0.00    +0.149 HD
ENDROOT
BRANCH   2   5
ATOM      5  C   UNL     1      -4.678   2.178   3.013  0.00  0.00    +0.299 C 
ATOM      6  O   UNL     1      -4.252   1.808   4.088  0.00  0.00    -0.265 OA
ATOM      7  N   UNL     1      -4.193   1.642   1.876  0.00  0.00    -0.307 N 
ATOM      8  H   UNL     1      -4.534   1.937   1.017  0.00  0.00    +0.149 HD
BRANCH   7   9
ATOM      9  C   UNL     1      -3.151   0.614   1.936  0.00  0.00    +0.109 C 
BRANCH   9  10
ATOM     10  C   UNL     1      -2.782   0.178   0.517  0.00  0.00    +0.054 C 
BRANCH  10  11
ATOM     11  C   UNL     1      -1.710  -0.879   0.579  0.00  0.00    -0.046 A 
ATOM     12  C   UNL     1      -0.377  -0.514   0.560  0.00  0.00    +0.005 A 
ATOM     13  C   UNL     1       0.606  -1.485   0.610  0.00  0.00    +0.029 A 
ATOM     14  C   UNL     1       0.256  -2.820   0.680  0.00  0.00    +0.105 A 
ATOM     15  C   UNL     1      -1.077  -3.185   0.700  0.00  0.00    +0.029 A 
ATOM     16  C   UNL     1      -2.060  -2.215   0.649  0.00  0.00    +0.005 A 
BRANCH  14  17
ATOM     17  S   UNL     1       1.509  -4.057   0.744  0.00  0.00    +0.056 S 
ATOM     18  O   UNL     1       2.674  -3.429   1.262  0.00  0.00    -0.153 OA
ATOM     19  O   UNL     1       0.923  -5.198   1.355  0.00  0.00    -0.153 OA
BRANCH  17  20
ATOM     20  N   UNL     1       1.857  -4.483  -0.818  0.00  0.00    -0.204 NA
ATOM     21  H   UNL     1       1.388  -4.058  -1.552  0.00  0.00    +0.144 HD
ATOM     22  H   UNL     1       2.530  -5.159  -0.998  0.00  0.00    +0.144 HD
ENDBRANCH  17  20
ENDBRANCH  14  17
ENDBRANCH  10  11
ENDBRANCH   9  10
ENDBRANCH   7   9
ENDBRANCH   2   5
BRANCH   1  23
ATOM     23  C   UNL     1      -7.410   4.642   4.024  0.00  0.00    +0.125 C 
BRANCH  23  28
ATOM     24  N   UNL     1      -8.828   6.117   5.382  0.00  0.00    -0.172 NA
ATOM     25  C   UNL     1     -10.034   5.614   6.065  0.00  0.00    +0.110 C 
ATOM     26  C   UNL     1      -9.512   4.537   7.049  0.00  0.00    +0.019 C 
ATOM     27  C   UNL     1      -8.367   3.886   6.224  0.00  0.00    +0.023 C 
ATOM     28  C   UNL     1      -7.786   5.081   5.441  0.00  0.00    +0.097 C 
BRANCH  24  29
ATOM     29  S   UNL     1      -8.673   7.603   4.668  0.00  0.00    +0.061 S 
ATOM     30  O   UNL     1      -9.551   8.480   5.361  0.00  0.00    -0.153 OA
ATOM     31  O   UNL     1      -7.279   7.855   4.553  0.00  0.00    -0.153 OA
BRANCH  29  35
ATOM     32  C   UNL     1     -10.274   7.236   0.450  0.00  0.00    +0.000 A 
ATOM     33  C   UNL     1     -11.142   7.469   1.501  0.00  0.00    +0.002 A 
ATOM     34  C   UNL     1     -10.653   7.582   2.789  0.00  0.00    +0.028 A 
ATOM     35  C   UNL     1      -9.296   7.460   3.026  0.00  0.00    +0.105 A 
ATOM     36  C   UNL     1      -8.428   7.231   1.975  0.00  0.00    +0.028 A 
ATOM     37  C   UNL     1      -8.918   7.115   0.688  0.00  0.00    +0.002 A 
ENDBRANCH  29  35
ENDBRANCH  24  29
ENDBRANCH  23  28
ENDBRANCH   1  23
TORSDOF 10
