REMARK  Name = ZINC14697641
REMARK  9 active torsions:
REMARK  status: ('A' for Active; 'I' for Inactive)
REMARK    1  A    between atoms: C_1  and  C_2
REMARK    2  A    between atoms: C_6  and  C_7
REMARK    3  A    between atoms: N_9  and  C_10
REMARK    4  A    between atoms: N_9  and  C_18
REMARK    5  A    between atoms: C_10  and  C_11
REMARK    6  A    between atoms: C_11  and  C_12
REMARK    7  A    between atoms: C_19  and  N_34
REMARK    8  A    between atoms: N_20  and  C_27
REMARK    9  A    between atoms: C_27  and  C_28
REMARK                            x       y       z     vdW  Elec       q    Type
REMARK                         _______ _______ _______ _____ _____    ______ ____
ROOT
ATOM      1  C   UNL     1      -0.166  -0.650   4.900  0.00  0.00    +0.140 A 
ATOM      2  C   UNL     1       0.736   0.268   5.399  0.00  0.00    +0.128 A 
ATOM      3  N   UNL     1       0.630   0.669   6.710  0.00  0.00    -0.276 N 
ATOM      4  C   UNL     1      -0.334   0.164   7.501  0.00  0.00    +0.331 A 
ATOM      5  O   UNL     1      -0.408   0.528   8.659  0.00  0.00    -0.246 OA
ATOM      6  N   UNL     1      -1.218  -0.735   7.034  0.00  0.00    -0.273 N 
ATOM      7  H   UNL     1      -1.926  -1.095   7.643  0.00  0.00    +0.173 HD
ATOM      8  C   UNL     1      -1.162  -1.157   5.756  0.00  0.00    +0.277 A 
ATOM      9  O   UNL     1      -1.969  -1.973   5.343  0.00  0.00    -0.266 OA
ENDROOT
BRANCH   1  12
ATOM     10  C   UNL     1      -0.197  -0.179   2.558  0.00  0.00    +0.258 C 
ATOM     11  O   UNL     1      -0.265   1.010   2.812  0.00  0.00    -0.269 OA
ATOM     12  N   UNL     1      -0.088  -1.076   3.558  0.00  0.00    -0.259 N 
BRANCH  10  18
ATOM     13  C   UNL     1      -0.730   1.581   0.063  0.00  0.00    +0.045 C 
ATOM     14  C   UNL     1      -0.463   0.099   0.012  0.00  0.00    -0.031 A 
ATOM     15  C   UNL     1      -0.444  -0.586  -1.178  0.00  0.00    +0.011 A 
ATOM     16  C   UNL     1      -0.195  -1.921  -1.172  0.00  0.00    +0.046 A 
ATOM     17  S   UNL     1       0.013  -2.277   0.512  0.00  0.00    -0.092 S 
ATOM     18  C   UNL     1      -0.232  -0.634   1.165  0.00  0.00    +0.077 A 
ENDBRANCH  10  18
BRANCH  12  19
ATOM     19  C   UNL     1       0.111  -2.495   3.251  0.00  0.00    +0.118 C 
BRANCH  19  20
ATOM     20  C   UNL     1       1.600  -2.763   3.023  0.00  0.00    +0.050 C 
BRANCH  20  21
ATOM     21  C   UNL     1       1.806  -4.222   2.707  0.00  0.00    -0.072 C 
ATOM     22  C   UNL     1       1.857  -4.572   1.462  0.00  0.00    -0.028 C 
ATOM     23  C   UNL     1       2.046  -5.985   0.993  0.00  0.00    +0.027 C 
ATOM     24  C   UNL     1       2.583  -6.852   2.134  0.00  0.00    +0.004 C 
ATOM     25  C   UNL     1       1.713  -6.614   3.375  0.00  0.00    +0.005 C 
ATOM     26  C   UNL     1       1.944  -5.178   3.856  0.00  0.00    +0.030 C 
ENDBRANCH  20  21
ENDBRANCH  19  20
ENDBRANCH  12  19
ENDBRANCH   1  12
BRANCH   2  27
ATOM     27  N   UNL     1       1.724   0.780   4.592  0.00  0.00    -0.343 N 
ATOM     28  H   UNL     1       1.762   0.533   3.655  0.00  0.00    +0.144 HD
ATOM     29  H   UNL     1       2.385   1.387   4.961  0.00  0.00    +0.144 HD
ENDBRANCH   2  27
BRANCH   3  30
ATOM     30  C   UNL     1       1.578   1.646   7.252  0.00  0.00    +0.163 C 
BRANCH  30  31
ATOM     31  C   UNL     1       2.772   0.926   7.823  0.00  0.00    -0.028 A 
ATOM     32  C   UNL     1       2.776   0.540   9.150  0.00  0.00    +0.005 A 
ATOM     33  C   UNL     1       3.869  -0.125   9.673  0.00  0.00    +0.000 A 
ATOM     34  C   UNL     1       4.962  -0.396   8.871  0.00  0.00    +0.000 A 
ATOM     35  C   UNL     1       4.960  -0.005   7.545  0.00  0.00    +0.000 A 
ATOM     36  C   UNL     1       3.865   0.655   7.021  0.00  0.00    +0.005 A 
ENDBRANCH  30  31
ENDBRANCH   3  30
TORSDOF 8
