REMARK  Name = ZINC15402223
REMARK  14 active torsions:
REMARK  status: ('A' for Active; 'I' for Inactive)
REMARK    1  A    between atoms: C_1  and  C_2
REMARK    2  A    between atoms: C_2  and  C_3
REMARK    3  A    between atoms: C_3  and  C_4
REMARK    4  A    between atoms: C_4  and  N_5
REMARK    5  A    between atoms: C_6  and  N_31
REMARK    6  A    between atoms: C_7  and  N_14
REMARK    7  A    between atoms: N_14  and  C_15
REMARK    8  A    between atoms: C_15  and  C_16
REMARK    9  A    between atoms: C_17  and  C_19
REMARK   10  A    between atoms: C_19  and  N_63
REMARK   11  A    between atoms: C_23  and  C_26
REMARK   12  A    between atoms: C_26  and  O_28
REMARK   13  A    between atoms: O_28  and  C_29
REMARK   14  A    between atoms: C_29  and  C_30
REMARK                            x       y       z     vdW  Elec       q    Type
REMARK                         _______ _______ _______ _____ _____    ______ ____
ROOT
ATOM      1  N   UNL     1      -0.692   1.513   1.246  0.00  0.00    -0.266 N 
ATOM      2  C   UNL     1      -1.531   0.795   2.021  0.00  0.00    +0.203 C 
ATOM      3  O   UNL     1      -1.887   1.232   3.096  0.00  0.00    -0.277 OA
ENDROOT
BRANCH   1   6
ATOM      4  N   UNL     1      -0.390   4.961   2.478  0.00  0.00    -0.280 N 
ATOM      5  C   UNL     1      -0.955   3.799   2.008  0.00  0.00    +0.127 A 
ATOM      6  C   UNL     1      -0.142   2.719   1.729  0.00  0.00    +0.140 A 
ATOM      7  C   UNL     1       1.244   2.840   1.941  0.00  0.00    +0.277 A 
ATOM      8  O   UNL     1       1.985   1.899   1.708  0.00  0.00    -0.266 OA
ATOM      9  N   UNL     1       1.748   4.002   2.399  0.00  0.00    -0.273 N 
ATOM     10  H   UNL     1       2.733   4.092   2.542  0.00  0.00    +0.173 HD
ATOM     11  C   UNL     1       0.940   5.044   2.665  0.00  0.00    +0.331 A 
ATOM     12  O   UNL     1       1.420   6.080   3.083  0.00  0.00    -0.246 OA
BRANCH   5  13
ATOM     13  N   UNL     1      -2.313   3.714   1.817  0.00  0.00    -0.343 N 
ATOM     14  H   UNL     1      -2.697   2.924   1.403  0.00  0.00    +0.144 HD
ATOM     15  H   UNL     1      -2.889   4.443   2.095  0.00  0.00    +0.144 HD
ENDBRANCH   5  13
BRANCH   4  16
ATOM     16  C   UNL     1      -1.241   6.115   2.778  0.00  0.00    +0.128 C 
BRANCH  16  17
ATOM     17  C   UNL     1      -1.698   6.046   4.237  0.00  0.00    +0.021 C 
BRANCH  17  19
ATOM     18  C   UNL     1      -3.043   7.183   6.008  0.00  0.00    +0.004 C 
ATOM     19  C   UNL     1      -2.587   7.252   4.550  0.00  0.00    -0.002 C 
ENDBRANCH  17  19
ENDBRANCH  16  17
ENDBRANCH   4  16
ENDBRANCH   1   6
BRANCH   1  20
ATOM     20  C   UNL     1      -0.351   1.040  -0.098  0.00  0.00    +0.110 C 
ATOM     21  C   UNL     1      -1.386   1.558  -1.099  0.00  0.00    +0.025 C 
ENDBRANCH   1  20
BRANCH   2  22
ATOM     22  C   UNL     1      -2.026  -0.549   1.552  0.00  0.00    +0.019 C 
BRANCH  22  28
ATOM     23  C   UNL     1      -4.145  -0.326   2.702  0.00  0.00    -0.078 C 
ATOM     24  C   UNL     1      -5.111  -1.030   3.658  0.00  0.00    -0.018 C 
ATOM     25  C   UNL     1      -4.438  -1.199   5.023  0.00  0.00    +0.011 C 
ATOM     26  C   UNL     1      -3.139  -1.991   4.848  0.00  0.00    +0.081 C 
ATOM     27  C   UNL     1      -2.231  -1.259   3.858  0.00  0.00    -0.064 C 
ATOM     28  N   UNL     1      -2.927  -1.150   2.558  0.00  0.00    +0.386 N 
ATOM     29  H   UNL     1      -3.196  -2.090   2.245  0.00  0.00    -0.081 HD
BRANCH  26  30
ATOM     30  C   UNL     1      -2.440  -2.111   6.178  0.00  0.00    +0.308 C 
ATOM     31  O   UNL     1      -1.328  -1.661   6.319  0.00  0.00    -0.251 OA
BRANCH  30  32
ATOM     32  O   UNL     1      -3.054  -2.718   7.206  0.00  0.00    -0.465 OA
BRANCH  32  33
ATOM     33  C   UNL     1      -2.321  -2.798   8.457  0.00  0.00    +0.229 C 
ATOM     34  C   UNL     1      -3.174  -3.518   9.503  0.00  0.00    +0.048 C 
ENDBRANCH  32  33
ENDBRANCH  30  32
ENDBRANCH  26  30
ENDBRANCH  22  28
ENDBRANCH   2  22
TORSDOF 11
