REMARK  Name = ZINC63351579
REMARK  6 active torsions:
REMARK  status: ('A' for Active; 'I' for Inactive)
REMARK    1  A    between atoms: C_1  and  O_2
REMARK    2  A    between atoms: O_2  and  C_3
REMARK    3  A    between atoms: C_5  and  C_10
REMARK    4  A    between atoms: C_8  and  O_9
REMARK    5  A    between atoms: N_11  and  N_12
REMARK    6  A    between atoms: C_32  and  C_34
REMARK                            x       y       z     vdW  Elec       q    Type
REMARK                         _______ _______ _______ _____ _____    ______ ____
ROOT
ATOM      1  N   UNL     1      -7.396   0.069  -0.162  0.00  0.00    -0.183 N 
ATOM      2  C   UNL     1      -7.178   1.504  -0.091  0.00  0.00    +0.230 C 
ATOM      3  C   UNL     1      -8.458   2.266   0.004  0.00  0.00    +0.236 C 
ATOM      4  O   UNL     1      -8.390   3.475   0.071  0.00  0.00    -0.274 OA
ATOM      5  N   UNL     1      -9.675   1.709   0.022  0.00  0.00    -0.279 N 
ATOM      6  C   UNL     1      -9.884   0.268  -0.070  0.00  0.00    +0.169 C 
ATOM      7  C   UNL     1      -8.603  -0.494  -0.160  0.00  0.00    +0.256 C 
ATOM      8  O   UNL     1      -8.666  -1.703  -0.230  0.00  0.00    -0.272 OA
ATOM      9  C   UNL     1     -10.762  -0.058  -1.293  0.00  0.00    +0.065 C 
ATOM     10  C   UNL     1     -11.916   0.914  -1.265  0.00  0.00    -0.034 C 
ATOM     11  C   UNL     1     -13.227   0.725  -1.338  0.00  0.00    -0.001 A 
ATOM     12  C   UNL     1     -14.031  -0.483  -1.585  0.00  0.00    +0.010 A 
ATOM     13  C   UNL     1     -15.381  -0.318  -1.571  0.00  0.00    +0.001 A 
ATOM     14  C   UNL     1     -16.003   0.912  -1.339  0.00  0.00    +0.002 A 
ATOM     15  C   UNL     1     -15.342   2.075  -1.113  0.00  0.00    +0.026 A 
ATOM     16  C   UNL     1     -13.918   2.031  -1.111  0.00  0.00    +0.043 A 
ATOM     17  N   UNL     1     -13.047   2.983  -0.948  0.00  0.00    -0.375 N 
ATOM     18  C   UNL     1     -11.708   2.416  -1.109  0.00  0.00    +0.131 C 
ATOM     19  C   UNL     1     -10.845   2.609   0.141  0.00  0.00    +0.133 C 
ATOM     20  H   UNL     1     -13.250   3.911  -0.752  0.00  0.00    +0.160 HD
ENDROOT
BRANCH  19  21
ATOM     21  C   UNL     1     -11.639   2.255   1.371  0.00  0.00    -0.025 A 
ATOM     22  C   UNL     1     -12.162   0.983   1.513  0.00  0.00    +0.005 A 
ATOM     23  C   UNL     1     -12.891   0.658   2.642  0.00  0.00    +0.000 A 
ATOM     24  C   UNL     1     -13.097   1.604   3.628  0.00  0.00    +0.000 A 
ATOM     25  C   UNL     1     -12.574   2.875   3.486  0.00  0.00    +0.000 A 
ATOM     26  C   UNL     1     -11.841   3.199   2.360  0.00  0.00    +0.005 A 
ENDBRANCH  19  21
BRANCH   1  28
ATOM     27  C   UNL     1      -5.083  -0.257  -0.248  0.00  0.00    +0.138 C 
ATOM     28  N   UNL     1      -6.276  -0.768  -0.243  0.00  0.00    -0.184 NA
BRANCH  27  31
ATOM     29  C   UNL     1      -1.516  -1.419  -0.419  0.00  0.00    +0.162 A 
ATOM     30  C   UNL     1      -2.619  -0.589  -0.339  0.00  0.00    +0.058 A 
ATOM     31  C   UNL     1      -3.904  -1.138  -0.334  0.00  0.00    -0.002 A 
ATOM     32  C   UNL     1      -4.068  -2.523  -0.408  0.00  0.00    +0.013 A 
ATOM     33  C   UNL     1      -2.964  -3.345  -0.488  0.00  0.00    +0.050 A 
ATOM     34  C   UNL     1      -1.688  -2.800  -0.499  0.00  0.00    +0.158 A 
BRANCH  29  36
ATOM     35  C   UNL     1      -0.162   0.534  -0.341  0.00  0.00    +0.277 C 
ATOM     36  O   UNL     1      -0.264  -0.889  -0.425  0.00  0.00    -0.491 OA
ENDBRANCH  29  36
BRANCH  34  37
ATOM     37  O   UNL     1      -0.604  -3.614  -0.583  0.00  0.00    -0.503 OA
ATOM     38  H   UNL     1      -0.262  -3.904   0.274  0.00  0.00    +0.292 HD
ENDBRANCH  34  37
ENDBRANCH  27  31
ENDBRANCH   1  28
TORSDOF 5
