REMARK  Name = ZINC19794045
REMARK  8 active torsions:
REMARK  status: ('A' for Active; 'I' for Inactive)
REMARK    1  A    between atoms: C_1  and  C_2
REMARK    2  A    between atoms: C_3  and  C_26
REMARK    3  A    between atoms: C_9  and  O_25
REMARK    4  A    between atoms: C_10  and  C_11
REMARK    5  A    between atoms: C_11  and  N_12
REMARK    6  A    between atoms: N_15  and  C_18
REMARK    7  A    between atoms: C_18  and  C_19
REMARK    8  A    between atoms: N_28  and  C_29
REMARK                            x       y       z     vdW  Elec       q    Type
REMARK                         _______ _______ _______ _____ _____    ______ ____
ROOT
ATOM      1  C   UNL     1      -0.843  -3.357   0.922  0.00  0.00    +0.087 C 
ATOM      2  C   UNL     1      -0.180  -2.086   0.456  0.00  0.00    +0.115 A 
ATOM      3  C   UNL     1       1.117  -1.981   0.059  0.00  0.00    +0.085 A 
ATOM      4  C   UNL     1       1.310  -0.562  -0.304  0.00  0.00    +0.037 A 
ATOM      5  C   UNL     1       0.070   0.053  -0.080  0.00  0.00    +0.136 A 
ATOM      6  O   UNL     1      -0.780  -0.893   0.371  0.00  0.00    -0.459 OA
ATOM      7  C   UNL     1      -0.071   1.412  -0.333  0.00  0.00    +0.050 A 
ATOM      8  C   UNL     1       1.001   2.142  -0.800  0.00  0.00    +0.049 A 
ATOM      9  C   UNL     1       2.231   1.532  -1.022  0.00  0.00    +0.119 A 
ATOM     10  C   UNL     1       2.388   0.180  -0.775  0.00  0.00    -0.011 A 
ENDROOT
BRANCH   3  11
ATOM     11  C   UNL     1       2.119  -3.056   0.003  0.00  0.00    +0.248 C 
ATOM     12  O   UNL     1       2.340  -3.627  -1.048  0.00  0.00    -0.270 OA
ATOM     13  N   UNL     1       2.791  -3.409   1.116  0.00  0.00    -0.308 N 
ATOM     14  H   UNL     1       2.535  -2.951   2.083  0.00  0.00    +0.149 HD
BRANCH  13  15
ATOM     15  C   UNL     1       3.864  -4.404   1.039  0.00  0.00    +0.073 C 
ATOM     16  C   UNL     1       3.256  -5.801   0.909  0.00  0.00    +0.022 C 
ATOM     17  C   UNL     1       4.376  -6.840   0.829  0.00  0.00    +0.002 C 
ATOM     18  C   UNL     1       5.228  -6.771   2.098  0.00  0.00    +0.000 C 
ATOM     19  C   UNL     1       5.836  -5.373   2.228  0.00  0.00    +0.002 C 
ATOM     20  C   UNL     1       4.716  -4.334   2.308  0.00  0.00    +0.022 C 
ENDBRANCH  13  15
ENDBRANCH   3  11
BRANCH   9  21
ATOM     21  O   UNL     1       3.279   2.264  -1.483  0.00  0.00    -0.507 OA
ATOM     22  H   UNL     1       4.252   1.782  -1.659  0.00  0.00    +0.292 HD
ENDBRANCH   9  21
BRANCH  10  23
ATOM     23  C   UNL     1       3.719  -0.485  -1.015  0.00  0.00    -0.038 C 
BRANCH  23  24
ATOM     24  N   UNL     1       4.537  -0.396   0.202  0.00  0.00    +0.384 N 
ATOM     25  C   UNL     1       4.821   1.005   0.545  0.00  0.00    -0.063 C 
ATOM     26  C   UNL     1       5.605   1.058   1.858  0.00  0.00    +0.066 C 
ATOM     27  N   UNL     1       6.851   0.292   1.712  0.00  0.00    -0.302 NA
ATOM     28  C   UNL     1       6.568  -1.109   1.370  0.00  0.00    +0.066 C 
ATOM     29  C   UNL     1       5.783  -1.161   0.057  0.00  0.00    -0.063 C 
ATOM     30  H   UNL     1       3.962  -0.838   1.028  0.00  0.00    -0.081 HD
BRANCH  27  31
ATOM     31  C   UNL     1       7.669   0.382   2.929  0.00  0.00    +0.119 C 
BRANCH  31  32
ATOM     32  C   UNL     1       7.733   1.816   3.387  0.00  0.00    -0.033 A 
ATOM     33  C   UNL     1       8.744   2.642   2.932  0.00  0.00    +0.005 A 
ATOM     34  C   UNL     1       8.800   3.959   3.348  0.00  0.00    +0.000 A 
ATOM     35  C   UNL     1       7.852   4.447   4.227  0.00  0.00    +0.000 A 
ATOM     36  C   UNL     1       6.845   3.620   4.687  0.00  0.00    +0.000 A 
ATOM     37  C   UNL     1       6.785   2.304   4.266  0.00  0.00    +0.005 A 
ENDBRANCH  31  32
ENDBRANCH  27  31
ENDBRANCH  23  24
ENDBRANCH  10  23
TORSDOF 7
