REMARK  Name = ZINC39921041
REMARK  6 active torsions:
REMARK  status: ('A' for Active; 'I' for Inactive)
REMARK    1  A    between atoms: C_1  and  C_2
REMARK    2  A    between atoms: C_2  and  N_3
REMARK    3  A    between atoms: C_14  and  C_25
REMARK    4  A    between atoms: C_15  and  N_17
REMARK    5  A    between atoms: N_17  and  C_18
REMARK    6  A    between atoms: C_23  and  C_24
REMARK                            x       y       z     vdW  Elec       q    Type
REMARK                         _______ _______ _______ _____ _____    ______ ____
ROOT
ATOM      1  N   UNL     1       0.932   0.577  -1.616  0.00  0.00    -0.308 N 
ATOM      2  C   UNL     1       0.280   0.531  -2.834  0.00  0.00    +0.056 A 
ATOM      3  C   UNL     1      -0.995   1.075  -2.963  0.00  0.00    +0.026 A 
ATOM      4  C   UNL     1      -1.646   1.029  -4.177  0.00  0.00    +0.002 A 
ATOM      5  C   UNL     1      -1.043   0.444  -5.281  0.00  0.00    +0.001 A 
ATOM      6  C   UNL     1       0.217  -0.101  -5.178  0.00  0.00    +0.013 A 
ATOM      7  C   UNL     1       0.890  -0.063  -3.953  0.00  0.00    +0.042 A 
ATOM      8  C   UNL     1       2.234  -0.637  -3.819  0.00  0.00    +0.152 A 
ATOM      9  C   UNL     1       2.855  -0.570  -2.575  0.00  0.00    +0.095 A 
ATOM     10  C   UNL     1       2.167   0.065  -1.457  0.00  0.00    +0.263 A 
ATOM     11  O   UNL     1       2.713   0.129  -0.370  0.00  0.00    -0.267 OA
ATOM     12  C   UNL     1       4.164  -1.216  -2.749  0.00  0.00    +0.057 A 
ATOM     13  C   UNL     1       4.212  -1.607  -4.058  0.00  0.00    +0.200 A 
ATOM     14  O   UNL     1       3.067  -1.257  -4.669  0.00  0.00    -0.440 OA
ENDROOT
BRANCH  12  15
ATOM     15  C   UNL     1       5.212  -1.403  -1.720  0.00  0.00    +0.006 A 
ATOM     16  C   UNL     1       5.226  -2.558  -0.937  0.00  0.00    +0.010 A 
ATOM     17  C   UNL     1       6.206  -2.727   0.020  0.00  0.00    +0.001 A 
ATOM     18  C   UNL     1       7.173  -1.754   0.205  0.00  0.00    +0.001 A 
ATOM     19  C   UNL     1       7.165  -0.607  -0.568  0.00  0.00    +0.020 A 
ATOM     20  C   UNL     1       6.193  -0.428  -1.533  0.00  0.00    +0.049 A 
ATOM     21 CL   UNL     1       6.189   1.009  -2.507  0.00  0.00    -0.083 Cl
ENDBRANCH  12  15
BRANCH   1  23
ATOM     22  C   UNL     1       0.608   2.694  -0.436  0.00  0.00    +0.027 C 
ATOM     23  C   UNL     1       0.266   1.203  -0.472  0.00  0.00    +0.122 C 
ENDBRANCH   1  23
BRANCH  13  24
ATOM     24  N   UNL     1       5.275  -2.261  -4.660  0.00  0.00    -0.285 N 
ATOM     25  H   UNL     1       6.106  -2.385  -4.175  0.00  0.00    +0.155 HD
BRANCH  24  26
ATOM     26  C   UNL     1       5.150  -2.742  -5.966  0.00  0.00    +0.036 A 
ATOM     27  C   UNL     1       3.912  -2.727  -6.597  0.00  0.00    +0.023 A 
ATOM     28  C   UNL     1       3.792  -3.203  -7.888  0.00  0.00    +0.002 A 
ATOM     29  C   UNL     1       4.902  -3.694  -8.552  0.00  0.00    +0.000 A 
ATOM     30  C   UNL     1       6.135  -3.710  -7.926  0.00  0.00    +0.005 A 
ATOM     31  C   UNL     1       6.263  -3.230  -6.638  0.00  0.00    -0.029 A 
ATOM     32  C   UNL     1       7.609  -3.241  -5.959  0.00  0.00    +0.045 C 
ENDBRANCH  24  26
ENDBRANCH  13  24
TORSDOF 4
