REMARK  Name = ZINC20477865
REMARK  7 active torsions:
REMARK  status: ('A' for Active; 'I' for Inactive)
REMARK    1  A    between atoms: C_1  and  C_2
REMARK    2  A    between atoms: C_5  and  N_9
REMARK    3  A    between atoms: C_7  and  C_8
REMARK    4  A    between atoms: C_18  and  C_20
REMARK    5  A    between atoms: C_20  and  S_21
REMARK    6  A    between atoms: S_21  and  C_22
REMARK    7  A    between atoms: C_25  and  C_27
REMARK                            x       y       z     vdW  Elec       q    Type
REMARK                         _______ _______ _______ _____ _____    ______ ____
ROOT
ATOM      1  N   UNL     1      -2.394   0.940  -0.089  0.00  0.00    -0.328 N 
ATOM      2  C   UNL     1      -1.385   1.635   0.538  0.00  0.00    +0.180 C 
ATOM      3  N   UNL     1      -1.333   2.933   0.445  0.00  0.00    -0.371 N 
ATOM      4  N   UNL     1      -0.429   0.957   1.267  0.00  0.00    -0.298 N 
ATOM      5  C   UNL     1       0.599   1.647   1.861  0.00  0.00    +0.212 A 
ATOM      6  N   UNL     1       1.535   0.967   2.577  0.00  0.00    -0.175 NA
ATOM      7  C   UNL     1       2.551   1.637   3.159  0.00  0.00    +0.275 A 
ATOM      8  O   UNL     1       3.402   1.043   3.800  0.00  0.00    -0.266 OA
ATOM      9  C   UNL     1       2.608   3.036   3.017  0.00  0.00    +0.094 A 
ATOM     10  C   UNL     1       1.638   3.664   2.292  0.00  0.00    +0.034 A 
ATOM     11  N   UNL     1       0.658   2.957   1.733  0.00  0.00    -0.328 N 
ATOM     12  H   UNL     1      -3.211   1.484  -0.585  0.00  0.00    +0.169 HD
ATOM     13  H   UNL     1      -0.527   3.489   0.947  0.00  0.00    +0.159 HD
ATOM     14  H   UNL     1      -0.491  -0.137   1.372  0.00  0.00    +0.172 HD
ATOM     15  H   UNL     1      -2.095   3.473  -0.136  0.00  0.00    +0.159 HD
ATOM     16  H   UNL     1      -0.111   3.488   1.154  0.00  0.00    +0.168 HD
ENDROOT
BRANCH   1  21
ATOM     17  C   UNL     1      -2.334  -4.733  -0.122  0.00  0.00    +0.044 C 
ATOM     18  C   UNL     1      -2.350  -3.226  -0.113  0.00  0.00    -0.047 A 
ATOM     19  C   UNL     1      -1.159  -2.523  -0.110  0.00  0.00    +0.005 A 
ATOM     20  C   UNL     1      -1.170  -1.142  -0.108  0.00  0.00    +0.026 A 
ATOM     21  C   UNL     1      -2.379  -0.459  -0.097  0.00  0.00    +0.042 A 
ATOM     22  C   UNL     1      -3.573  -1.167  -0.100  0.00  0.00    +0.029 A 
ATOM     23  C   UNL     1      -3.555  -2.549  -0.108  0.00  0.00    -0.046 A 
ATOM     24  C   UNL     1      -4.851  -3.318  -0.110  0.00  0.00    +0.044 C 
ENDBRANCH   1  21
BRANCH  10  25
ATOM     25  C   UNL     1       1.674   5.161   2.126  0.00  0.00    +0.129 C 
BRANCH  25  26
ATOM     26  S   UNL     1       2.226   5.568   0.451  0.00  0.00    -0.091 S 
BRANCH  26  27
ATOM     27  C   UNL     1       2.177   7.328   0.531  0.00  0.00    +0.159 A 
ATOM     28  N   UNL     1       1.834   8.127   1.533  0.00  0.00    -0.135 NA
ATOM     29  N   UNL     1       1.856   9.383   1.418  0.00  0.00    -0.146 NA
ATOM     30  C   UNL     1       2.220   9.980   0.301  0.00  0.00    +0.100 A 
ATOM     31  S   UNL     1       2.583   8.550  -0.713  0.00  0.00    -0.044 S 
ATOM     32  C   UNL     1       2.310  11.448  -0.027  0.00  0.00    +0.075 C 
ENDBRANCH  26  27
ENDBRANCH  25  26
ENDBRANCH  10  25
TORSDOF 4
