REMARK  Name = ZINC63991461
REMARK  10 active torsions:
REMARK  status: ('A' for Active; 'I' for Inactive)
REMARK    1  A    between atoms: C_1  and  C_2
REMARK    2  A    between atoms: C_2  and  O_3
REMARK    3  A    between atoms: O_3  and  C_4
REMARK    4  A    between atoms: C_7  and  S_10
REMARK    5  A    between atoms: S_10  and  N_13
REMARK    6  A    between atoms: N_13  and  C_14
REMARK    7  A    between atoms: C_19  and  C_20
REMARK    8  A    between atoms: N_22  and  C_23
REMARK    9  A    between atoms: C_23  and  C_24
REMARK   10  A    between atoms: C_24  and  C_25
REMARK                            x       y       z     vdW  Elec       q    Type
REMARK                         _______ _______ _______ _____ _____    ______ ____
ROOT
ATOM      1  C   UNL     1      -0.455  -6.283  -3.990  0.00  0.00    +0.060 A 
ATOM      2  C   UNL     1       0.591  -6.096  -4.884  0.00  0.00    +0.025 A 
ATOM      3  C   UNL     1       0.342  -5.593  -6.144  0.00  0.00    +0.002 A 
ATOM      4  C   UNL     1      -0.950  -5.270  -6.528  0.00  0.00    +0.001 A 
ATOM      5  C   UNL     1      -2.001  -5.449  -5.655  0.00  0.00    +0.015 A 
ATOM      6  C   UNL     1      -1.765  -5.963  -4.377  0.00  0.00    +0.059 A 
ENDROOT
BRANCH   6   7
ATOM      7  C   UNL     1      -2.886  -6.162  -3.440  0.00  0.00    +0.246 C 
ATOM      8  O   UNL     1      -2.676  -6.605  -2.327  0.00  0.00    -0.270 OA
ATOM      9  N   UNL     1      -4.143  -5.853  -3.816  0.00  0.00    -0.311 N 
ATOM     10  H   UNL     1      -4.310  -5.499  -4.704  0.00  0.00    +0.149 HD
BRANCH   9  11
ATOM     11  C   UNL     1      -5.256  -6.051  -2.885  0.00  0.00    +0.109 C 
BRANCH  11  12
ATOM     12  C   UNL     1      -6.564  -5.625  -3.555  0.00  0.00    +0.052 C 
BRANCH  12  13
ATOM     13  C   UNL     1      -7.709  -5.829  -2.597  0.00  0.00    -0.040 C 
ATOM     14  C   UNL     1      -8.256  -4.904  -1.776  0.00  0.00    -0.001 A 
ATOM     15  C   UNL     1      -7.959  -3.486  -1.536  0.00  0.00    +0.010 A 
ATOM     16  C   UNL     1      -8.697  -2.806  -0.630  0.00  0.00    +0.001 A 
ATOM     17  C   UNL     1      -9.735  -3.419   0.086  0.00  0.00    +0.002 A 
ATOM     18  C   UNL     1     -10.066  -4.717  -0.079  0.00  0.00    +0.026 A 
ATOM     19  C   UNL     1      -9.357  -5.528  -1.008  0.00  0.00    +0.043 A 
ATOM     20  N   UNL     1      -9.486  -6.789  -1.341  0.00  0.00    -0.380 N 
ATOM     21  C   UNL     1      -8.483  -7.107  -2.365  0.00  0.00    +0.144 C 
ATOM     22  H   UNL     1     -10.137  -7.408  -0.976  0.00  0.00    +0.160 HD
ENDBRANCH  12  13
ENDBRANCH  11  12
ENDBRANCH   9  11
ENDBRANCH   6   7
BRANCH   1  23
ATOM     23  N   UNL     1      -0.207  -6.790  -2.721  0.00  0.00    -0.216 N 
ATOM     24  H   UNL     1      -0.849  -7.384  -2.302  0.00  0.00    +0.174 HD
BRANCH  23  25
ATOM     25  S   UNL     1       1.185  -6.380  -1.923  0.00  0.00    +0.072 S 
ATOM     26  O   UNL     1       2.261  -6.682  -2.802  0.00  0.00    -0.150 OA
ATOM     27  O   UNL     1       1.087  -6.938  -0.620  0.00  0.00    -0.150 OA
BRANCH  25  31
ATOM     28  C   UNL     1       1.159  -1.881  -1.409  0.00  0.00    +0.121 A 
ATOM     29  C   UNL     1       0.597  -2.695  -0.436  0.00  0.00    +0.047 A 
ATOM     30  C   UNL     1       0.606  -4.067  -0.596  0.00  0.00    +0.032 A 
ATOM     31  C   UNL     1       1.175  -4.629  -1.723  0.00  0.00    +0.109 A 
ATOM     32  C   UNL     1       1.736  -3.820  -2.694  0.00  0.00    +0.032 A 
ATOM     33  C   UNL     1       1.724  -2.447  -2.542  0.00  0.00    +0.047 A 
BRANCH  28  34
ATOM     34  O   UNL     1       1.151  -0.531  -1.255  0.00  0.00    -0.492 OA
BRANCH  34  36
ATOM     35  C   UNL     1       0.637   1.510  -0.067  0.00  0.00    +0.048 C 
ATOM     36  C   UNL     1       0.552  -0.017  -0.063  0.00  0.00    +0.225 C 
ENDBRANCH  34  36
ENDBRANCH  28  34
ENDBRANCH  25  31
ENDBRANCH  23  25
ENDBRANCH   1  23
TORSDOF 9
