REMARK  Name = ZINC45293149
REMARK  10 active torsions:
REMARK  status: ('A' for Active; 'I' for Inactive)
REMARK    1  A    between atoms: C_1  and  C_2
REMARK    2  A    between atoms: C_9  and  C_11
REMARK    3  A    between atoms: N_13  and  N_14
REMARK    4  A    between atoms: C_15  and  C_17
REMARK    5  A    between atoms: C_19  and  S_24
REMARK    6  A    between atoms: S_24  and  N_27
REMARK    7  A    between atoms: N_27  and  C_28
REMARK    8  A    between atoms: N_27  and  C_29
REMARK    9  A    between atoms: C_29  and  C_30
REMARK   10  A    between atoms: C_29  and  C_31
REMARK                            x       y       z     vdW  Elec       q    Type
REMARK                         _______ _______ _______ _____ _____    ______ ____
ROOT
ATOM      1  N   UNL     1       1.980  -7.562   3.418  0.00  0.00    -0.230 N 
ATOM      2  C   UNL     1       2.067  -8.835   2.984  0.00  0.00    +0.262 C 
ATOM      3  O   UNL     1       1.904  -9.089   1.807  0.00  0.00    -0.269 OA
ATOM      4  H   UNL     1       2.110  -7.359   4.357  0.00  0.00    +0.173 HD
ENDROOT
BRANCH   2   5
ATOM      5  C   UNL     1       2.361  -9.922   3.941  0.00  0.00    +0.058 A 
ATOM      6  C   UNL     1       2.544  -9.635   5.295  0.00  0.00    +0.043 A 
ATOM      7  C   UNL     1       2.818 -10.654   6.183  0.00  0.00    +0.106 A 
ATOM      8  C   UNL     1       2.913 -11.960   5.734  0.00  0.00    +0.030 A 
ATOM      9  C   UNL     1       2.734 -12.253   4.395  0.00  0.00    +0.022 A 
ATOM     10  C   UNL     1       2.453 -11.243   3.495  0.00  0.00    +0.053 A 
ATOM     11 CL   UNL     1       2.222 -11.613   1.815  0.00  0.00    -0.083 Cl
BRANCH   7  12
ATOM     12  S   UNL     1       3.048 -10.293   7.892  0.00  0.00    +0.061 S 
ATOM     13  O   UNL     1       3.832 -11.349   8.428  0.00  0.00    -0.153 OA
ATOM     14  O   UNL     1       3.448  -8.932   7.969  0.00  0.00    -0.153 OA
BRANCH  12  15
ATOM     15  N   UNL     1       1.562 -10.391   8.617  0.00  0.00    -0.177 NA
ATOM     16  C   UNL     1       1.101 -11.665   9.172  0.00  0.00    +0.132 C 
BRANCH  15  17
ATOM     17  C   UNL     1       0.710  -9.203   8.704  0.00  0.00    +0.073 C 
ATOM     18  C   UNL     1      -0.609  -9.467   7.975  0.00  0.00    +0.025 C 
ATOM     19  C   UNL     1       0.426  -8.885  10.174  0.00  0.00    +0.025 C 
ENDBRANCH  15  17
ENDBRANCH  12  15
ENDBRANCH   7  12
ENDBRANCH   2   5
BRANCH   1  22
ATOM     20  C   UNL     1       1.613  -5.258   2.944  0.00  0.00    +0.267 C 
ATOM     21  O   UNL     1       1.776  -5.003   4.123  0.00  0.00    -0.268 OA
ATOM     22  N   UNL     1       1.700  -6.531   2.511  0.00  0.00    -0.230 N 
ATOM     23  H   UNL     1       1.570  -6.734   1.571  0.00  0.00    +0.173 HD
BRANCH  20  31
ATOM     24  C   UNL     1      -0.019   1.526   0.010  0.00  0.00    +0.008 C 
ATOM     25  C   UNL     1       0.002  -0.004   0.002  0.00  0.00    -0.009 C 
ATOM     26  C   UNL     1       0.716  -0.496  -1.260  0.00  0.00    +0.009 C 
ATOM     27  C   UNL     1       0.494  -2.009  -1.394  0.00  0.00    +0.043 C 
ATOM     28  C   UNL     1       0.790  -2.651  -0.071  0.00  0.00    -0.006 A 
ATOM     29  C   UNL     1       0.909  -2.022   1.133  0.00  0.00    -0.036 A 
ATOM     30  C   UNL     1       1.190  -2.823   2.230  0.00  0.00    +0.024 A 
ATOM     31  C   UNL     1       1.321  -4.179   1.995  0.00  0.00    +0.076 A 
ATOM     32  S   UNL     1       1.043  -4.273   0.236  0.00  0.00    -0.088 S 
ATOM     33  C   UNL     1       0.739  -0.509   1.243  0.00  0.00    +0.039 C 
ENDBRANCH  20  31
ENDBRANCH   1  22
TORSDOF 6
