REMARK  Name = ZINC09409917
REMARK  11 active torsions:
REMARK  status: ('A' for Active; 'I' for Inactive)
REMARK    1  A    between atoms: C_1  and  C_2
REMARK    2  A    between atoms: C_3  and  O_17
REMARK    3  A    between atoms: O_17  and  C_18
REMARK    4  A    between atoms: C_18  and  C_19
REMARK    5  A    between atoms: N_21  and  C_22
REMARK    6  A    between atoms: C_22  and  C_24
REMARK    7  A    between atoms: C_22  and  C_35
REMARK    8  A    between atoms: C_24  and  C_25
REMARK    9  A    between atoms: N_37  and  C_38
REMARK   10  A    between atoms: C_38  and  C_39
REMARK   11  A    between atoms: C_38  and  C_40
REMARK                            x       y       z     vdW  Elec       q    Type
REMARK                         _______ _______ _______ _____ _____    ______ ____
ROOT
ATOM      1  C   UNL     1       3.742   2.099   3.291  0.00  0.00    +0.251 C 
ATOM      2  O   UNL     1       3.914   1.155   4.033  0.00  0.00    -0.272 OA
ATOM      3  N   UNL     1       3.849   1.937   1.957  0.00  0.00    -0.301 N 
ATOM      4  H   UNL     1       3.712   2.692   1.364  0.00  0.00    +0.150 HD
ENDROOT
BRANCH   1   5
ATOM      5  C   UNL     1       3.408   3.454   3.860  0.00  0.00    +0.324 C 
BRANCH   5   6
ATOM      6  O   UNL     1       3.351   3.371   5.285  0.00  0.00    -0.482 OA
BRANCH   6   9
ATOM      7  C   UNL     1       3.236   3.216   8.093  0.00  0.00    +0.051 C 
ATOM      8  C   UNL     1       2.989   4.499   7.342  0.00  0.00    +0.034 A 
ATOM      9  C   UNL     1       3.059   4.514   5.959  0.00  0.00    +0.128 A 
ATOM     10  C   UNL     1       2.838   5.693   5.255  0.00  0.00    +0.047 A 
ATOM     11  C   UNL     1       2.537   6.854   5.932  0.00  0.00    +0.016 A 
ATOM     12  C   UNL     1       2.463   6.848   7.324  0.00  0.00    +0.026 A 
ATOM     13  C   UNL     1       2.691   5.663   8.038  0.00  0.00    +0.146 A 
ATOM     14  O   UNL     1       2.625   5.637   9.388  0.00  0.00    -0.421 OA
ATOM     15  C   UNL     1       2.342   6.723  10.125  0.00  0.00    +0.345 A 
ATOM     16  O   UNL     1       2.297   6.636  11.337  0.00  0.00    -0.245 OA
ATOM     17  C   UNL     1       2.087   8.015   9.474  0.00  0.00    +0.067 A 
ATOM     18  C   UNL     1       2.147   8.084   8.066  0.00  0.00    -0.000 A 
ATOM     19  C   UNL     1       1.911   9.291   7.420  0.00  0.00    +0.009 A 
ATOM     20  C   UNL     1       1.620  10.416   8.165  0.00  0.00    +0.001 A 
ATOM     21  C   UNL     1       1.560  10.351   9.549  0.00  0.00    +0.001 A 
ATOM     22  C   UNL     1       1.791   9.162  10.208  0.00  0.00    +0.015 A 
ENDBRANCH   6   9
ENDBRANCH   5   6
ENDBRANCH   1   5
BRANCH   3  23
ATOM     23  C   UNL     1       4.174   0.620   1.404  0.00  0.00    +0.163 C 
BRANCH  23  24
ATOM     24  C   UNL     1       5.669   0.430   1.402  0.00  0.00    +0.234 C 
ATOM     25  O   UNL     1       6.392   1.309   1.821  0.00  0.00    -0.274 OA
ATOM     26  N   UNL     1       6.202  -0.716   0.934  0.00  0.00    -0.311 N 
ATOM     27  H   UNL     1       5.624  -1.418   0.598  0.00  0.00    +0.149 HD
BRANCH  26  28
ATOM     28  C   UNL     1       7.656  -0.900   0.932  0.00  0.00    +0.067 C 
ATOM     29  C   UNL     1       8.106  -1.421   2.298  0.00  0.00    +0.027 C 
ATOM     30  C   UNL     1       8.040  -1.910  -0.151  0.00  0.00    +0.027 C 
ENDBRANCH  26  28
ENDBRANCH  23  24
BRANCH  23  31
ATOM     31  C   UNL     1       3.646   0.524  -0.029  0.00  0.00    +0.069 C 
BRANCH  31  32
ATOM     32  C   UNL     1       2.140   0.591  -0.015  0.00  0.00    -0.020 A 
ATOM     33  C   UNL     1       1.295  -0.452  -0.013  0.00  0.00    +0.087 A 
ATOM     34  N   UNL     1       0.002  -0.004   0.002  0.00  0.00    -0.360 N 
ATOM     35  H   UNL     1      -0.784  -0.572   0.006  0.00  0.00    +0.165 HD
ATOM     36  C   UNL     1      -0.017   1.373   0.010  0.00  0.00    +0.047 A 
ATOM     37  C   UNL     1       1.322   1.806  -0.001  0.00  0.00    +0.003 A 
ATOM     38  C   UNL     1       1.612   3.171   0.004  0.00  0.00    +0.010 A 
ATOM     39  C   UNL     1       0.593   4.082   0.019  0.00  0.00    +0.001 A 
ATOM     40  C   UNL     1      -0.729   3.659   0.029  0.00  0.00    +0.002 A 
ATOM     41  C   UNL     1      -1.038   2.317   0.029  0.00  0.00    +0.026 A 
ENDBRANCH  31  32
ENDBRANCH  23  31
ENDBRANCH   3  23
TORSDOF 8
