REMARK  Name = ZINC08793469
REMARK  10 active torsions:
REMARK  status: ('A' for Active; 'I' for Inactive)
REMARK    1  A    between atoms: C_1  and  C_2
REMARK    2  A    between atoms: C_6  and  N_9
REMARK    3  A    between atoms: C_7  and  C_8
REMARK    4  A    between atoms: C_10  and  C_25
REMARK    5  A    between atoms: C_13  and  S_14
REMARK    6  A    between atoms: S_14  and  C_15
REMARK    7  A    between atoms: C_15  and  C_16
REMARK    8  A    between atoms: C_19  and  N_22
REMARK    9  A    between atoms: C_25  and  N_26
REMARK   10  A    between atoms: C_27  and  C_29
REMARK                            x       y       z     vdW  Elec       q    Type
REMARK                         _______ _______ _______ _____ _____    ______ ____
ROOT
ATOM      1  N   UNL     1      -1.240   2.070   0.019  0.00  0.00    -0.273 N 
ATOM      2  C   UNL     1      -1.967   2.481  -1.067  0.00  0.00    +0.156 A 
ATOM      3  N   UNL     1      -3.034   3.078  -0.615  0.00  0.00    -0.132 NA
ATOM      4  N   UNL     1      -3.033   3.074   0.670  0.00  0.00    -0.122 NA
ATOM      5  C   UNL     1      -1.959   2.463   1.115  0.00  0.00    +0.196 A 
ENDROOT
BRANCH   1  11
ATOM      6  C   UNL     1       1.229  -2.184  -0.021  0.00  0.00    +0.044 C 
ATOM      7  C   UNL     1       1.208  -0.677  -0.013  0.00  0.00    -0.046 A 
ATOM      8  C   UNL     1       2.396   0.031  -0.020  0.00  0.00    +0.004 A 
ATOM      9  C   UNL     1       2.381   1.413  -0.013  0.00  0.00    +0.002 A 
ATOM     10  C   UNL     1       1.177   2.092   0.002  0.00  0.00    +0.026 A 
ATOM     11  C   UNL     1      -0.017   1.384   0.010  0.00  0.00    +0.053 A 
ATOM     12  C   UNL     1       0.002  -0.004   0.002  0.00  0.00    -0.024 A 
ATOM     13  C   UNL     1      -1.292  -0.776   0.010  0.00  0.00    +0.046 C 
ENDBRANCH   1  11
BRANCH   5  14
ATOM     14  S   UNL     1      -1.524   2.203   2.802  0.00  0.00    -0.081 S 
BRANCH  14  15
ATOM     15  C   UNL     1      -2.937   2.989   3.616  0.00  0.00    +0.112 C 
BRANCH  15  16
ATOM     16  C   UNL     1      -2.777   2.885   5.111  0.00  0.00    -0.037 A 
ATOM     17  C   UNL     1      -3.295   1.796   5.787  0.00  0.00    +0.007 A 
ATOM     18  C   UNL     1      -3.145   1.699   7.158  0.00  0.00    +0.033 A 
ATOM     19  C   UNL     1      -2.486   2.695   7.853  0.00  0.00    +0.126 A 
ATOM     20  C   UNL     1      -1.972   3.786   7.178  0.00  0.00    +0.033 A 
ATOM     21  C   UNL     1      -2.118   3.881   5.806  0.00  0.00    +0.007 A 
BRANCH  19  22
ATOM     22  N   UNL     1      -2.329   2.593   9.322  0.00  0.00    +0.056 N 
ATOM     23  O   UNL     1      -1.747   3.470   9.934  0.00  0.00    -0.126 OA
ATOM     24  O   UNL     1      -2.782   1.632   9.917  0.00  0.00    -0.126 OA
ENDBRANCH  19  22
ENDBRANCH  15  16
ENDBRANCH  14  15
ENDBRANCH   5  14
BRANCH   2  25
ATOM     25  C   UNL     1      -1.602   2.279  -2.515  0.00  0.00    +0.181 C 
BRANCH  25  26
ATOM     26  N   UNL     1      -2.160   1.010  -2.987  0.00  0.00    -0.308 N 
ATOM     27  C   UNL     1      -1.959   0.617  -4.260  0.00  0.00    +0.220 C 
ATOM     28  O   UNL     1      -1.317   1.316  -5.016  0.00  0.00    -0.275 OA
ATOM     29  H   UNL     1      -2.673   0.451  -2.382  0.00  0.00    +0.149 HD
BRANCH  27  30
ATOM     30  C   UNL     1      -2.533  -0.689  -4.746  0.00  0.00    +0.048 C 
ATOM     31  C   UNL     1      -1.963  -1.838  -3.911  0.00  0.00    +0.019 C 
ATOM     32  C   UNL     1      -2.546  -3.164  -4.404  0.00  0.00    -0.009 C 
ATOM     33  C   UNL     1      -2.175  -3.369  -5.875  0.00  0.00    +0.007 C 
ATOM     34  C   UNL     1      -2.744  -2.220  -6.709  0.00  0.00    -0.009 C 
ATOM     35  C   UNL     1      -2.162  -0.894  -6.216  0.00  0.00    +0.019 C 
ATOM     36  C   UNL     1      -4.268  -2.192  -6.566  0.00  0.00    +0.007 C 
ATOM     37  C   UNL     1      -4.638  -1.987  -5.096  0.00  0.00    -0.009 C 
ATOM     38  C   UNL     1      -4.069  -3.136  -4.262  0.00  0.00    +0.007 C 
ATOM     39  C   UNL     1      -4.056  -0.661  -4.603  0.00  0.00    +0.019 C 
ENDBRANCH  27  30
ENDBRANCH  25  26
ENDBRANCH   2  25
TORSDOF 8
