REMARK  Name = ZINC36547716
REMARK  12 active torsions:
REMARK  status: ('A' for Active; 'I' for Inactive)
REMARK    1  A    between atoms: C_1  and  C_2
REMARK    2  A    between atoms: C_5  and  S_8
REMARK    3  A    between atoms: S_8  and  C_11
REMARK    4  A    between atoms: C_11  and  N_12
REMARK    5  A    between atoms: C_13  and  C_15
REMARK    6  A    between atoms: C_15  and  C_17
REMARK    7  A    between atoms: C_15  and  N_26
REMARK    8  A    between atoms: C_17  and  C_19
REMARK    9  A    between atoms: C_17  and  C_20
REMARK   10  A    between atoms: N_26  and  C_27
REMARK   11  A    between atoms: C_34  and  C_36
REMARK   12  A    between atoms: C_36  and  O_37
REMARK                            x       y       z     vdW  Elec       q    Type
REMARK                         _______ _______ _______ _____ _____    ______ ____
ROOT
ATOM      1  C   UNL     1       3.727  -4.521   4.063  0.00  0.00    +0.174 C 
ENDROOT
BRANCH   1   3
ATOM      2  N   UNL     1       4.283  -3.788   1.767  0.00  0.00    -0.295 N 
ATOM      3  C   UNL     1       4.111  -4.806   2.634  0.00  0.00    +0.236 C 
ATOM      4  O   UNL     1       4.267  -5.950   2.265  0.00  0.00    -0.274 OA
ATOM      5  H   UNL     1       4.159  -2.873   2.063  0.00  0.00    +0.150 HD
BRANCH   2   6
ATOM      6  C   UNL     1       4.657  -4.065   0.378  0.00  0.00    +0.278 C 
BRANCH   6   7
ATOM      7  S   UNL     1       3.164  -4.119  -0.651  0.00  0.00    +0.013 S 
ATOM      8  O   UNL     1       2.171  -4.923  -0.030  0.00  0.00    -0.168 OA
ATOM      9  O   UNL     1       3.516  -4.324  -2.013  0.00  0.00    -0.168 OA
BRANCH   7  14
ATOM     10  C   UNL     1       0.945   1.489  -0.463  0.00  0.00    +0.044 C 
ATOM     11  C   UNL     1       1.500   0.088  -0.510  0.00  0.00    -0.050 A 
ATOM     12  C   UNL     1       2.407  -0.263  -1.492  0.00  0.00    +0.005 A 
ATOM     13  C   UNL     1       2.915  -1.548  -1.535  0.00  0.00    +0.027 A 
ATOM     14  C   UNL     1       2.517  -2.481  -0.595  0.00  0.00    +0.090 A 
ATOM     15  C   UNL     1       1.611  -2.129   0.387  0.00  0.00    +0.027 A 
ATOM     16  C   UNL     1       1.105  -0.843   0.433  0.00  0.00    +0.005 A 
ENDBRANCH   7  14
ENDBRANCH   6   7
ENDBRANCH   2   6
ENDBRANCH   1   3
BRANCH   1  17
ATOM     17  N   UNL     1       2.815  -5.564   4.540  0.00  0.00    -0.256 N 
ATOM     18  C   UNL     1       1.624  -5.225   5.075  0.00  0.00    +0.246 C 
ATOM     19  O   UNL     1       0.910  -6.080   5.555  0.00  0.00    -0.273 OA
BRANCH  17  20
ATOM     20  C   UNL     1       3.180  -6.911   4.442  0.00  0.00    +0.055 A 
ATOM     21  C   UNL     1       4.272  -7.390   5.153  0.00  0.00    +0.025 A 
ATOM     22  C   UNL     1       4.630  -8.720   5.053  0.00  0.00    +0.002 A 
ATOM     23  C   UNL     1       3.902  -9.576   4.247  0.00  0.00    +0.002 A 
ATOM     24  C   UNL     1       2.814  -9.103   3.537  0.00  0.00    +0.022 A 
ATOM     25  C   UNL     1       2.446  -7.774   3.637  0.00  0.00    +0.062 A 
ATOM     26 CL   UNL     1       1.075  -7.183   2.752  0.00  0.00    -0.082 Cl
ENDBRANCH  17  20
BRANCH  18  27
ATOM     27  C   UNL     1       1.181  -3.785   5.075  0.00  0.00    +0.252 C 
BRANCH  27  28
ATOM     28  O   UNL     1      -0.051  -3.666   5.790  0.00  0.00    -0.386 OA
ATOM     29  H   UNL     1      -0.396  -2.764   5.831  0.00  0.00    +0.210 HD
ENDBRANCH  27  28
ENDBRANCH  18  27
ENDBRANCH   1  17
BRANCH   1  30
ATOM     30  C   UNL     1       4.983  -4.503   4.936  0.00  0.00    +0.046 C 
ATOM     31  C   UNL     1       5.978  -3.485   4.377  0.00  0.00    +0.015 C 
BRANCH  30  32
ATOM     32  C   UNL     1       4.610  -4.121   6.345  0.00  0.00    -0.042 A 
ATOM     33  C   UNL     1       3.990  -2.911   6.592  0.00  0.00    +0.004 A 
ATOM     34  C   UNL     1       3.648  -2.560   7.885  0.00  0.00    +0.000 A 
ATOM     35  C   UNL     1       3.926  -3.419   8.931  0.00  0.00    +0.000 A 
ATOM     36  C   UNL     1       4.546  -4.630   8.684  0.00  0.00    +0.000 A 
ATOM     37  C   UNL     1       4.884  -4.983   7.391  0.00  0.00    +0.004 A 
ENDBRANCH  30  32
ENDBRANCH   1  30
TORSDOF 10
