REMARK  Name = ZINC39633379
REMARK  5 active torsions:
REMARK  status: ('A' for Active; 'I' for Inactive)
REMARK    1  A    between atoms: C_4  and  C_7
REMARK    2  A    between atoms: C_7  and  C_8
REMARK    3  A    between atoms: C_8  and  C_9
REMARK    4  A    between atoms: C_13  and  C_22
REMARK    5  A    between atoms: N_24  and  C_25
REMARK                            x       y       z     vdW  Elec       q    Type
REMARK                         _______ _______ _______ _____ _____    ______ ____
ROOT
ATOM      1  C   UNL     1       5.628  -1.741   1.347  0.00  0.00    +0.216 C 
ATOM      2  O   UNL     1       6.142  -2.087   0.305  0.00  0.00    -0.276 OA
ATOM      3  N   UNL     1       6.187  -2.089   2.523  0.00  0.00    -0.300 N 
ATOM      4  C   UNL     1       5.706  -1.769   3.888  0.00  0.00    +0.121 C 
ATOM      5  C   UNL     1       5.966  -3.055   4.705  0.00  0.00    +0.100 C 
ATOM      6  C   UNL     1       7.094  -3.778   3.950  0.00  0.00    -0.004 C 
ATOM      7  C   UNL     1       7.418  -2.885   2.743  0.00  0.00    +0.115 C 
ATOM      8  C   UNL     1       8.320  -3.924   4.845  0.00  0.00    -0.010 C 
ATOM      9  C   UNL     1       9.407  -4.697   4.093  0.00  0.00    -0.082 C 
ATOM     10  N   UNL     1       8.895  -6.019   3.712  0.00  0.00    +0.379 N 
ATOM     11  C   UNL     1       7.773  -5.870   2.777  0.00  0.00    -0.082 C 
ATOM     12  C   UNL     1       6.617  -5.147   3.474  0.00  0.00    -0.010 C 
ATOM     13  H   UNL     1       9.631  -6.549   3.270  0.00  0.00    -0.086 HD
ATOM     14  H   UNL     1       8.581  -6.507   4.537  0.00  0.00    -0.086 HD
ENDROOT
BRANCH   5  15
ATOM     15  C   UNL     1       6.406  -2.707   6.104  0.00  0.00    +0.218 C 
ATOM     16  O   UNL     1       7.035  -1.690   6.306  0.00  0.00    -0.275 OA
ATOM     17  N   UNL     1       6.101  -3.527   7.129  0.00  0.00    -0.312 N 
ATOM     18  H   UNL     1       5.598  -4.340   6.967  0.00  0.00    +0.149 HD
BRANCH  17  19
ATOM     19  C   UNL     1       6.529  -3.189   8.489  0.00  0.00    +0.073 C 
ATOM     20  C   UNL     1       7.996  -3.628   8.674  0.00  0.00    +0.022 C 
ATOM     21  C   UNL     1       8.585  -2.856   9.824  0.00  0.00    +0.002 C 
ATOM     22  C   UNL     1       8.487  -3.620  11.159  0.00  0.00    +0.000 C 
ATOM     23  C   UNL     1       7.131  -4.327  11.344  0.00  0.00    +0.000 C 
ATOM     24  C   UNL     1       5.972  -3.475  10.900  0.00  0.00    +0.002 C 
ATOM     25  C   UNL     1       5.633  -3.832   9.439  0.00  0.00    +0.022 C 
ENDBRANCH  17  19
ENDBRANCH   5  15
BRANCH   1  26
ATOM     26  C   UNL     1       4.363  -0.921   1.328  0.00  0.00    +0.100 C 
BRANCH  26  27
ATOM     27  C   UNL     1       3.943  -0.666  -0.121  0.00  0.00    +0.044 C 
BRANCH  27  31
ATOM     28  C   UNL     1       0.359   1.658  -0.178  0.00  0.00    +0.000 A 
ATOM     29  C   UNL     1       1.590   2.286  -0.180  0.00  0.00    +0.000 A 
ATOM     30  C   UNL     1       2.750   1.534  -0.161  0.00  0.00    +0.003 A 
ATOM     31  C   UNL     1       2.679   0.154  -0.140  0.00  0.00    -0.047 A 
ATOM     32  C   UNL     1       1.447  -0.475  -0.138  0.00  0.00    +0.003 A 
ATOM     33  C   UNL     1       0.287   0.277  -0.158  0.00  0.00    +0.000 A 
ENDBRANCH  27  31
ENDBRANCH  26  27
ENDBRANCH   1  26
TORSDOF 5
