REMARK  Name = ZINC59292946
REMARK  8 active torsions:
REMARK  status: ('A' for Active; 'I' for Inactive)
REMARK    1  A    between atoms: C_1  and  C_2
REMARK    2  A    between atoms: C_2  and  C_3
REMARK    3  A    between atoms: C_3  and  C_4
REMARK    4  A    between atoms: C_4  and  O_5
REMARK    5  A    between atoms: O_5  and  C_6
REMARK    6  A    between atoms: C_6  and  C_8
REMARK    7  A    between atoms: C_9  and  N_29
REMARK    8  A    between atoms: C_13  and  C_28
REMARK                            x       y       z     vdW  Elec       q    Type
REMARK                         _______ _______ _______ _____ _____    ______ ____
ROOT
ATOM      1  C   UNL     1       2.224  -4.386   3.652  0.00  0.00    +0.117 C 
ATOM      2  C   UNL     1       2.248  -5.731   3.836  0.00  0.00    +0.196 C 
ATOM      3  O   UNL     1       2.874  -6.294   4.883  0.00  0.00    -0.441 OA
ATOM      4  C   UNL     1       3.794  -5.595   5.577  0.00  0.00    +0.145 A 
ATOM      5  C   UNL     1       4.719  -6.263   6.411  0.00  0.00    +0.088 A 
ATOM      6  C   UNL     1       5.627  -5.550   7.102  0.00  0.00    +0.110 A 
ATOM      7  O   UNL     1       5.684  -4.215   7.027  0.00  0.00    -0.427 OA
ATOM      8  C   UNL     1       4.831  -3.541   6.241  0.00  0.00    +0.345 A 
ATOM      9  O   UNL     1       4.902  -2.325   6.176  0.00  0.00    -0.245 OA
ATOM     10  C   UNL     1       3.860  -4.219   5.495  0.00  0.00    +0.103 A 
ATOM     11  C   UNL     1       2.910  -3.461   4.616  0.00  0.00    +0.145 C 
ATOM     12  C   UNL     1       1.911  -2.710   5.441  0.00  0.00    -0.002 A 
ATOM     13  C   UNL     1       0.954  -3.143   6.333  0.00  0.00    +0.007 A 
ATOM     14  C   UNL     1       0.173  -2.168   6.944  0.00  0.00    +0.000 A 
ATOM     15  C   UNL     1       0.350  -0.828   6.666  0.00  0.00    +0.002 A 
ATOM     16  C   UNL     1       1.309  -0.385   5.769  0.00  0.00    +0.023 A 
ATOM     17  C   UNL     1       2.101  -1.354   5.150  0.00  0.00    +0.038 A 
ATOM     18  N   UNL     1       3.119  -1.198   4.226  0.00  0.00    -0.284 N 
ATOM     19  C   UNL     1       3.652  -2.381   3.857  0.00  0.00    +0.237 C 
ATOM     20  O   UNL     1       4.556  -2.548   3.065  0.00  0.00    -0.274 OA
ATOM     21  C   UNL     1       6.608  -6.275   7.986  0.00  0.00    +0.086 C 
ATOM     22  H   UNL     1       3.415  -0.340   3.885  0.00  0.00    +0.155 HD
ENDROOT
BRANCH   2  23
ATOM     23  N   UNL     1       1.615  -6.537   2.928  0.00  0.00    -0.329 N 
ATOM     24  H   UNL     1       1.223  -6.153   2.128  0.00  0.00    +0.145 HD
ATOM     25  H   UNL     1       1.557  -7.493   3.086  0.00  0.00    +0.145 HD
ENDBRANCH   2  23
BRANCH   1  26
ATOM     26  C   UNL     1       1.554  -3.852   2.541  0.00  0.00    +0.342 C 
ATOM     27  O   UNL     1       0.441  -3.374   2.673  0.00  0.00    -0.245 OA
BRANCH  26  28
ATOM     28  O   UNL     1       2.142  -3.869   1.325  0.00  0.00    -0.461 OA
BRANCH  28  29
ATOM     29  C   UNL     1       1.402  -3.308   0.239  0.00  0.00    +0.232 C 
BRANCH  29  30
ATOM     30  C   UNL     1       2.224  -3.416  -1.047  0.00  0.00    +0.041 C 
BRANCH  30  32
ATOM     31  C   UNL     1       2.253  -2.924  -3.497  0.00  0.00    +0.004 C 
ATOM     32  C   UNL     1       1.431  -2.816  -2.210  0.00  0.00    -0.000 C 
ENDBRANCH  30  32
ENDBRANCH  29  30
ENDBRANCH  28  29
ENDBRANCH  26  28
ENDBRANCH   1  26
TORSDOF 6
