REMARK  Name = ZINC63479916
REMARK  3 active torsions:
REMARK  status: ('A' for Active; 'I' for Inactive)
REMARK    1  A    between atoms: C_7  and  C_10
REMARK    2  A    between atoms: C_10  and  C_11
REMARK    3  A    between atoms: N_19  and  C_22
REMARK                            x       y       z     vdW  Elec       q    Type
REMARK                         _______ _______ _______ _____ _____    ______ ____
ROOT
ATOM      1  C   UNL     1       0.457  -3.653  -1.462  0.00  0.00    +0.072 C 
ATOM      2  C   UNL     1      -0.428  -4.896  -1.497  0.00  0.00    +0.107 C 
ATOM      3  C   UNL     1       0.623  -5.913  -0.916  0.00  0.00    +0.123 C 
ATOM      4  C   UNL     1      -0.211  -7.031  -0.548  0.00  0.00    +0.233 C 
ATOM      5  O   UNL     1       0.079  -8.208  -0.573  0.00  0.00    -0.274 OA
ATOM      6  N   UNL     1      -1.405  -6.470  -0.162  0.00  0.00    -0.210 N 
ATOM      7  C   UNL     1      -1.492  -5.125  -0.470  0.00  0.00    +0.232 C 
ATOM      8  O   UNL     1      -2.256  -4.304  -0.009  0.00  0.00    -0.274 OA
ATOM      9  C   UNL     1       1.893  -5.577  -1.553  0.00  0.00    +0.136 C 
ATOM     10  N   UNL     1       1.729  -4.177  -2.074  0.00  0.00    -0.295 NA
ATOM     11  C   UNL     1       3.086  -5.605  -0.630  0.00  0.00    +0.006 A 
ATOM     12  C   UNL     1       3.359  -4.989   0.571  0.00  0.00    +0.046 A 
ATOM     13  C   UNL     1       4.574  -5.209   1.200  0.00  0.00    +0.124 A 
ATOM     14  C   UNL     1       5.509  -6.048   0.617  0.00  0.00    +0.040 A 
ATOM     15  C   UNL     1       5.236  -6.666  -0.585  0.00  0.00    +0.026 A 
ATOM     16  C   UNL     1       4.016  -6.450  -1.223  0.00  0.00    +0.039 A 
ATOM     17  N   UNL     1       3.513  -6.952  -2.426  0.00  0.00    -0.283 N 
ATOM     18  C   UNL     1       2.279  -6.492  -2.692  0.00  0.00    +0.243 C 
ATOM     19  O   UNL     1       1.603  -6.760  -3.663  0.00  0.00    -0.273 OA
ATOM     20  F   UNL     1       4.846  -4.606   2.378  0.00  0.00    -0.205 F 
ATOM     21  H   UNL     1       1.672  -4.177  -3.081  0.00  0.00    +0.124 HD
ATOM     22  H   UNL     1       3.999  -7.563  -3.002  0.00  0.00    +0.155 HD
ENDROOT
BRANCH   6  23
ATOM     23  C   UNL     1      -2.434  -7.187   0.466  0.00  0.00    +0.044 A 
ATOM     24  C   UNL     1      -2.275  -8.539   0.736  0.00  0.00    +0.027 A 
ATOM     25  C   UNL     1      -3.290  -9.243   1.355  0.00  0.00    +0.040 A 
ATOM     26  C   UNL     1      -4.465  -8.600   1.706  0.00  0.00    +0.124 A 
ATOM     27  C   UNL     1      -4.625  -7.251   1.437  0.00  0.00    +0.040 A 
ATOM     28  C   UNL     1      -3.611  -6.543   0.824  0.00  0.00    +0.027 A 
ATOM     29  F   UNL     1      -5.457  -9.290   2.310  0.00  0.00    -0.205 F 
ENDBRANCH   6  23
BRANCH   1  30
ATOM     30  C   UNL     1       0.691  -3.186  -0.024  0.00  0.00    +0.052 C 
BRANCH  30  37
ATOM     31  C   UNL     1      -0.121   1.331   0.032  0.00  0.00    +0.001 A 
ATOM     32  C   UNL     1       1.044   2.111   0.019  0.00  0.00    +0.002 A 
ATOM     33  C   UNL     1       2.282   1.573  -0.007  0.00  0.00    +0.026 A 
ATOM     34  C   UNL     1       2.452   0.161  -0.023  0.00  0.00    +0.043 A 
ATOM     35  N   UNL     1       3.527  -0.588  -0.049  0.00  0.00    -0.380 N 
ATOM     36  C   UNL     1       3.116  -1.996  -0.055  0.00  0.00    +0.144 C 
ATOM     37  C   UNL     1       1.604  -1.987  -0.028  0.00  0.00    -0.040 C 
ATOM     38  C   UNL     1       1.238  -0.685  -0.009  0.00  0.00    -0.001 A 
ATOM     39  C   UNL     1      -0.071  -0.021   0.019  0.00  0.00    +0.010 A 
ATOM     40  H   UNL     1       4.442  -0.265  -0.062  0.00  0.00    +0.160 HD
ENDBRANCH  30  37
ENDBRANCH   1  30
TORSDOF 3
