REMARK  Name = ZINC39664735
REMARK  9 active torsions:
REMARK  status: ('A' for Active; 'I' for Inactive)
REMARK    1  A    between atoms: C_1  and  C_2
REMARK    2  A    between atoms: C_4  and  C_9
REMARK    3  A    between atoms: C_13  and  C_22
REMARK    4  A    between atoms: N_24  and  C_25
REMARK    5  A    between atoms: C_25  and  C_27
REMARK    6  A    between atoms: C_25  and  C_31
REMARK    7  A    between atoms: C_27  and  N_28
REMARK    8  A    between atoms: N_28  and  C_29
REMARK    9  A    between atoms: N_28  and  C_30
REMARK                            x       y       z     vdW  Elec       q    Type
REMARK                         _______ _______ _______ _____ _____    ______ ____
ROOT
ATOM      1  C   UNL     1      -0.561  -2.658  -2.067  0.00  0.00    +0.247 C 
ATOM      2  O   UNL     1      -0.678  -2.007  -3.087  0.00  0.00    -0.270 OA
ATOM      3  N   UNL     1      -0.293  -3.977  -2.135  0.00  0.00    -0.296 N 
ATOM      4  C   UNL     1      -0.242  -4.953  -1.021  0.00  0.00    +0.121 C 
ATOM      5  C   UNL     1      -0.891  -6.233  -1.593  0.00  0.00    +0.100 C 
ATOM      6  C   UNL     1      -0.716  -6.114  -3.117  0.00  0.00    -0.004 C 
ATOM      7  C   UNL     1       0.010  -4.781  -3.344  0.00  0.00    +0.115 C 
ATOM      8  C   UNL     1      -2.078  -6.090  -3.804  0.00  0.00    -0.010 C 
ATOM      9  C   UNL     1      -1.878  -6.029  -5.321  0.00  0.00    -0.082 C 
ATOM     10  N   UNL     1      -1.105  -7.197  -5.762  0.00  0.00    +0.379 N 
ATOM     11  C   UNL     1       0.236  -7.163  -5.168  0.00  0.00    -0.082 C 
ATOM     12  C   UNL     1       0.125  -7.272  -3.644  0.00  0.00    -0.010 C 
ATOM     13  H   UNL     1      -1.579  -8.040  -5.473  0.00  0.00    -0.086 HD
ATOM     14  H   UNL     1      -1.027  -7.187  -6.768  0.00  0.00    -0.086 HD
ENDROOT
BRANCH   1  18
ATOM     15  C   UNL     1      -2.308   1.106   0.703  0.00  0.00    +0.047 C 
ATOM     16  C   UNL     1      -1.552  -0.193   0.586  0.00  0.00    -0.015 A 
ATOM     17  C   UNL     1      -1.413  -0.800  -0.644  0.00  0.00    +0.019 A 
ATOM     18  C   UNL     1      -0.712  -2.002  -0.751  0.00  0.00    +0.037 A 
ATOM     19  C   UNL     1      -0.154  -2.584   0.390  0.00  0.00    +0.016 A 
ATOM     20  C   UNL     1      -0.298  -1.968   1.614  0.00  0.00    +0.039 A 
ATOM     21  C   UNL     1      -0.991  -0.771   1.714  0.00  0.00    +0.126 A 
ATOM     22  F   UNL     1      -1.125  -0.169   2.916  0.00  0.00    -0.205 F 
ENDBRANCH   1  18
BRANCH   5  23
ATOM     23  C   UNL     1      -0.181  -7.457  -1.075  0.00  0.00    +0.219 C 
ATOM     24  O   UNL     1       0.978  -7.384  -0.726  0.00  0.00    -0.275 OA
ATOM     25  N   UNL     1      -0.834  -8.634  -1.001  0.00  0.00    -0.310 N 
ATOM     26  H   UNL     1      -1.780  -8.678  -1.212  0.00  0.00    +0.149 HD
BRANCH  25  27
ATOM     27  C   UNL     1      -0.116  -9.847  -0.602  0.00  0.00    +0.087 C 
BRANCH  27  28
ATOM     28  C   UNL     1      -0.764 -11.048  -1.241  0.00  0.00    -0.029 A 
ATOM     29  C   UNL     1      -2.141 -11.123  -1.332  0.00  0.00    +0.005 A 
ATOM     30  C   UNL     1      -2.736 -12.225  -1.918  0.00  0.00    +0.000 A 
ATOM     31  C   UNL     1      -1.953 -13.251  -2.414  0.00  0.00    +0.000 A 
ATOM     32  C   UNL     1      -0.576 -13.175  -2.324  0.00  0.00    +0.000 A 
ATOM     33  C   UNL     1       0.019 -12.071  -1.742  0.00  0.00    +0.005 A 
ENDBRANCH  27  28
BRANCH  27  34
ATOM     34  C   UNL     1      -0.165  -9.991   0.920  0.00  0.00    -0.052 C 
BRANCH  34  35
ATOM     35  N   UNL     1       0.656 -11.138   1.330  0.00  0.00    +0.377 N 
ATOM     36  C   UNL     1       2.069 -10.856   1.046  0.00  0.00    -0.097 C 
ATOM     37  C   UNL     1       0.483 -11.375   2.770  0.00  0.00    -0.097 C 
ATOM     38  H   UNL     1       0.367 -11.958   0.818  0.00  0.00    -0.083 HD
ENDBRANCH  34  35
ENDBRANCH  27  34
ENDBRANCH  25  27
ENDBRANCH   5  23
TORSDOF 6
