REMARK  Name = ZINC32935680
REMARK  7 active torsions:
REMARK  status: ('A' for Active; 'I' for Inactive)
REMARK    1  A    between atoms: C_4  and  S_23
REMARK    2  A    between atoms: C_5  and  N_7
REMARK    3  A    between atoms: C_8  and  C_10
REMARK    4  A    between atoms: C_10  and  N_11
REMARK    5  A    between atoms: C_15  and  C_18
REMARK    6  A    between atoms: C_18  and  N_19
REMARK    7  A    between atoms: S_23  and  C_24
REMARK                            x       y       z     vdW  Elec       q    Type
REMARK                         _______ _______ _______ _____ _____    ______ ____
ROOT
ATOM      1  N   UNL     1      -8.502   0.450  -0.784  0.00  0.00    -0.286 N 
ATOM      2  C   UNL     1      -7.231   0.070  -0.542  0.00  0.00    +0.201 C 
ATOM      3  O   UNL     1      -6.951  -1.109  -0.487  0.00  0.00    -0.278 OA
ATOM      4  H   UNL     1      -8.775   1.515  -0.744  0.00  0.00    +0.155 HD
ENDROOT
BRANCH   1   9
ATOM      5  C   UNL     1     -10.062  -2.676  -1.939  0.00  0.00    +0.002 A 
ATOM      6  C   UNL     1     -11.398  -2.415  -1.690  0.00  0.00    +0.001 A 
ATOM      7  C   UNL     1     -11.779  -1.206  -1.141  0.00  0.00    +0.017 A 
ATOM      8  C   UNL     1     -10.821  -0.250  -0.833  0.00  0.00    +0.034 A 
ATOM      9  C   UNL     1      -9.474  -0.512  -1.089  0.00  0.00    +0.047 A 
ATOM     10  C   UNL     1      -9.101  -1.728  -1.639  0.00  0.00    +0.024 A 
BRANCH   8  11
ATOM     11  S   UNL     1     -11.303   1.290  -0.126  0.00  0.00    -0.088 S 
BRANCH  11  12
ATOM     12  C   UNL     1     -13.036   1.113   0.141  0.00  0.00    +0.013 A 
ATOM     13  C   UNL     1     -13.938   1.580  -0.808  0.00  0.00    +0.016 A 
ATOM     14  C   UNL     1     -15.295   1.435  -0.598  0.00  0.00    +0.021 A 
ATOM     15  C   UNL     1     -15.757   0.834   0.560  0.00  0.00    +0.041 A 
ATOM     16  C   UNL     1     -14.861   0.373   1.509  0.00  0.00    +0.021 A 
ATOM     17  C   UNL     1     -13.503   0.510   1.302  0.00  0.00    +0.016 A 
ATOM     18 CL   UNL     1     -17.464   0.659   0.823  0.00  0.00    -0.084 Cl
ENDBRANCH  11  12
ENDBRANCH   8  11
ENDBRANCH   1   9
BRANCH   2  19
ATOM     19  C   UNL     1      -6.160   1.110  -0.338  0.00  0.00    +0.019 C 
BRANCH  19  20
ATOM     20  N   UNL     1      -4.873   0.446  -0.092  0.00  0.00    +0.386 N 
ATOM     21  C   UNL     1      -4.896  -0.293   1.177  0.00  0.00    -0.078 C 
ATOM     22  C   UNL     1      -3.598  -1.087   1.330  0.00  0.00    -0.018 C 
ATOM     23  C   UNL     1      -2.409  -0.123   1.301  0.00  0.00    +0.001 C 
ATOM     24  C   UNL     1      -2.435   0.668  -0.009  0.00  0.00    -0.011 C 
ATOM     25  C   UNL     1      -3.768   1.412  -0.124  0.00  0.00    -0.073 C 
ATOM     26  H   UNL     1      -4.707  -0.281  -0.900  0.00  0.00    -0.081 HD
BRANCH  24  27
ATOM     27  C   UNL     1      -1.285   1.677  -0.021  0.00  0.00    +0.107 C 
BRANCH  27  28
ATOM     28  N   UNL     1      -0.007   0.960  -0.032  0.00  0.00    -0.299 N 
ATOM     29  C   UNL     1       1.152   1.648  -0.048  0.00  0.00    +0.297 C 
ATOM     30  O   UNL     1       1.137   2.864  -0.049  0.00  0.00    -0.253 OA
ATOM     31  N   UNL     1       2.327   0.989  -0.064  0.00  0.00    -0.313 N 
ATOM     32  H   UNL     1       0.007  -0.140  -0.026  0.00  0.00    +0.150 HD
ATOM     33  H   UNL     1       3.273   1.550  -0.078  0.00  0.00    +0.146 HD
ATOM     34  H   UNL     1       2.341  -0.111  -0.063  0.00  0.00    +0.146 HD
ENDBRANCH  27  28
ENDBRANCH  24  27
ENDBRANCH  19  20
ENDBRANCH   2  19
TORSDOF 7
