REMARK  Name = ZINC33405389
REMARK  13 active torsions:
REMARK  status: ('A' for Active; 'I' for Inactive)
REMARK    1  A    between atoms: C_1  and  C_2
REMARK    2  A    between atoms: C_2  and  C_3
REMARK    3  A    between atoms: C_3  and  C_4
REMARK    4  A    between atoms: C_4  and  C_5
REMARK    5  A    between atoms: C_5  and  C_6
REMARK    6  A    between atoms: N_8  and  N_9
REMARK    7  A    between atoms: C_10  and  C_24
REMARK    8  A    between atoms: N_14  and  C_17
REMARK    9  A    between atoms: C_24  and  C_25
REMARK   10  A    between atoms: N_27  and  C_28
REMARK   11  A    between atoms: C_31  and  O_34
REMARK   12  A    between atoms: O_34  and  C_35
REMARK   13  A    between atoms: C_35  and  C_36
REMARK                            x       y       z     vdW  Elec       q    Type
REMARK                         _______ _______ _______ _____ _____    ______ ____
ROOT
ATOM      1  N   UNL     1      -4.298  -6.376  -0.058  0.00  0.00    -0.219 N 
ATOM      2  C   UNL     1      -4.610  -7.163  -1.263  0.00  0.00    +0.191 C 
ATOM      3  C   UNL     1      -4.604  -8.595  -0.765  0.00  0.00    +0.248 C 
ATOM      4  O   UNL     1      -4.812  -9.597  -1.415  0.00  0.00    -0.273 OA
ATOM      5  N   UNL     1      -4.318  -8.522   0.550  0.00  0.00    -0.219 N 
ATOM      6  C   UNL     1      -4.140  -7.257   0.947  0.00  0.00    +0.164 C 
ATOM      7  S   UNL     1      -3.758  -6.809   2.554  0.00  0.00    -0.016 S 
ENDROOT
BRANCH   5   8
ATOM      8  C   UNL     1      -4.216  -9.635   1.396  0.00  0.00    +0.043 A 
ATOM      9  C   UNL     1      -4.998  -9.712   2.541  0.00  0.00    +0.025 A 
ATOM     10  C   UNL     1      -4.896 -10.810   3.373  0.00  0.00    +0.022 A 
ATOM     11  C   UNL     1      -4.015 -11.832   3.067  0.00  0.00    +0.041 A 
ATOM     12  C   UNL     1      -3.234 -11.757   1.927  0.00  0.00    +0.022 A 
ATOM     13  C   UNL     1      -3.337 -10.664   1.089  0.00  0.00    +0.025 A 
ATOM     14 CL   UNL     1      -3.888 -13.210   4.116  0.00  0.00    -0.084 Cl
ENDBRANCH   5   8
BRANCH   1  17
ATOM     15  C   UNL     1      -2.965  -4.412   0.120  0.00  0.00    +0.229 C 
ATOM     16  O   UNL     1      -1.970  -5.105   0.133  0.00  0.00    -0.274 OA
ATOM     17  N   UNL     1      -4.182  -4.982   0.025  0.00  0.00    -0.232 N 
ATOM     18  H   UNL     1      -4.978  -4.428   0.015  0.00  0.00    +0.173 HD
BRANCH  15  19
ATOM     19  C   UNL     1      -2.840  -2.913   0.209  0.00  0.00    +0.097 C 
BRANCH  19  20
ATOM     20  C   UNL     1      -1.362  -2.529   0.306  0.00  0.00    +0.009 C 
BRANCH  20  21
ATOM     21  C   UNL     1      -1.236  -1.007   0.397  0.00  0.00    +0.000 C 
BRANCH  21  23
ATOM     22  C   UNL     1       0.369   0.899   0.585  0.00  0.00    +0.004 C 
ATOM     23  C   UNL     1       0.242  -0.623   0.494  0.00  0.00    -0.003 C 
ENDBRANCH  21  23
ENDBRANCH  20  21
ENDBRANCH  19  20
ENDBRANCH  15  19
ENDBRANCH   1  17
BRANCH   2  24
ATOM     24  C   UNL     1      -5.989  -6.786  -1.810  0.00  0.00    +0.129 C 
BRANCH  24  25
ATOM     25  C   UNL     1      -5.968  -5.354  -2.280  0.00  0.00    +0.220 C 
ATOM     26  O   UNL     1      -4.951  -4.700  -2.186  0.00  0.00    -0.275 OA
ATOM     27  N   UNL     1      -7.080  -4.801  -2.804  0.00  0.00    -0.285 N 
ATOM     28  H   UNL     1      -7.914  -5.296  -2.805  0.00  0.00    +0.155 HD
BRANCH  27  29
ATOM     29  C   UNL     1      -7.031  -3.510  -3.346  0.00  0.00    +0.034 A 
ATOM     30  C   UNL     1      -8.123  -2.662  -3.222  0.00  0.00    +0.027 A 
ATOM     31  C   UNL     1      -8.074  -1.390  -3.757  0.00  0.00    +0.047 A 
ATOM     32  C   UNL     1      -6.934  -0.959  -4.418  0.00  0.00    +0.121 A 
ATOM     33  C   UNL     1      -5.841  -1.806  -4.543  0.00  0.00    +0.047 A 
ATOM     34  C   UNL     1      -5.887  -3.076  -4.003  0.00  0.00    +0.027 A 
BRANCH  32  35
ATOM     35  O   UNL     1      -6.886   0.293  -4.945  0.00  0.00    -0.492 OA
BRANCH  35  36
ATOM     36  C   UNL     1      -5.680   0.671  -5.613  0.00  0.00    +0.225 C 
ATOM     37  C   UNL     1      -5.813   2.103  -6.135  0.00  0.00    +0.048 C 
ENDBRANCH  35  36
ENDBRANCH  32  35
ENDBRANCH  27  29
ENDBRANCH  24  25
ENDBRANCH   2  24
TORSDOF 11
