REMARK  Name = ZINC27552175
REMARK  16 active torsions:
REMARK  status: ('A' for Active; 'I' for Inactive)
REMARK    1  A    between atoms: C_1  and  C_2
REMARK    2  A    between atoms: C_2  and  C_3
REMARK    3  A    between atoms: C_2  and  C_4
REMARK    4  A    between atoms: C_2  and  C_5
REMARK    5  A    between atoms: C_7  and  C_16
REMARK    6  A    between atoms: C_9  and  C_12
REMARK    7  A    between atoms: C_10  and  O_11
REMARK    8  A    between atoms: C_12  and  C_13
REMARK    9  A    between atoms: C_12  and  C_14
REMARK   10  A    between atoms: C_12  and  C_15
REMARK   11  A    between atoms: N_17  and  N_18
REMARK   12  A    between atoms: C_23  and  C_26
REMARK   13  A    between atoms: C_26  and  C_27
REMARK   14  A    between atoms: N_29  and  C_30
REMARK   15  A    between atoms: C_33  and  O_36
REMARK   16  A    between atoms: O_36  and  C_37
REMARK                            x       y       z     vdW  Elec       q    Type
REMARK                         _______ _______ _______ _____ _____    ______ ____
ROOT
ATOM      1  N   UNL     1       1.569  -4.381   3.627  0.00  0.00    -0.127 NA
ATOM      2  C   UNL     1       1.400  -3.783   2.467  0.00  0.00    +0.183 C 
ATOM      3  N   UNL     1       2.157  -3.916   1.322  0.00  0.00    -0.263 N 
ATOM      4  C   UNL     1       1.882  -3.254   0.211  0.00  0.00    +0.233 C 
ATOM      5  O   UNL     1       2.550  -3.375  -0.793  0.00  0.00    -0.274 OA
ATOM      6  C   UNL     1       0.675  -2.331   0.272  0.00  0.00    +0.149 C 
ATOM      7  S   UNL     1       0.137  -2.606   2.006  0.00  0.00    -0.075 S 
ATOM      8  H   UNL     1       3.025  -4.592   1.311  0.00  0.00    +0.157 HD
ENDROOT
BRANCH   1  10
ATOM      9  C   UNL     1       2.711  -5.804   4.940  0.00  0.00    +0.143 C 
ATOM     10  N   UNL     1       2.544  -5.211   3.789  0.00  0.00    -0.155 NA
BRANCH   9  13
ATOM     11  C   UNL     1       5.047  -8.273   6.524  0.00  0.00    +0.000 A 
ATOM     12  C   UNL     1       4.005  -7.388   6.356  0.00  0.00    +0.017 A 
ATOM     13  C   UNL     1       3.823  -6.751   5.124  0.00  0.00    -0.004 A 
ATOM     14  C   UNL     1       4.698  -7.021   4.067  0.00  0.00    +0.017 A 
ATOM     15  C   UNL     1       5.740  -7.904   4.247  0.00  0.00    +0.000 A 
ATOM     16  C   UNL     1       5.916  -8.533   5.472  0.00  0.00    +0.124 A 
BRANCH  11  18
ATOM     17  C   UNL     1       4.159  -8.503   8.828  0.00  0.00    +0.015 C 
ATOM     18  C   UNL     1       5.244  -8.961   7.850  0.00  0.00    -0.009 C 
ATOM     19  C   UNL     1       5.150 -10.476   7.658  0.00  0.00    +0.015 C 
ATOM     20  C   UNL     1       6.621  -8.602   8.411  0.00  0.00    +0.015 C 
ENDBRANCH  11  18
BRANCH  15  21
ATOM     21  C   UNL     1       6.687  -8.191   3.110  0.00  0.00    -0.009 C 
ATOM     22  C   UNL     1       6.274  -7.375   1.883  0.00  0.00    +0.015 C 
ATOM     23  C   UNL     1       8.110  -7.808   3.522  0.00  0.00    +0.015 C 
ATOM     24  C   UNL     1       6.638  -9.682   2.770  0.00  0.00    +0.015 C 
ENDBRANCH  15  21
BRANCH  16  25
ATOM     25  O   UNL     1       6.942  -9.407   5.643  0.00  0.00    -0.506 OA
ATOM     26  H   UNL     1       7.632  -9.615   4.811  0.00  0.00    +0.292 HD
ENDBRANCH  16  25
ENDBRANCH   9  13
ENDBRANCH   1  10
BRANCH   6  27
ATOM     27  C   UNL     1       1.080  -0.874   0.042  0.00  0.00    +0.120 C 
BRANCH  27  28
ATOM     28  C   UNL     1      -0.133   0.011   0.173  0.00  0.00    +0.219 C 
ATOM     29  O   UNL     1      -1.215  -0.476   0.426  0.00  0.00    -0.275 OA
ATOM     30  N   UNL     1      -0.016   1.344   0.009  0.00  0.00    -0.285 N 
ATOM     31  H   UNL     1       0.977   1.795  -0.132  0.00  0.00    +0.155 HD
BRANCH  30  32
ATOM     32  C   UNL     1      -1.159   2.154   0.019  0.00  0.00    +0.034 A 
ATOM     33  C   UNL     1      -2.358   1.669  -0.487  0.00  0.00    +0.027 A 
ATOM     34  C   UNL     1      -3.486   2.466  -0.472  0.00  0.00    +0.047 A 
ATOM     35  C   UNL     1      -3.418   3.754   0.037  0.00  0.00    +0.120 A 
ATOM     36  C   UNL     1      -2.220   4.241   0.537  0.00  0.00    +0.047 A 
ATOM     37  C   UNL     1      -1.093   3.443   0.528  0.00  0.00    +0.027 A 
BRANCH  35  38
ATOM     38  O   UNL     1      -4.528   4.540   0.046  0.00  0.00    -0.495 OA
ATOM     39  C   UNL     1      -5.728   3.974  -0.484  0.00  0.00    +0.277 C 
ENDBRANCH  35  38
ENDBRANCH  30  32
ENDBRANCH  27  28
ENDBRANCH   6  27
TORSDOF 9
