REMARK  Name = ZINC10724415
REMARK  8 active torsions:
REMARK  status: ('A' for Active; 'I' for Inactive)
REMARK    1  A    between atoms: C_1  and  C_2
REMARK    2  A    between atoms: C_15  and  C_17
REMARK    3  A    between atoms: C_17  and  O_18
REMARK    4  A    between atoms: O_18  and  C_19
REMARK    5  A    between atoms: C_19  and  C_21
REMARK    6  A    between atoms: C_21  and  C_23
REMARK    7  A    between atoms: C_21  and  N_29
REMARK    8  A    between atoms: C_30  and  C_32
REMARK                            x       y       z     vdW  Elec       q    Type
REMARK                         _______ _______ _______ _____ _____    ______ ____
ROOT
ATOM      1  C   UNL     1      -6.028   1.781  -0.560  0.00  0.00    +0.333 C 
ATOM      2  O   UNL     1      -5.777   2.899  -0.944  0.00  0.00    -0.248 OA
ENDROOT
BRANCH   1   3
ATOM      3  O   UNL     1      -7.278   1.302  -0.661  0.00  0.00    -0.454 OA
BRANCH   3   4
ATOM      4  C   UNL     1      -8.277   2.183  -1.240  0.00  0.00    +0.328 C 
BRANCH   4  18
ATOM      5  C   UNL     1     -12.273   0.951  -3.229  0.00  0.00    +0.029 C 
ATOM      6  C   UNL     1     -11.993   1.439  -1.807  0.00  0.00    +0.087 C 
ATOM      7  C   UNL     1     -13.091   2.415  -1.378  0.00  0.00    +0.118 C 
ATOM      8  C   UNL     1     -12.645   3.199  -0.172  0.00  0.00    +0.219 C 
ATOM      9  O   UNL     1     -13.096   2.930   0.921  0.00  0.00    -0.275 OA
ATOM     10  N   UNL     1     -11.747   4.201  -0.299  0.00  0.00    -0.284 N 
ATOM     11  C   UNL     1     -11.150   4.470  -1.537  0.00  0.00    +0.055 A 
ATOM     12  C   UNL     1     -11.098   5.760  -2.038  0.00  0.00    +0.025 A 
ATOM     13  C   UNL     1     -10.477   6.008  -3.232  0.00  0.00    +0.002 A 
ATOM     14  C   UNL     1      -9.901   4.972  -3.944  0.00  0.00    +0.002 A 
ATOM     15  C   UNL     1      -9.959   3.677  -3.461  0.00  0.00    +0.025 A 
ATOM     16  C   UNL     1     -10.596   3.418  -2.258  0.00  0.00    +0.058 A 
ATOM     17  N   UNL     1     -10.692   2.108  -1.770  0.00  0.00    -0.264 N 
ATOM     18  C   UNL     1      -9.609   1.479  -1.270  0.00  0.00    +0.258 C 
ATOM     19  O   UNL     1      -9.707   0.347  -0.846  0.00  0.00    -0.271 OA
ATOM     20  H   UNL     1     -11.514   4.739   0.474  0.00  0.00    +0.155 HD
ENDBRANCH   4  18
ENDBRANCH   3   4
ENDBRANCH   1   3
BRANCH   1  21
ATOM     21  C   UNL     1      -4.938   0.925   0.030  0.00  0.00    +0.213 C 
BRANCH  21  22
ATOM     22  C   UNL     1      -5.301   0.555   1.446  0.00  0.00    -0.016 A 
ATOM     23  C   UNL     1      -5.092   1.458   2.471  0.00  0.00    +0.006 A 
ATOM     24  C   UNL     1      -5.429   1.120   3.768  0.00  0.00    +0.000 A 
ATOM     25  C   UNL     1      -5.966  -0.124   4.042  0.00  0.00    +0.000 A 
ATOM     26  C   UNL     1      -6.170  -1.029   3.017  0.00  0.00    +0.000 A 
ATOM     27  C   UNL     1      -5.838  -0.690   1.719  0.00  0.00    +0.006 A 
ENDBRANCH  21  22
BRANCH  21  28
ATOM     28  N   UNL     1      -3.677   1.669   0.029  0.00  0.00    -0.295 N 
ATOM     29  C   UNL     1      -2.503   1.007   0.019  0.00  0.00    +0.245 C 
ATOM     30  O   UNL     1      -2.491  -0.208   0.013  0.00  0.00    -0.270 OA
ATOM     31  H   UNL     1      -3.686   2.639   0.034  0.00  0.00    +0.150 HD
BRANCH  29  32
ATOM     32  C   UNL     1      -1.230   1.759   0.017  0.00  0.00    +0.037 A 
ATOM     33  C   UNL     1      -0.013   1.076   0.008  0.00  0.00    +0.013 A 
ATOM     34  C   UNL     1       1.172   1.783   0.000  0.00  0.00    +0.001 A 
ATOM     35  C   UNL     1       1.155   3.167   0.008  0.00  0.00    +0.000 A 
ATOM     36  C   UNL     1      -0.048   3.850   0.023  0.00  0.00    +0.001 A 
ATOM     37  C   UNL     1      -1.240   3.154   0.030  0.00  0.00    +0.013 A 
ENDBRANCH  29  32
ENDBRANCH  21  28
ENDBRANCH   1  21
TORSDOF 7
