REMARK  Name = ZINC48024868
REMARK  6 active torsions:
REMARK  status: ('A' for Active; 'I' for Inactive)
REMARK    1  A    between atoms: C_9  and  C_12
REMARK    2  A    between atoms: C_12  and  N_13
REMARK    3  A    between atoms: C_14  and  C_16
REMARK    4  A    between atoms: C_16  and  N_17
REMARK    5  A    between atoms: C_20  and  C_23
REMARK    6  A    between atoms: C_23  and  C_24
REMARK                            x       y       z     vdW  Elec       q    Type
REMARK                         _______ _______ _______ _____ _____    ______ ____
ROOT
ATOM      1  N   UNL     1       6.008  -2.071   0.712  0.00  0.00    -0.313 N 
ATOM      2  C   UNL     1       7.274  -2.495   0.525  0.00  0.00    +0.197 C 
ATOM      3  O   UNL     1       7.510  -3.356  -0.296  0.00  0.00    -0.278 OA
ATOM      4  H   UNL     1       5.820  -1.383   1.369  0.00  0.00    +0.149 HD
ENDROOT
BRANCH   1   5
ATOM      5  C   UNL     1       4.918  -2.649  -0.077  0.00  0.00    +0.152 C 
BRANCH   5  14
ATOM      6  C   UNL     1      -0.017   1.378   0.010  0.00  0.00    +0.004 A 
ATOM      7  C   UNL     1       1.170   2.088   0.002  0.00  0.00    +0.004 A 
ATOM      8  C   UNL     1       2.378   1.418  -0.014  0.00  0.00    +0.049 A 
ATOM      9  C   UNL     1       2.404   0.031  -0.023  0.00  0.00    +0.163 A 
ATOM     10  C   UNL     1       1.212  -0.683  -0.013  0.00  0.00    +0.162 A 
ATOM     11  C   UNL     1       0.002  -0.004   0.002  0.00  0.00    +0.049 A 
ATOM     12  O   UNL     1       1.214  -2.044  -0.013  0.00  0.00    -0.485 OA
ATOM     13  C   UNL     1       2.434  -2.685  -0.404  0.00  0.00    +0.275 C 
ATOM     14  C   UNL     1       3.594  -1.997   0.328  0.00  0.00    +0.228 C 
ATOM     15  O   UNL     1       3.602  -0.615  -0.043  0.00  0.00    -0.480 OA
ENDBRANCH   5  14
ENDBRANCH   1   5
BRANCH   2  16
ATOM     16  C   UNL     1       8.396  -1.901   1.337  0.00  0.00    +0.019 C 
BRANCH  16  17
ATOM     17  N   UNL     1       9.667  -2.526   0.948  0.00  0.00    +0.385 N 
ATOM     18  C   UNL     1       9.636  -3.951   1.298  0.00  0.00    -0.078 C 
ATOM     19  C   UNL     1      10.925  -4.625   0.822  0.00  0.00    -0.015 C 
ATOM     20  C   UNL     1      12.124  -3.957   1.500  0.00  0.00    -0.006 C 
ATOM     21  C   UNL     1      12.104  -2.458   1.189  0.00  0.00    -0.015 C 
ATOM     22  C   UNL     1      10.772  -1.864   1.652  0.00  0.00    -0.078 C 
ATOM     23  H   UNL     1       9.797  -2.429  -0.048  0.00  0.00    -0.081 HD
BRANCH  20  24
ATOM     24  C   UNL     1      13.420  -4.573   0.970  0.00  0.00    +0.099 C 
BRANCH  24  25
ATOM     25  C   UNL     1      14.593  -4.002   1.725  0.00  0.00    +0.211 C 
ATOM     26  O   UNL     1      14.410  -3.184   2.601  0.00  0.00    -0.276 OA
ATOM     27  N   UNL     1      15.845  -4.402   1.426  0.00  0.00    -0.329 N 
ATOM     28  H   UNL     1      15.992  -5.056   0.725  0.00  0.00    +0.145 HD
ATOM     29  H   UNL     1      16.600  -4.035   1.912  0.00  0.00    +0.145 HD
ENDBRANCH  24  25
ENDBRANCH  20  24
ENDBRANCH  16  17
ENDBRANCH   2  16
TORSDOF 6
