REMARK  Name = ZINC59210843
REMARK  11 active torsions:
REMARK  status: ('A' for Active; 'I' for Inactive)
REMARK    1  A    between atoms: C_1  and  C_2
REMARK    2  A    between atoms: C_5  and  N_9
REMARK    3  A    between atoms: C_6  and  C_8
REMARK    4  A    between atoms: C_10  and  C_12
REMARK    5  A    between atoms: C_13  and  C_37
REMARK    6  A    between atoms: C_18  and  C_20
REMARK    7  A    between atoms: C_23  and  O_28
REMARK    8  A    between atoms: C_24  and  O_26
REMARK    9  A    between atoms: O_26  and  C_27
REMARK   10  A    between atoms: O_28  and  C_29
REMARK   11  A    between atoms: C_29  and  C_30
REMARK                            x       y       z     vdW  Elec       q    Type
REMARK                         _______ _______ _______ _____ _____    ______ ____
ROOT
ATOM      1  C   UNL     1      -0.240  -5.154  -1.837  0.00  0.00    +0.056 C 
ATOM      2  C   UNL     1      -0.369  -5.493  -3.137  0.00  0.00    +0.017 C 
ATOM      3  N   UNL     1      -0.692  -6.768  -3.504  0.00  0.00    -0.300 N 
ATOM      4  C   UNL     1      -0.902  -7.761  -2.631  0.00  0.00    +0.135 C 
ATOM      5  S   UNL     1      -1.302  -9.316  -3.226  0.00  0.00    -0.019 S 
ATOM      6  N   UNL     1      -0.810  -7.577  -1.299  0.00  0.00    -0.315 N 
ATOM      7  C   UNL     1      -0.460  -6.236  -0.800  0.00  0.00    +0.139 C 
ATOM      8  C   UNL     1      -0.152  -4.448  -4.201  0.00  0.00    +0.061 C 
ATOM      9  H   UNL     1      -0.773  -6.966  -4.450  0.00  0.00    +0.154 HD
ATOM     10  H   UNL     1      -0.967  -8.310  -0.684  0.00  0.00    +0.149 HD
ENDROOT
BRANCH   7  11
ATOM     11  C   UNL     1      -1.567  -5.784   0.117  0.00  0.00    -0.019 A 
ATOM     12  C   UNL     1      -2.879  -5.814  -0.319  0.00  0.00    +0.009 A 
ATOM     13  C   UNL     1      -3.898  -5.400   0.518  0.00  0.00    +0.050 A 
ATOM     14  C   UNL     1      -3.606  -4.954   1.797  0.00  0.00    +0.162 A 
ATOM     15  C   UNL     1      -2.286  -4.924   2.236  0.00  0.00    +0.162 A 
ATOM     16  C   UNL     1      -1.270  -5.345   1.393  0.00  0.00    +0.055 A 
BRANCH  15  17
ATOM     17  O   UNL     1      -1.994  -4.487   3.490  0.00  0.00    -0.491 OA
ATOM     18  C   UNL     1      -0.617  -4.476   3.869  0.00  0.00    +0.277 C 
ENDBRANCH  15  17
BRANCH  14  19
ATOM     19  O   UNL     1      -4.608  -4.546   2.622  0.00  0.00    -0.484 OA
BRANCH  19  20
ATOM     20  C   UNL     1      -5.938  -4.604   2.104  0.00  0.00    +0.266 C 
BRANCH  20  21
ATOM     21  C   UNL     1      -6.906  -4.116   3.151  0.00  0.00    +0.008 A 
ATOM     22  C   UNL     1      -6.439  -3.699   4.384  0.00  0.00    +0.008 A 
ATOM     23  C   UNL     1      -7.327  -3.252   5.344  0.00  0.00    +0.000 A 
ATOM     24  C   UNL     1      -8.682  -3.222   5.073  0.00  0.00    +0.001 A 
ATOM     25  C   UNL     1      -9.150  -3.639   3.842  0.00  0.00    +0.020 A 
ATOM     26  C   UNL     1      -8.262  -4.081   2.878  0.00  0.00    +0.047 A 
ATOM     27 CL   UNL     1      -8.848  -4.598   1.328  0.00  0.00    -0.083 Cl
ENDBRANCH  20  21
ENDBRANCH  19  20
ENDBRANCH  14  19
ENDBRANCH   7  11
BRANCH   1  29
ATOM     28  N   UNL     1      -0.858  -2.879  -1.421  0.00  0.00    -0.281 N 
ATOM     29  C   UNL     1       0.094  -3.831  -1.455  0.00  0.00    +0.248 C 
ATOM     30  O   UNL     1       1.242  -3.556  -1.158  0.00  0.00    -0.270 OA
ATOM     31  H   UNL     1      -1.788  -3.116  -1.566  0.00  0.00    +0.155 HD
BRANCH  28  36
ATOM     32  C   UNL     1       0.567   2.521  -0.428  0.00  0.00    +0.044 C 
ATOM     33  C   UNL     1       0.189   1.087  -0.692  0.00  0.00    -0.050 A 
ATOM     34  C   UNL     1       0.936   0.063  -0.139  0.00  0.00    +0.005 A 
ATOM     35  C   UNL     1       0.592  -1.253  -0.379  0.00  0.00    +0.024 A 
ATOM     36  C   UNL     1      -0.507  -1.547  -1.176  0.00  0.00    +0.037 A 
ATOM     37  C   UNL     1      -1.256  -0.517  -1.729  0.00  0.00    -0.029 A 
ATOM     38  C   UNL     1      -0.909   0.797  -1.481  0.00  0.00    +0.008 A 
ATOM     39  C   UNL     1      -2.449  -0.832  -2.594  0.00  0.00    +0.045 C 
ENDBRANCH  28  36
ENDBRANCH   1  29
TORSDOF 7
