REMARK  Name = ZINC39665405
REMARK  11 active torsions:
REMARK  status: ('A' for Active; 'I' for Inactive)
REMARK    1  A    between atoms: C_1  and  C_2
REMARK    2  A    between atoms: C_2  and  C_4
REMARK    3  A    between atoms: C_2  and  O_31
REMARK    4  A    between atoms: C_4  and  N_5
REMARK    5  A    between atoms: C_6  and  C_8
REMARK    6  A    between atoms: C_19  and  C_21
REMARK    7  A    between atoms: C_21  and  C_22
REMARK    8  A    between atoms: C_22  and  C_23
REMARK    9  A    between atoms: C_26  and  O_29
REMARK   10  A    between atoms: O_29  and  C_30
REMARK   11  A    between atoms: O_31  and  C_32
REMARK                            x       y       z     vdW  Elec       q    Type
REMARK                         _______ _______ _______ _____ _____    ______ ____
ROOT
ATOM      1  C   UNL     1      -1.833  -3.726   0.532  0.00  0.00    +0.100 C 
ATOM      2  C   UNL     1      -1.135  -3.966   1.890  0.00  0.00    +0.121 C 
ATOM      3  N   UNL     1      -2.238  -4.273   2.830  0.00  0.00    -0.300 N 
ATOM      4  C   UNL     1      -3.170  -5.115   2.042  0.00  0.00    +0.115 C 
ATOM      5  C   UNL     1      -3.167  -4.485   0.635  0.00  0.00    -0.004 C 
ATOM      6  C   UNL     1      -4.338  -3.518   0.489  0.00  0.00    -0.010 C 
ATOM      7  C   UNL     1      -5.652  -4.303   0.538  0.00  0.00    -0.082 C 
ATOM      8  N   UNL     1      -5.672  -5.295  -0.544  0.00  0.00    +0.379 N 
ATOM      9  C   UNL     1      -4.598  -6.276  -0.345  0.00  0.00    -0.082 C 
ATOM     10  C   UNL     1      -3.240  -5.574  -0.431  0.00  0.00    -0.010 C 
ATOM     11  C   UNL     1      -2.366  -3.876   4.111  0.00  0.00    +0.216 C 
ATOM     12  O   UNL     1      -3.336  -4.213   4.757  0.00  0.00    -0.276 OA
ATOM     13  H   UNL     1      -6.562  -5.769  -0.548  0.00  0.00    -0.086 HD
ATOM     14  H   UNL     1      -5.539  -4.827  -1.429  0.00  0.00    -0.086 HD
ENDROOT
BRANCH   1  16
ATOM     15  N   UNL     1      -2.135  -1.752  -0.927  0.00  0.00    -0.312 N 
ATOM     16  C   UNL     1      -2.082  -2.255   0.323  0.00  0.00    +0.218 C 
ATOM     17  O   UNL     1      -2.234  -1.523   1.278  0.00  0.00    -0.275 OA
ATOM     18  H   UNL     1      -2.013  -2.337  -1.691  0.00  0.00    +0.149 HD
BRANCH  15  19
ATOM     19  C   UNL     1      -2.376  -0.321  -1.131  0.00  0.00    +0.148 C 
BRANCH  19  21
ATOM     20  C   UNL     1      -2.640   1.479  -2.842  0.00  0.00    +0.053 C 
ATOM     21  C   UNL     1      -2.388  -0.015  -2.630  0.00  0.00    +0.187 C 
BRANCH  21  22
ATOM     22  O   UNL     1      -1.127  -0.371  -3.199  0.00  0.00    -0.488 OA
BRANCH  22  23
ATOM     23  C   UNL     1      -1.110  -0.668  -4.525  0.00  0.00    +0.121 A 
ATOM     24  C   UNL     1       0.055  -1.131  -5.118  0.00  0.00    +0.045 A 
ATOM     25  C   UNL     1       0.069  -1.433  -6.466  0.00  0.00    +0.004 A 
ATOM     26  C   UNL     1      -1.076  -1.273  -7.224  0.00  0.00    +0.000 A 
ATOM     27  C   UNL     1      -2.238  -0.810  -6.635  0.00  0.00    +0.004 A 
ATOM     28  C   UNL     1      -2.259  -0.513  -5.286  0.00  0.00    +0.045 A 
ENDBRANCH  22  23
ENDBRANCH  21  22
ENDBRANCH  19  21
ENDBRANCH  15  19
ENDBRANCH   1  16
BRANCH  11  29
ATOM     29  C   UNL     1      -1.304  -3.013   4.742  0.00  0.00    +0.100 C 
BRANCH  29  30
ATOM     30  C   UNL     1      -1.690  -2.707   6.191  0.00  0.00    +0.044 C 
BRANCH  30  31
ATOM     31  C   UNL     1      -0.627  -1.844   6.822  0.00  0.00    -0.047 A 
ATOM     32  C   UNL     1       0.445  -2.431   7.469  0.00  0.00    +0.007 A 
ATOM     33  C   UNL     1       1.419  -1.642   8.048  0.00  0.00    +0.046 A 
ATOM     34  C   UNL     1       1.322  -0.260   7.981  0.00  0.00    +0.120 A 
ATOM     35  C   UNL     1       0.246   0.327   7.331  0.00  0.00    +0.046 A 
ATOM     36  C   UNL     1      -0.724  -0.467   6.749  0.00  0.00    +0.007 A 
BRANCH  34  37
ATOM     37  O   UNL     1       2.280   0.518   8.551  0.00  0.00    -0.495 OA
ATOM     38  C   UNL     1       2.115   1.934   8.442  0.00  0.00    +0.277 C 
ENDBRANCH  34  37
ENDBRANCH  30  31
ENDBRANCH  29  30
ENDBRANCH  11  29
TORSDOF 9
