REMARK  Name = ZINC08320036
REMARK  8 active torsions:
REMARK  status: ('A' for Active; 'I' for Inactive)
REMARK    1  A    between atoms: C_1  and  C_2
REMARK    2  A    between atoms: C_2  and  C_4
REMARK    3  A    between atoms: C_2  and  N_54
REMARK    4  A    between atoms: N_6  and  C_7
REMARK    5  A    between atoms: C_8  and  C_15
REMARK    6  A    between atoms: C_18  and  C_19
REMARK    7  A    between atoms: C_18  and  C_25
REMARK    8  A    between atoms: C_18  and  N_54
REMARK                            x       y       z     vdW  Elec       q    Type
REMARK                         _______ _______ _______ _____ _____    ______ ____
ROOT
ATOM      1  C   UNL     1      -0.729   1.579   1.267  0.00  0.00    -0.004 C 
ATOM      2  C   UNL     1      -0.013   1.086   0.008  0.00  0.00    +0.014 C 
ENDROOT
BRANCH   2   3
ATOM      3  C   UNL     1       1.401   1.607  -0.003  0.00  0.00    +0.203 C 
ATOM      4  O   UNL     1       1.780   2.315  -0.912  0.00  0.00    -0.277 OA
ATOM      5  N   UNL     1       2.245   1.288   0.998  0.00  0.00    -0.281 N 
ATOM      6  H   UNL     1       1.942   0.722   1.726  0.00  0.00    +0.155 HD
BRANCH   5   7
ATOM      7  C   UNL     1       3.546   1.768   0.989  0.00  0.00    +0.084 A 
ATOM      8  C   UNL     1       4.548   1.556   1.920  0.00  0.00    +0.068 A 
ATOM      9  C   UNL     1       5.847   2.179   1.670  0.00  0.00    -0.023 A 
ATOM     10  C   UNL     1       5.922   2.912   0.544  0.00  0.00    -0.004 A 
ATOM     11  S   UNL     1       4.309   2.783  -0.187  0.00  0.00    -0.077 S 
ATOM     12  C   UNL     1       7.285   3.521   0.358  0.00  0.00    +0.043 C 
ATOM     13  C   UNL     1       8.203   2.720   1.307  0.00  0.00    +0.010 C 
ATOM     14  C   UNL     1       7.203   2.234   2.375  0.00  0.00    +0.037 C 
BRANCH   8  15
ATOM     15  C   UNL     1       4.316   0.734   3.112  0.00  0.00    +0.244 C 
ATOM     16  O   UNL     1       4.532  -0.463   3.077  0.00  0.00    -0.270 OA
ATOM     17  N   UNL     1       3.864   1.304   4.246  0.00  0.00    -0.325 N 
ATOM     18  H   UNL     1       3.692   2.259   4.274  0.00  0.00    +0.145 HD
ATOM     19  H   UNL     1       3.711   0.760   5.035  0.00  0.00    +0.145 HD
ENDBRANCH   8  15
ENDBRANCH   5   7
ENDBRANCH   2   3
BRANCH   2  20
ATOM     20  N   UNL     1      -0.721   1.581  -1.188  0.00  0.00    +0.394 N 
ATOM     21  H   UNL     1      -0.063   1.630  -1.974  0.00  0.00    -0.083 HD
ATOM     22  H   UNL     1      -1.095   2.518  -0.995  0.00  0.00    -0.083 HD
BRANCH  20  23
ATOM     23  C   UNL     1      -1.831   0.676  -1.537  0.00  0.00    -0.009 C 
BRANCH  23  24
ATOM     24  C   UNL     1      -2.874   1.445  -2.306  0.00  0.00    -0.057 A 
ATOM     25  C   UNL     1      -2.488   2.385  -3.244  0.00  0.00    +0.002 A 
ATOM     26  C   UNL     1      -3.445   3.087  -3.953  0.00  0.00    +0.000 A 
ATOM     27  C   UNL     1      -4.787   2.858  -3.716  0.00  0.00    +0.000 A 
ATOM     28  C   UNL     1      -5.173   1.923  -2.774  0.00  0.00    +0.000 A 
ATOM     29  C   UNL     1      -4.216   1.216  -2.069  0.00  0.00    +0.002 A 
ENDBRANCH  23  24
BRANCH  23  30
ATOM     30  C   UNL     1      -1.310  -0.453  -2.389  0.00  0.00    -0.057 A 
ATOM     31  C   UNL     1      -0.364  -0.203  -3.365  0.00  0.00    +0.002 A 
ATOM     32  C   UNL     1       0.117  -1.239  -4.143  0.00  0.00    +0.000 A 
ATOM     33  C   UNL     1      -0.355  -2.524  -3.952  0.00  0.00    +0.000 A 
ATOM     34  C   UNL     1      -1.306  -2.773  -2.980  0.00  0.00    +0.000 A 
ATOM     35  C   UNL     1      -1.783  -1.738  -2.198  0.00  0.00    +0.002 A 
ENDBRANCH  23  30
ENDBRANCH  20  23
ENDBRANCH   2  20
TORSDOF 7
