REMARK  Name = ZINC17279978
REMARK  14 active torsions:
REMARK  status: ('A' for Active; 'I' for Inactive)
REMARK    1  A    between atoms: C_1  and  C_2
REMARK    2  A    between atoms: C_2  and  C_3
REMARK    3  A    between atoms: C_3  and  C_4
REMARK    4  A    between atoms: C_4  and  N_5
REMARK    5  A    between atoms: N_5  and  C_6
REMARK    6  A    between atoms: C_7  and  N_18
REMARK    7  A    between atoms: N_8  and  C_15
REMARK    8  A    between atoms: C_15  and  C_16
REMARK    9  A    between atoms: C_16  and  C_17
REMARK   10  A    between atoms: C_19  and  C_21
REMARK   11  A    between atoms: C_21  and  S_22
REMARK   12  A    between atoms: S_22  and  C_23
REMARK   13  A    between atoms: C_26  and  C_31
REMARK   14  A    between atoms: N_27  and  C_28
REMARK                            x       y       z     vdW  Elec       q    Type
REMARK                         _______ _______ _______ _____ _____    ______ ____
ROOT
ATOM      1  N   UNL     1       0.357  -2.823   2.418  0.00  0.00    -0.264 N 
ATOM      2  C   UNL     1       0.198  -2.192   3.600  0.00  0.00    +0.230 C 
ATOM      3  O   UNL     1       0.210  -0.979   3.647  0.00  0.00    -0.274 OA
ENDROOT
BRANCH   1   4
ATOM      4  C   UNL     1       0.433  -2.075   1.224  0.00  0.00    +0.140 A 
ATOM      5  C   UNL     1      -0.562  -2.171   0.272  0.00  0.00    +0.127 A 
ATOM      6  N   UNL     1      -0.460  -1.430  -0.882  0.00  0.00    -0.280 N 
ATOM      7  C   UNL     1       0.599  -0.625  -1.083  0.00  0.00    +0.331 A 
ATOM      8  O   UNL     1       0.672   0.019  -2.112  0.00  0.00    -0.246 OA
ATOM      9  N   UNL     1       1.575  -0.515  -0.164  0.00  0.00    -0.273 N 
ATOM     10  H   UNL     1       2.347   0.097  -0.335  0.00  0.00    +0.173 HD
ATOM     11  C   UNL     1       1.524  -1.219   0.983  0.00  0.00    +0.277 A 
ATOM     12  O   UNL     1       2.416  -1.115   1.808  0.00  0.00    -0.266 OA
BRANCH   5  13
ATOM     13  N   UNL     1      -1.641  -2.997   0.475  0.00  0.00    -0.343 N 
ATOM     14  H   UNL     1      -2.373  -3.005  -0.162  0.00  0.00    +0.144 HD
ATOM     15  H   UNL     1      -1.672  -3.573   1.255  0.00  0.00    +0.144 HD
ENDBRANCH   5  13
BRANCH   6  16
ATOM     16  C   UNL     1      -1.508  -1.522  -1.901  0.00  0.00    +0.128 C 
BRANCH  16  17
ATOM     17  C   UNL     1      -2.585  -0.471  -1.623  0.00  0.00    +0.018 C 
ATOM     18  C   UNL     1      -3.679  -0.567  -2.687  0.00  0.00    +0.005 C 
ENDBRANCH  16  17
ENDBRANCH   6  16
ENDBRANCH   1   4
BRANCH   1  19
ATOM     19  C   UNL     1       0.452  -4.284   2.375  0.00  0.00    +0.114 C 
BRANCH  19  20
ATOM     20  C   UNL     1       1.901  -4.709   2.623  0.00  0.00    +0.019 C 
BRANCH  20  22
ATOM     21  C   UNL     1       3.449  -6.660   2.826  0.00  0.00    +0.004 C 
ATOM     22  C   UNL     1       2.000  -6.235   2.578  0.00  0.00    -0.002 C 
ENDBRANCH  20  22
ENDBRANCH  19  20
ENDBRANCH   1  19
BRANCH   2  23
ATOM     23  C   UNL     1       0.004  -2.992   4.862  0.00  0.00    +0.173 C 
BRANCH  23  24
ATOM     24  S   UNL     1      -0.180  -1.867   6.268  0.00  0.00    -0.077 S 
BRANCH  24  25
ATOM     25  C   UNL     1      -0.385  -3.037   7.570  0.00  0.00    +0.192 A 
ATOM     26  N   UNL     1      -0.389  -4.344   7.452  0.00  0.00    -0.122 NA
ATOM     27  N   UNL     1      -0.563  -4.886   8.605  0.00  0.00    -0.133 NA
ATOM     28  C   UNL     1      -0.680  -3.965   9.519  0.00  0.00    +0.137 A 
ATOM     29  N   UNL     1      -0.565  -2.754   8.894  0.00  0.00    -0.303 N 
BRANCH  29  30
ATOM     30  C   UNL     1      -0.626  -1.429   9.515  0.00  0.00    +0.091 C 
ATOM     31  C   UNL     1      -0.871  -0.229   8.598  0.00  0.00    +0.027 C 
ATOM     32  C   UNL     1       0.513  -0.454   9.213  0.00  0.00    +0.027 C 
ENDBRANCH  29  30
BRANCH  28  33
ATOM     33  C   UNL     1      -0.895  -4.193  10.993  0.00  0.00    +0.057 C 
ATOM     34  C   UNL     1      -0.784  -5.628  11.510  0.00  0.00    +0.012 C 
ATOM     35  C   UNL     1      -2.154  -4.953  11.414  0.00  0.00    +0.012 C 
ENDBRANCH  28  33
ENDBRANCH  24  25
ENDBRANCH  23  24
ENDBRANCH   2  23
TORSDOF 12
