REMARK  Name = ZINC24122688
REMARK  10 active torsions:
REMARK  status: ('A' for Active; 'I' for Inactive)
REMARK    1  A    between atoms: C_1  and  C_2
REMARK    2  A    between atoms: C_5  and  S_21
REMARK    3  A    between atoms: C_7  and  C_8
REMARK    4  A    between atoms: N_10  and  N_11
REMARK    5  A    between atoms: C_12  and  C_14
REMARK    6  A    between atoms: S_21  and  N_24
REMARK    7  A    between atoms: N_24  and  C_25
REMARK    8  A    between atoms: C_25  and  C_26
REMARK    9  A    between atoms: C_25  and  C_27
REMARK   10  A    between atoms: C_25  and  C_28
REMARK                            x       y       z     vdW  Elec       q    Type
REMARK                         _______ _______ _______ _____ _____    ______ ____
ROOT
ATOM      1  C   UNL     1       2.523   1.198  -1.881  0.00  0.00    +0.044 C 
ATOM      2  C   UNL     1       1.162   1.712  -1.488  0.00  0.00    -0.038 A 
ATOM      3  C   UNL     1       0.041   0.935  -1.699  0.00  0.00    +0.006 A 
ATOM      4  C   UNL     1      -1.209   1.408  -1.345  0.00  0.00    +0.029 A 
ATOM      5  C   UNL     1      -1.345   2.658  -0.767  0.00  0.00    +0.106 A 
ATOM      6  C   UNL     1      -0.233   3.445  -0.550  0.00  0.00    +0.042 A 
ATOM      7  C   UNL     1       1.032   2.976  -0.910  0.00  0.00    +0.043 A 
ENDROOT
BRANCH   7   8
ATOM      8  C   UNL     1       2.228   3.814  -0.682  0.00  0.00    +0.260 C 
ATOM      9  O   UNL     1       3.308   3.462  -1.113  0.00  0.00    -0.269 OA
ATOM     10  N   UNL     1       2.120   4.969   0.005  0.00  0.00    -0.230 N 
ATOM     11  H   UNL     1       1.142   5.287   0.396  0.00  0.00    +0.173 HD
BRANCH  10  12
ATOM     12  N   UNL     1       3.253   5.763   0.222  0.00  0.00    -0.229 N 
ATOM     13  C   UNL     1       3.146   6.918   0.909  0.00  0.00    +0.276 C 
ATOM     14  O   UNL     1       2.064   7.270   1.341  0.00  0.00    -0.267 OA
ATOM     15  H   UNL     1       4.231   5.445  -0.168  0.00  0.00    +0.173 HD
BRANCH  13  16
ATOM     16  C   UNL     1       4.332   7.749   1.136  0.00  0.00    +0.104 A 
ATOM     17  C   UNL     1       4.368   8.950   1.813  0.00  0.00    +0.047 A 
ATOM     18  C   UNL     1       5.695   9.394   1.792  0.00  0.00    +0.036 A 
ATOM     19  C   UNL     1       6.428   8.480   1.111  0.00  0.00    +0.098 A 
ATOM     20  N   UNL     1       5.612   7.476   0.708  0.00  0.00    -0.356 N 
ATOM     21  H   UNL     1       5.816   6.558   0.137  0.00  0.00    +0.166 HD
ATOM     22 BR   UNL     1       6.347  10.989   2.570  0.00  0.00    -0.049 Br
ENDBRANCH  13  16
ENDBRANCH  10  12
ENDBRANCH   7   8
BRANCH   5  23
ATOM     23  S   UNL     1      -2.942   3.249  -0.313  0.00  0.00    +0.059 S 
ATOM     24  O   UNL     1      -3.665   2.128   0.176  0.00  0.00    -0.153 OA
ATOM     25  O   UNL     1      -2.736   4.420   0.464  0.00  0.00    -0.153 OA
BRANCH  23  26
ATOM     26  N   UNL     1      -3.699   3.731  -1.704  0.00  0.00    -0.185 NA
ATOM     27  H   UNL     1      -4.674   3.293  -1.965  0.00  0.00    +0.149 HD
BRANCH  26  28
ATOM     28  C   UNL     1      -3.186   4.877  -2.458  0.00  0.00    +0.032 C 
ATOM     29  C   UNL     1      -1.689   4.689  -2.716  0.00  0.00    +0.029 C 
ATOM     30  C   UNL     1      -3.925   4.981  -3.794  0.00  0.00    +0.029 C 
ATOM     31  C   UNL     1      -3.407   6.159  -1.652  0.00  0.00    +0.029 C 
ENDBRANCH  26  28
ENDBRANCH  23  26
ENDBRANCH   5  23
TORSDOF 6
