REMARK  Name = ZINC02126798
REMARK  8 active torsions:
REMARK  status: ('A' for Active; 'I' for Inactive)
REMARK    1  A    between atoms: C_1  and  C_2
REMARK    2  A    between atoms: C_4  and  C_35
REMARK    3  A    between atoms: C_5  and  N_9
REMARK    4  A    between atoms: C_6  and  C_8
REMARK    5  A    between atoms: C_12  and  C_19
REMARK    6  A    between atoms: C_13  and  O_18
REMARK    7  A    between atoms: C_25  and  O_31
REMARK    8  A    between atoms: O_31  and  C_32
REMARK                            x       y       z     vdW  Elec       q    Type
REMARK                         _______ _______ _______ _____ _____    ______ ____
ROOT
ATOM      1  N   UNL     1       1.157   2.996   0.007  0.00  0.00    -0.228 N 
ATOM      2  C   UNL     1       0.001   3.688   0.022  0.00  0.00    +0.267 A 
ATOM      3  O   UNL     1       0.015   4.907   0.029  0.00  0.00    -0.267 OA
ATOM      4  C   UNL     1      -1.222   2.994   0.030  0.00  0.00    +0.069 A 
ATOM      5  C   UNL     1      -1.211   1.631   0.017  0.00  0.00    +0.201 A 
ATOM      6  N   UNL     1      -0.011   0.966   0.007  0.00  0.00    -0.278 N 
ATOM      7  H   UNL     1       0.002  -0.004   0.002  0.00  0.00    +0.173 HD
ATOM      8  C   UNL     1       1.148   1.650   0.000  0.00  0.00    +0.337 A 
ATOM      9  O   UNL     1       2.201   1.044  -0.013  0.00  0.00    -0.246 OA
ENDROOT
BRANCH   4  10
ATOM     10  C   UNL     1      -2.527   3.748   0.046  0.00  0.00    +0.018 C 
ATOM     11  C   UNL     1      -2.650   4.523   1.336  0.00  0.00    +0.011 A 
ATOM     12  C   UNL     1      -3.090   5.804   1.384  0.00  0.00    -0.022 A 
ATOM     13  C   UNL     1      -3.064   6.212   2.771  0.00  0.00    +0.006 A 
ATOM     14  C   UNL     1      -3.401   7.406   3.417  0.00  0.00    +0.056 A 
ATOM     15  C   UNL     1      -3.243   7.438   4.795  0.00  0.00    +0.121 A 
ATOM     16  C   UNL     1      -2.772   6.340   5.503  0.00  0.00    +0.047 A 
ATOM     17  C   UNL     1      -2.434   5.151   4.882  0.00  0.00    +0.030 A 
ATOM     18  C   UNL     1      -2.583   5.092   3.498  0.00  0.00    +0.047 A 
ATOM     19  N   UNL     1      -2.344   4.093   2.595  0.00  0.00    -0.359 N 
ATOM     20  H   UNL     1      -2.010   3.209   2.816  0.00  0.00    +0.166 HD
ATOM     21  C   UNL     1      -3.513   6.586   0.166  0.00  0.00    +0.018 C 
ATOM     22  C   UNL     1      -3.725   5.593  -0.985  0.00  0.00    -0.076 C 
ATOM     23  N   UNL     1      -2.555   4.697  -1.089  0.00  0.00    +0.388 N 
ATOM     24  H   UNL     1      -2.610   4.171  -1.968  0.00  0.00    -0.084 HD
ATOM     25  H   UNL     1      -1.697   5.260  -1.079  0.00  0.00    -0.084 HD
BRANCH  15  26
ATOM     26  O   UNL     1      -3.558   8.576   5.470  0.00  0.00    -0.495 OA
ATOM     27  C   UNL     1      -3.378   8.559   6.888  0.00  0.00    +0.277 C 
ENDBRANCH  15  26
ENDBRANCH   4  10
BRANCH   1  32
ATOM     28  C   UNL     1       6.104   5.777  -0.025  0.00  0.00    +0.044 C 
ATOM     29  C   UNL     1       4.790   5.038  -0.016  0.00  0.00    -0.050 A 
ATOM     30  C   UNL     1       4.177   4.707  -1.211  0.00  0.00    +0.008 A 
ATOM     31  C   UNL     1       2.973   4.030  -1.206  0.00  0.00    -0.026 A 
ATOM     32  C   UNL     1       2.379   3.682  -0.000  0.00  0.00    +0.060 A 
ATOM     33  C   UNL     1       2.994   4.021   1.197  0.00  0.00    -0.026 A 
ATOM     34  C   UNL     1       4.201   4.694   1.186  0.00  0.00    +0.008 A 
ATOM     35  C   UNL     1       2.349   3.651   2.508  0.00  0.00    +0.046 C 
ATOM     36  C   UNL     1       2.306   3.669  -2.508  0.00  0.00    +0.046 C 
ENDBRANCH   1  32
BRANCH   5  37
ATOM     37  O   UNL     1      -2.371   0.941   0.018  0.00  0.00    -0.493 OA
ATOM     38  H   UNL     1      -2.258  -0.019   0.013  0.00  0.00    +0.294 HD
ENDBRANCH   5  37
TORSDOF 4
