REMARK  Name = ZINC44714110
REMARK  10 active torsions:
REMARK  status: ('A' for Active; 'I' for Inactive)
REMARK    1  A    between atoms: C_1  and  C_2
REMARK    2  A    between atoms: C_2  and  N_3
REMARK    3  A    between atoms: C_4  and  C_10
REMARK    4  A    between atoms: C_6  and  C_8
REMARK    5  A    between atoms: C_14  and  C_23
REMARK    6  A    between atoms: N_25  and  C_26
REMARK    7  A    between atoms: C_26  and  C_28
REMARK    8  A    between atoms: C_26  and  C_29
REMARK    9  A    between atoms: C_30  and  C_36
REMARK   10  A    between atoms: C_34  and  C_35
REMARK                            x       y       z     vdW  Elec       q    Type
REMARK                         _______ _______ _______ _____ _____    ______ ____
ROOT
ATOM      1  C   UNL     1      -1.550  -0.394  -3.008  0.00  0.00    +0.266 C 
ATOM      2  O   UNL     1      -1.925  -0.696  -4.125  0.00  0.00    -0.268 OA
ATOM      3  N   UNL     1      -2.417   0.146  -2.129  0.00  0.00    -0.295 N 
ATOM      4  C   UNL     1      -2.175   0.487  -0.707  0.00  0.00    +0.121 C 
ATOM      5  C   UNL     1      -2.920   1.824  -0.494  0.00  0.00    +0.100 C 
ATOM      6  C   UNL     1      -4.004   1.847  -1.584  0.00  0.00    -0.004 C 
ATOM      7  C   UNL     1      -3.826   0.539  -2.368  0.00  0.00    +0.115 C 
ATOM      8  C   UNL     1      -3.796   3.042  -2.510  0.00  0.00    -0.010 C 
ATOM      9  C   UNL     1      -4.919   3.076  -3.551  0.00  0.00    -0.082 C 
ATOM     10  N   UNL     1      -6.216   3.179  -2.871  0.00  0.00    +0.379 N 
ATOM     11  C   UNL     1      -6.449   1.982  -2.054  0.00  0.00    -0.082 C 
ATOM     12  C   UNL     1      -5.390   1.901  -0.950  0.00  0.00    -0.010 C 
ATOM     13  H   UNL     1      -6.220   3.995  -2.278  0.00  0.00    -0.086 HD
ATOM     14  H   UNL     1      -6.949   3.262  -3.559  0.00  0.00    -0.086 HD
ENDROOT
BRANCH   1  16
ATOM     15  N   UNL     1       0.851   0.314  -2.581  0.00  0.00    -0.258 N 
ATOM     16  C   UNL     1      -0.150  -0.617  -2.616  0.00  0.00    +0.138 A 
ATOM     17  C   UNL     1       0.420  -1.813  -2.210  0.00  0.00    +0.071 A 
ATOM     18  C   UNL     1       1.760  -1.514  -1.950  0.00  0.00    +0.075 A 
ATOM     19  N   UNL     1       1.943  -0.242  -2.195  0.00  0.00    -0.175 NA
ATOM     20  C   UNL     1       2.810  -2.486  -1.476  0.00  0.00    +0.069 C 
ATOM     21 BR   UNL     1      -0.435  -3.491  -2.042  0.00  0.00    -0.046 Br
BRANCH  15  23
ATOM     22  C   UNL     1       0.857   1.893  -4.448  0.00  0.00    +0.029 C 
ATOM     23  C   UNL     1       0.702   1.727  -2.935  0.00  0.00    +0.141 C 
ENDBRANCH  15  23
ENDBRANCH   1  16
BRANCH   5  24
ATOM     24  C   UNL     1      -3.548   1.863   0.875  0.00  0.00    +0.219 C 
ATOM     25  O   UNL     1      -3.832   0.828   1.441  0.00  0.00    -0.275 OA
ATOM     26  N   UNL     1      -3.794   3.046   1.471  0.00  0.00    -0.308 N 
ATOM     27  H   UNL     1      -3.634   3.874   0.990  0.00  0.00    +0.149 HD
BRANCH  26  28
ATOM     28  C   UNL     1      -4.302   3.084   2.844  0.00  0.00    +0.104 C 
ATOM     29  C   UNL     1      -5.808   2.813   2.838  0.00  0.00    +0.033 C 
BRANCH  28  30
ATOM     30  C   UNL     1      -4.039   4.443   3.440  0.00  0.00    +0.015 A 
ATOM     31  C   UNL     1      -3.475   4.688   4.646  0.00  0.00    +0.038 A 
ATOM     32  N   UNL     1      -3.416   6.026   4.808  0.00  0.00    -0.281 N 
ATOM     33  H   UNL     1      -3.058   6.492   5.580  0.00  0.00    +0.189 HD
ATOM     34  N   UNL     1      -3.960   6.623   3.664  0.00  0.00    -0.179 NA
ATOM     35  C   UNL     1      -4.328   5.674   2.842  0.00  0.00    +0.065 A 
ATOM     36  C   UNL     1      -4.958   5.872   1.488  0.00  0.00    +0.068 C 
ATOM     37  C   UNL     1      -2.999   3.651   5.631  0.00  0.00    +0.065 C 
ENDBRANCH  28  30
ENDBRANCH  26  28
ENDBRANCH   5  24
TORSDOF 5
