REMARK  Name = ZINC36491250
REMARK  10 active torsions:
REMARK  status: ('A' for Active; 'I' for Inactive)
REMARK    1  A    between atoms: C_1  and  C_2
REMARK    2  A    between atoms: C_2  and  C_4
REMARK    3  A    between atoms: N_6  and  C_7
REMARK    4  A    between atoms: N_6  and  C_13
REMARK    5  A    between atoms: C_13  and  C_15
REMARK    6  A    between atoms: C_13  and  C_24
REMARK    7  A    between atoms: C_16  and  O_23
REMARK    8  A    between atoms: C_18  and  O_22
REMARK    9  A    between atoms: C_20  and  O_21
REMARK   10  A    between atoms: N_26  and  C_27
REMARK                            x       y       z     vdW  Elec       q    Type
REMARK                         _______ _______ _______ _____ _____    ______ ____
ROOT
ATOM      1  C   UNL     1      -2.439   1.347   0.021  0.00  0.00    +0.200 C 
ENDROOT
BRANCH   1   2
ATOM      2  C   UNL     1      -1.583   1.702   1.209  0.00  0.00    +0.065 A 
ATOM      3  C   UNL     1      -0.323   1.139   1.348  0.00  0.00    +0.129 A 
ATOM      4  C   UNL     1       0.466   1.466   2.441  0.00  0.00    +0.091 A 
ATOM      5  C   UNL     1      -0.005   2.356   3.394  0.00  0.00    +0.124 A 
ATOM      6  C   UNL     1      -1.265   2.919   3.255  0.00  0.00    +0.091 A 
ATOM      7  C   UNL     1      -2.052   2.595   2.160  0.00  0.00    +0.129 A 
BRANCH   7   8
ATOM      8  O   UNL     1      -3.284   3.151   2.021  0.00  0.00    -0.506 OA
ATOM      9  H   UNL     1      -3.994   2.642   2.436  0.00  0.00    +0.292 HD
ENDBRANCH   7   8
BRANCH   5  10
ATOM     10  O   UNL     1       0.767   2.675   4.466  0.00  0.00    -0.507 OA
ATOM     11  H   UNL     1       1.341   3.440   4.322  0.00  0.00    +0.292 HD
ENDBRANCH   5  10
BRANCH   3  12
ATOM     12  O   UNL     1       0.139   0.268   0.413  0.00  0.00    -0.506 OA
ATOM     13  H   UNL     1       0.690   0.677  -0.268  0.00  0.00    +0.292 HD
ENDBRANCH   3  12
ENDBRANCH   1   2
BRANCH   1  14
ATOM     14  C   UNL     1      -1.681   1.633  -1.249  0.00  0.00    +0.239 C 
ATOM     15  O   UNL     1      -1.423   0.731  -2.018  0.00  0.00    -0.273 OA
ATOM     16  N   UNL     1      -1.289   2.892  -1.531  0.00  0.00    -0.311 N 
ATOM     17  H   UNL     1      -1.495   3.613  -0.916  0.00  0.00    +0.149 HD
BRANCH  16  18
ATOM     18  C   UNL     1      -0.552   3.170  -2.766  0.00  0.00    +0.073 C 
ATOM     19  C   UNL     1       0.939   2.913  -2.538  0.00  0.00    +0.022 C 
ATOM     20  C   UNL     1       1.709   3.204  -3.828  0.00  0.00    +0.002 C 
ATOM     21  C   UNL     1       1.499   4.665  -4.229  0.00  0.00    +0.000 C 
ATOM     22  C   UNL     1       0.008   4.923  -4.456  0.00  0.00    +0.002 C 
ATOM     23  C   UNL     1      -0.762   4.632  -3.167  0.00  0.00    +0.022 C 
ENDBRANCH  16  18
ENDBRANCH   1  14
BRANCH   1  26
ATOM     24  C   UNL     1      -3.651  -0.594  -0.817  0.00  0.00    +0.243 C 
ATOM     25  O   UNL     1      -3.855  -1.793  -0.841  0.00  0.00    -0.270 OA
ATOM     26  N   UNL     1      -2.783  -0.076   0.075  0.00  0.00    -0.279 N 
BRANCH  26  27
ATOM     27  C   UNL     1      -2.182  -0.937   1.097  0.00  0.00    +0.077 C 
ATOM     28  C   UNL     1      -1.360  -2.036   0.420  0.00  0.00    +0.022 C 
ATOM     29  C   UNL     1      -0.733  -2.934   1.488  0.00  0.00    +0.002 C 
ATOM     30  C   UNL     1      -1.839  -3.571   2.333  0.00  0.00    +0.000 C 
ATOM     31  C   UNL     1      -2.660  -2.472   3.009  0.00  0.00    +0.002 C 
ATOM     32  C   UNL     1      -3.287  -1.573   1.942  0.00  0.00    +0.022 C 
ENDBRANCH  26  27
BRANCH  24  34
ATOM     33  C   UNL     1      -4.625   1.724  -1.387  0.00  0.00    +0.048 C 
ATOM     34  C   UNL     1      -4.351   0.290  -1.761  0.00  0.00    +0.004 C 
ATOM     35  C   UNL     1      -4.742  -0.176  -2.943  0.00  0.00    +0.017 C 
ENDBRANCH  24  34
ENDBRANCH   1  26
TORSDOF 9
