REMARK  Name = ZINC12488005
REMARK  12 active torsions:
REMARK  status: ('A' for Active; 'I' for Inactive)
REMARK    1  A    between atoms: C_1  and  C_2
REMARK    2  A    between atoms: C_5  and  C_8
REMARK    3  A    between atoms: C_8  and  C_10
REMARK    4  A    between atoms: C_8  and  N_19
REMARK    5  A    between atoms: N_12  and  C_13
REMARK    6  A    between atoms: C_13  and  C_14
REMARK    7  A    between atoms: N_19  and  C_20
REMARK    8  A    between atoms: C_24  and  C_27
REMARK    9  A    between atoms: C_25  and  C_26
REMARK   10  A    between atoms: C_28  and  C_30
REMARK   11  A    between atoms: C_30  and  N_31
REMARK   12  A    between atoms: C_32  and  C_34
REMARK                            x       y       z     vdW  Elec       q    Type
REMARK                         _______ _______ _______ _____ _____    ______ ____
ROOT
ATOM      1  N   UNL     1      -6.130   2.827   0.632  0.00  0.00    -0.254 N 
ATOM      2  C   UNL     1      -5.032   2.077   0.853  0.00  0.00    +0.238 C 
ATOM      3  O   UNL     1      -5.032   0.900   0.560  0.00  0.00    -0.274 OA
ENDROOT
BRANCH   1   4
ATOM      4  C   UNL     1      -6.129   4.184   0.970  0.00  0.00    +0.041 A 
ATOM      5  C   UNL     1      -5.633   5.124   0.076  0.00  0.00    +0.024 A 
ATOM      6  C   UNL     1      -5.640   6.464   0.410  0.00  0.00    +0.002 A 
ATOM      7  C   UNL     1      -6.130   6.869   1.638  0.00  0.00    +0.004 A 
ATOM      8  C   UNL     1      -6.619   5.936   2.533  0.00  0.00    -0.046 A 
ATOM      9  C   UNL     1      -6.620   4.595   2.202  0.00  0.00    -0.026 A 
ATOM     10  C   UNL     1      -7.155   3.578   3.178  0.00  0.00    +0.046 C 
ATOM     11  C   UNL     1      -7.152   6.382   3.870  0.00  0.00    +0.044 C 
ENDBRANCH   1   4
BRANCH   1  12
ATOM     12  C   UNL     1      -7.323   2.220   0.037  0.00  0.00    +0.197 C 
BRANCH  12  17
ATOM     13  C   UNL     1     -11.625   6.078  -0.006  0.00  0.00    +0.044 C 
ATOM     14  C   UNL     1     -10.503   5.072   0.005  0.00  0.00    -0.050 A 
ATOM     15  C   UNL     1     -10.635   3.898   0.722  0.00  0.00    +0.004 A 
ATOM     16  C   UNL     1      -9.606   2.975   0.733  0.00  0.00    +0.006 A 
ATOM     17  C   UNL     1      -8.445   3.226   0.025  0.00  0.00    -0.018 A 
ATOM     18  C   UNL     1      -8.311   4.402  -0.688  0.00  0.00    +0.006 A 
ATOM     19  C   UNL     1      -9.342   5.323  -0.703  0.00  0.00    +0.004 A 
ENDBRANCH  12  17
BRANCH  12  20
ATOM     20  C   UNL     1      -7.018   1.791  -1.375  0.00  0.00    +0.239 C 
ATOM     21  O   UNL     1      -5.913   1.974  -1.839  0.00  0.00    -0.273 OA
ATOM     22  N   UNL     1      -7.974   1.204  -2.122  0.00  0.00    -0.306 N 
ATOM     23  H   UNL     1      -8.858   1.058  -1.751  0.00  0.00    +0.149 HD
BRANCH  22  24
ATOM     24  C   UNL     1      -7.678   0.787  -3.495  0.00  0.00    +0.178 C 
BRANCH  24  25
ATOM     25  C   UNL     1      -8.905   0.163  -4.106  0.00  0.00    +0.122 A 
ATOM     26  C   UNL     1      -9.862   0.816  -4.791  0.00  0.00    +0.046 A 
ATOM     27  C   UNL     1     -10.818  -0.150  -5.180  0.00  0.00    +0.041 A 
ATOM     28  C   UNL     1     -10.390  -1.335  -4.710  0.00  0.00    +0.195 A 
ATOM     29  O   UNL     1      -9.227  -1.140  -4.065  0.00  0.00    -0.466 OA
ENDBRANCH  24  25
ENDBRANCH  22  24
ENDBRANCH  12  20
ENDBRANCH   1  12
BRANCH   2  30
ATOM     30  C   UNL     1      -3.804   2.701   1.465  0.00  0.00    +0.201 C 
BRANCH  30  31
ATOM     31  N   UNL     1      -2.756   1.686   1.601  0.00  0.00    -0.302 N 
ATOM     32  C   UNL     1      -1.561   2.018   2.128  0.00  0.00    +0.251 C 
ATOM     33  O   UNL     1      -1.352   3.160   2.490  0.00  0.00    -0.270 OA
ATOM     34  H   UNL     1      -2.923   0.775   1.313  0.00  0.00    +0.150 HD
BRANCH  32  35
ATOM     35  C   UNL     1      -0.513   1.002   2.265  0.00  0.00    +0.074 A 
ATOM     36  C   UNL     1       0.771   1.134   2.769  0.00  0.00    +0.021 A 
ATOM     37  C   UNL     1       1.558   0.009   2.777  0.00  0.00    +0.008 A 
ATOM     38  C   UNL     1       1.052  -1.158   2.300  0.00  0.00    +0.046 A 
ATOM     39  S   UNL     1      -0.556  -0.725   1.818  0.00  0.00    -0.092 S 
ENDBRANCH  32  35
ENDBRANCH  30  31
ENDBRANCH   2  30
TORSDOF 9
