REMARK  Name = ZINC24215067
REMARK  8 active torsions:
REMARK  status: ('A' for Active; 'I' for Inactive)
REMARK    1  A    between atoms: C_1  and  C_2
REMARK    2  A    between atoms: C_3  and  C_14
REMARK    3  A    between atoms: C_4  and  C_13
REMARK    4  A    between atoms: N_5  and  C_7
REMARK    5  A    between atoms: N_21  and  C_22
REMARK    6  A    between atoms: C_22  and  C_23
REMARK    7  A    between atoms: N_28  and  C_29
REMARK    8  A    between atoms: C_29  and  C_30
REMARK                            x       y       z     vdW  Elec       q    Type
REMARK                         _______ _______ _______ _____ _____    ______ ____
ROOT
ATOM      1  C   UNL     1       1.029   1.630  -7.059  0.00  0.00    +0.054 C 
ATOM      2  C   UNL     1       1.723   0.934  -8.196  0.00  0.00    +0.204 C 
ATOM      3  O   UNL     1       2.806   1.345  -8.555  0.00  0.00    -0.277 OA
ATOM      4  N   UNL     1       1.196  -0.119  -8.829  0.00  0.00    -0.318 N 
ATOM      5  C   UNL     1      -0.116  -0.669  -8.499  0.00  0.00    +0.085 C 
ATOM      6  C   UNL     1      -0.550  -0.192  -7.112  0.00  0.00    -0.058 C 
ATOM      7  N   UNL     1      -0.395   1.270  -7.045  0.00  0.00    +0.397 N 
ATOM      8  H   UNL     1       1.797  -0.574  -9.630  0.00  0.00    +0.149 HD
ATOM      9  H   UNL     1      -0.875   1.715  -7.930  0.00  0.00    -0.079 HD
ENDROOT
BRANCH   1  12
ATOM     10  C   UNL     1      -0.572   3.429  -9.119  0.00  0.00    +0.068 C 
ATOM     11  C   UNL     1       0.460   3.916  -8.136  0.00  0.00    +0.063 A 
ATOM     12  C   UNL     1       1.167   3.121  -7.227  0.00  0.00    -0.009 A 
ATOM     13  C   UNL     1       1.992   3.929  -6.521  0.00  0.00    +0.044 A 
ATOM     14  N   UNL     1       1.819   5.191  -6.973  0.00  0.00    -0.237 N 
ATOM     15  N   UNL     1       0.850   5.157  -7.985  0.00  0.00    -0.171 NA
ATOM     16  C   UNL     1       2.936   3.498  -5.428  0.00  0.00    +0.066 C 
BRANCH  14  17
ATOM     17  C   UNL     1       2.487   6.333  -6.509  0.00  0.00    +0.066 A 
ATOM     18  C   UNL     1       1.790   7.520  -6.327  0.00  0.00    +0.028 A 
ATOM     19  C   UNL     1       2.450   8.642  -5.866  0.00  0.00    +0.002 A 
ATOM     20  C   UNL     1       3.805   8.587  -5.594  0.00  0.00    +0.000 A 
ATOM     21  C   UNL     1       4.502   7.407  -5.779  0.00  0.00    +0.002 A 
ATOM     22  C   UNL     1       3.847   6.280  -6.236  0.00  0.00    +0.028 A 
ENDBRANCH  14  17
ENDBRANCH   1  12
BRANCH   7  23
ATOM     23  C   UNL     1      -1.064   1.817  -5.857  0.00  0.00    +0.021 C 
BRANCH  23  24
ATOM     24  C   UNL     1      -2.554   1.632  -5.989  0.00  0.00    +0.204 C 
ATOM     25  O   UNL     1      -3.022   1.203  -7.022  0.00  0.00    -0.277 OA
ATOM     26  N   UNL     1      -3.366   1.943  -4.960  0.00  0.00    -0.242 N 
ATOM     27  C   UNL     1      -4.698   1.777  -5.078  0.00  0.00    +0.306 C 
ATOM     28  O   UNL     1      -5.167   1.347  -6.114  0.00  0.00    -0.252 OA
ATOM     29  N   UNL     1      -5.510   2.088  -4.048  0.00  0.00    -0.295 N 
ATOM     30  H   UNL     1      -2.941   2.332  -4.022  0.00  0.00    +0.159 HD
ATOM     31  H   UNL     1      -5.085   2.477  -3.111  0.00  0.00    +0.151 HD
BRANCH  29  32
ATOM     32  C   UNL     1      -6.958   1.908  -4.177  0.00  0.00    +0.141 C 
BRANCH  32  33
ATOM     33  C   UNL     1      -7.632   2.325  -2.895  0.00  0.00    -0.030 A 
ATOM     34  C   UNL     1      -7.845   1.398  -1.892  0.00  0.00    +0.005 A 
ATOM     35  C   UNL     1      -8.459   1.782  -0.715  0.00  0.00    +0.000 A 
ATOM     36  C   UNL     1      -8.869   3.091  -0.544  0.00  0.00    +0.000 A 
ATOM     37  C   UNL     1      -8.662   4.017  -1.550  0.00  0.00    +0.000 A 
ATOM     38  C   UNL     1      -8.043   3.634  -2.725  0.00  0.00    +0.005 A 
ENDBRANCH  32  33
ENDBRANCH  29  32
ENDBRANCH  23  24
ENDBRANCH   7  23
TORSDOF 6
