REMARK  Name = ZINC36637638
REMARK  16 active torsions:
REMARK  status: ('A' for Active; 'I' for Inactive)
REMARK    1  A    between atoms: C_1  and  C_2
REMARK    2  A    between atoms: C_2  and  C_3
REMARK    3  A    between atoms: C_3  and  N_4
REMARK    4  A    between atoms: N_4  and  C_5
REMARK    5  A    between atoms: N_4  and  S_8
REMARK    6  A    between atoms: C_5  and  C_6
REMARK    7  A    between atoms: C_6  and  C_7
REMARK    8  A    between atoms: S_8  and  C_11
REMARK    9  A    between atoms: C_14  and  C_17
REMARK   10  A    between atoms: N_19  and  C_20
REMARK   11  A    between atoms: C_20  and  C_21
REMARK   12  A    between atoms: C_21  and  N_22
REMARK   13  A    between atoms: N_22  and  C_23
REMARK   14  A    between atoms: N_22  and  C_24
REMARK   15  A    between atoms: C_29  and  C_35
REMARK   16  A    between atoms: C_31  and  C_34
REMARK                            x       y       z     vdW  Elec       q    Type
REMARK                         _______ _______ _______ _____ _____    ______ ____
ROOT
ATOM      1  C   UNL     1       3.680  -3.547  -3.292  0.00  0.00    +0.252 C 
ATOM      2  O   UNL     1       3.942  -2.677  -4.100  0.00  0.00    -0.270 OA
ATOM      3  N   UNL     1       4.536  -4.571  -3.104  0.00  0.00    -0.248 N 
ATOM      4  C   UNL     1       5.766  -4.571  -3.739  0.00  0.00    +0.168 A 
ATOM      5  N   UNL     1       6.720  -5.471  -3.686  0.00  0.00    -0.224 NA
ATOM      6  C   UNL     1       7.880  -5.340  -4.365  0.00  0.00    +0.081 A 
ATOM      7  C   UNL     1       8.980  -6.229  -4.394  0.00  0.00    +0.032 A 
ATOM      8  C   UNL     1      10.092  -5.942  -5.143  0.00  0.00    -0.048 A 
ATOM      9  C   UNL     1      10.180  -4.780  -5.895  0.00  0.00    +0.008 A 
ATOM     10  C   UNL     1       9.123  -3.888  -5.890  0.00  0.00    -0.034 A 
ATOM     11  C   UNL     1       8.005  -4.167  -5.143  0.00  0.00    +0.044 A 
ATOM     12  S   UNL     1       6.456  -3.350  -4.847  0.00  0.00    -0.052 S 
ATOM     13  C   UNL     1       9.197  -2.619  -6.700  0.00  0.00    +0.045 C 
ATOM     14  C   UNL     1      11.245  -6.912  -5.149  0.00  0.00    +0.044 C 
ENDROOT
BRANCH   1  18
ATOM     15  C   UNL     1       0.072  -3.358  -1.060  0.00  0.00    +0.106 A 
ATOM     16  C   UNL     1       0.462  -4.552  -1.640  0.00  0.00    +0.029 A 
ATOM     17  C   UNL     1       1.632  -4.620  -2.366  0.00  0.00    +0.015 A 
ATOM     18  C   UNL     1       2.425  -3.481  -2.516  0.00  0.00    +0.037 A 
ATOM     19  C   UNL     1       2.026  -2.279  -1.928  0.00  0.00    +0.015 A 
ATOM     20  C   UNL     1       0.850  -2.223  -1.209  0.00  0.00    +0.029 A 
BRANCH  15  21
ATOM     21  S   UNL     1      -1.425  -3.279  -0.134  0.00  0.00    +0.061 S 
ATOM     22  O   UNL     1      -1.293  -2.182   0.759  0.00  0.00    -0.153 OA
ATOM     23  O   UNL     1      -1.693  -4.600   0.317  0.00  0.00    -0.153 OA
BRANCH  21  24
ATOM     24  N   UNL     1      -2.635  -2.885  -1.192  0.00  0.00    -0.177 NA
BRANCH  24  25
ATOM     25  C   UNL     1      -3.375  -3.942  -1.886  0.00  0.00    +0.109 C 
BRANCH  25  27
ATOM     26  C   UNL     1      -3.522  -5.289  -3.985  0.00  0.00    +0.005 C 
ATOM     27  C   UNL     1      -2.749  -4.185  -3.261  0.00  0.00    +0.014 C 
ENDBRANCH  25  27
ENDBRANCH  24  25
BRANCH  24  28
ATOM     28  C   UNL     1      -2.967  -1.479  -1.435  0.00  0.00    +0.109 C 
BRANCH  28  29
ATOM     29  C   UNL     1      -4.125  -1.063  -0.526  0.00  0.00    +0.014 C 
ATOM     30  C   UNL     1      -4.471   0.405  -0.779  0.00  0.00    +0.005 C 
ENDBRANCH  28  29
ENDBRANCH  24  28
ENDBRANCH  21  24
ENDBRANCH  15  21
ENDBRANCH   1  18
BRANCH   3  31
ATOM     31  C   UNL     1       4.165  -5.684  -2.227  0.00  0.00    +0.097 C 
BRANCH  31  32
ATOM     32  C   UNL     1       3.641  -6.847  -3.073  0.00  0.00    -0.060 C 
BRANCH  32  33
ATOM     33  N   UNL     1       3.146  -7.911  -2.189  0.00  0.00    +0.377 N 
ATOM     34  C   UNL     1       2.535  -8.974  -2.998  0.00  0.00    -0.097 C 
ATOM     35  C   UNL     1       4.266  -8.466  -1.417  0.00  0.00    -0.097 C 
ATOM     36  H   UNL     1       2.458  -7.531  -1.558  0.00  0.00    -0.083 HD
ENDBRANCH  32  33
ENDBRANCH  31  32
ENDBRANCH   3  31
TORSDOF 10
