REMARK  Name = ZINC37359720
REMARK  4 active torsions:
REMARK  status: ('A' for Active; 'I' for Inactive)
REMARK    1  A    between atoms: C_1  and  C_2
REMARK    2  A    between atoms: C_2  and  C_3
REMARK    3  A    between atoms: C_2  and  C_13
REMARK    4  A    between atoms: C_2  and  N_16
REMARK                            x       y       z     vdW  Elec       q    Type
REMARK                         _______ _______ _______ _____ _____    ______ ____
ROOT
ATOM      1  C   UNL     1       0.030   1.519   0.148  0.00  0.00    +0.010 C 
ATOM      2  C   UNL     1       0.002  -0.004   0.002  0.00  0.00    +0.094 C 
ENDROOT
BRANCH   2   3
ATOM      3  C   UNL     1       0.736  -0.633   1.158  0.00  0.00    +0.106 A 
ATOM      4  C   UNL     1       0.401  -0.492   2.448  0.00  0.00    +0.052 A 
ATOM      5  C   UNL     1       1.382  -1.271   3.213  0.00  0.00    +0.021 A 
ATOM      6  C   UNL     1       1.580  -1.525   4.569  0.00  0.00    +0.027 A 
ATOM      7  C   UNL     1       2.630  -2.325   4.966  0.00  0.00    +0.019 A 
ATOM      8  C   UNL     1       3.486  -2.875   4.021  0.00  0.00    +0.019 A 
ATOM      9  C   UNL     1       3.300  -2.631   2.678  0.00  0.00    +0.048 A 
ATOM     10  C   UNL     1       2.248  -1.828   2.257  0.00  0.00    +0.135 A 
ATOM     11  O   UNL     1       1.819  -1.423   1.044  0.00  0.00    -0.461 OA
ATOM     12 BR   UNL     1       2.906  -2.674   6.804  0.00  0.00    -0.050 Br
ENDBRANCH   2   3
BRANCH   2  13
ATOM     13  N   UNL     1       0.653  -0.387  -1.258  0.00  0.00    +0.395 N 
ATOM     14  C   UNL     1      -0.001   0.300  -2.401  0.00  0.00    -0.077 C 
ATOM     15  C   UNL     1       1.086   0.264  -3.505  0.00  0.00    -0.020 C 
ATOM     16  C   UNL     1       2.394   0.483  -2.710  0.00  0.00    -0.020 C 
ATOM     17  C   UNL     1       2.060   0.069  -1.265  0.00  0.00    -0.077 C 
ATOM     18  H   UNL     1       0.611  -1.388  -1.382  0.00  0.00    -0.080 HD
ENDBRANCH   2  13
BRANCH   2  19
ATOM     19  C   UNL     1      -1.427  -0.482  -0.005  0.00  0.00    +0.353 C 
ATOM     20  O   UNL     1      -1.826  -1.197  -0.908  0.00  0.00    -0.247 OA
ATOM     21  O   UNL     1      -2.184  -0.153   0.892  0.00  0.00    -0.247 OA
ENDBRANCH   2  19
TORSDOF 3
