REMARK  Name = ZINC64538579
REMARK  8 active torsions:
REMARK  status: ('A' for Active; 'I' for Inactive)
REMARK    1  A    between atoms: C_1  and  C_2
REMARK    2  A    between atoms: C_3  and  C_31
REMARK    3  A    between atoms: N_11  and  C_14
REMARK    4  A    between atoms: C_14  and  C_15
REMARK    5  A    between atoms: C_15  and  C_16
REMARK    6  A    between atoms: N_18  and  C_19
REMARK    7  A    between atoms: C_19  and  C_20
REMARK    8  A    between atoms: C_20  and  C_21
REMARK                            x       y       z     vdW  Elec       q    Type
REMARK                         _______ _______ _______ _____ _____    ______ ____
ROOT
ATOM      1  C   UNL     1       4.796  -2.176   4.507  0.00  0.00    +0.215 C 
ATOM      2  O   UNL     1       5.752  -1.938   3.799  0.00  0.00    -0.276 OA
ATOM      3  N   UNL     1       4.969  -2.370   5.829  0.00  0.00    -0.315 N 
ATOM      4  H   UNL     1       4.205  -2.560   6.395  0.00  0.00    +0.149 HD
ENDROOT
BRANCH   1   5
ATOM      5  C   UNL     1       3.416  -2.255   3.907  0.00  0.00    +0.115 C 
BRANCH   5   6
ATOM      6  C   UNL     1       3.498  -1.998   2.401  0.00  0.00    +0.118 C 
BRANCH   6  15
ATOM      7  C   UNL     1      -0.018   1.503   0.010  0.00  0.00    +0.043 C 
ATOM      8  C   UNL     1       0.002  -0.004   0.002  0.00  0.00    -0.019 C 
ATOM      9  C   UNL     1       0.008  -0.781  -1.062  0.00  0.00    +0.097 C 
ATOM     10  O   UNL     1       0.034  -2.103  -0.764  0.00  0.00    -0.477 OA
ATOM     11  C   UNL     1      -0.389  -2.259   0.602  0.00  0.00    +0.259 C 
ATOM     12  C   UNL     1       0.026  -0.917   1.224  0.00  0.00    +0.160 C 
ATOM     13  C   UNL     1       1.427  -0.960   1.753  0.00  0.00    +0.229 C 
ATOM     14  O   UNL     1       1.924   0.075   2.144  0.00  0.00    -0.275 OA
ATOM     15  N   UNL     1       2.156  -2.074   1.819  0.00  0.00    -0.287 N 
ATOM     16  C   UNL     1       1.682  -3.361   1.338  0.00  0.00    +0.195 C 
ATOM     17  N   UNL     1       0.235  -3.399   1.230  0.00  0.00    -0.265 NA
ATOM     18  C   UNL     1      -0.011  -0.251  -2.472  0.00  0.00    +0.085 C 
ATOM     19  H   UNL     1      -0.194  -3.599   2.122  0.00  0.00    +0.127 HD
ENDBRANCH   6  15
ENDBRANCH   5   6
ENDBRANCH   1   5
BRANCH   3  20
ATOM     20  C   UNL     1       6.311  -2.293   6.412  0.00  0.00    +0.108 C 
BRANCH  20  21
ATOM     21  C   UNL     1       6.228  -2.550   7.918  0.00  0.00    +0.052 C 
BRANCH  21  22
ATOM     22  C   UNL     1       7.609  -2.471   8.517  0.00  0.00    -0.040 C 
ATOM     23  C   UNL     1       8.181  -1.395   9.103  0.00  0.00    +0.000 A 
ATOM     24  C   UNL     1       7.707  -0.027   9.347  0.00  0.00    +0.030 A 
ATOM     25  C   UNL     1       8.528   0.850   9.971  0.00  0.00    +0.042 A 
ATOM     26  C   UNL     1       9.816   0.485  10.388  0.00  0.00    +0.022 A 
ATOM     27  C   UNL     1      10.321  -0.752  10.199  0.00  0.00    +0.027 A 
ATOM     28  C   UNL     1       9.544  -1.755   9.554  0.00  0.00    +0.043 A 
ATOM     29  N   UNL     1       9.805  -3.005   9.258  0.00  0.00    -0.380 N 
ATOM     30  C   UNL     1       8.633  -3.582   8.591  0.00  0.00    +0.144 C 
ATOM     31 CL   UNL     1       7.971   2.468  10.261  0.00  0.00    -0.084 Cl
ATOM     32  H   UNL     1      10.633  -3.471   9.451  0.00  0.00    +0.160 HD
ENDBRANCH  21  22
ENDBRANCH  20  21
ENDBRANCH   3  20
TORSDOF 6
