REMARK  Name = ZINC09233772
REMARK  3 active torsions:
REMARK  status: ('A' for Active; 'I' for Inactive)
REMARK    1  A    between atoms: C_1  and  C_2
REMARK    2  A    between atoms: N_20  and  C_23
REMARK    3  A    between atoms: C_28  and  C_29
REMARK                            x       y       z     vdW  Elec       q    Type
REMARK                         _______ _______ _______ _____ _____    ______ ____
ROOT
ATOM      1  C   UNL     1       1.099  -3.000  -4.326  0.00  0.00    +0.044 C 
ATOM      2  C   UNL     1      -0.314  -3.390  -3.971  0.00  0.00    -0.050 A 
ATOM      3  C   UNL     1      -1.112  -4.026  -4.904  0.00  0.00    +0.005 A 
ATOM      4  C   UNL     1      -2.406  -4.384  -4.586  0.00  0.00    +0.024 A 
ATOM      5  C   UNL     1      -2.918  -4.108  -3.321  0.00  0.00    +0.036 A 
ATOM      6  C   UNL     1      -2.105  -3.468  -2.390  0.00  0.00    -0.027 A 
ATOM      7  C   UNL     1      -0.815  -3.111  -2.712  0.00  0.00    +0.008 A 
ATOM      8  C   UNL     1      -2.940  -3.318  -1.149  0.00  0.00    +0.053 C 
ATOM      9  C   UNL     1      -3.093  -1.845  -0.754  0.00  0.00    +0.089 C 
ATOM     10  C   UNL     1      -3.079  -1.850   0.799  0.00  0.00    +0.074 C 
ATOM     11  C   UNL     1      -2.920  -3.329   1.196  0.00  0.00    -0.054 C 
ATOM     12  C   UNL     1      -0.876  -3.647   0.068  0.00  0.00    -0.076 C 
ATOM     13  C   UNL     1      -0.521  -3.676   1.569  0.00  0.00    -0.020 C 
ATOM     14  C   UNL     1      -1.857  -3.449   2.303  0.00  0.00    -0.016 C 
ATOM     15  C   UNL     1      -1.812  -1.099   1.140  0.00  0.00    +0.228 C 
ATOM     16  O   UNL     1      -1.411  -0.874   2.261  0.00  0.00    -0.275 OA
ATOM     17  N   UNL     1      -1.202  -0.723   0.010  0.00  0.00    -0.210 N 
ATOM     18  C   UNL     1      -1.837  -1.083  -1.111  0.00  0.00    +0.229 C 
ATOM     19  O   UNL     1      -1.462  -0.839  -2.238  0.00  0.00    -0.275 OA
ATOM     20  C   UNL     1      -4.268  -3.935  -1.495  0.00  0.00    +0.212 C 
ATOM     21  O   UNL     1      -5.236  -4.025  -0.770  0.00  0.00    -0.277 OA
ATOM     22  N   UNL     1      -4.173  -4.368  -2.767  0.00  0.00    -0.286 N 
ATOM     23  H   UNL     1      -4.894  -4.809  -3.244  0.00  0.00    +0.155 HD
ATOM     24  N   UNL     1      -2.325  -3.938   0.029  0.00  0.00    +0.395 N 
ATOM     25  H   UNL     1      -2.484  -4.952   0.022  0.00  0.00    -0.079 HD
ENDROOT
BRANCH  17  26
ATOM     26  C   UNL     1       0.002  -0.004   0.002  0.00  0.00    +0.048 A 
ATOM     27  C   UNL     1       1.215  -0.679  -0.013  0.00  0.00    +0.024 A 
ATOM     28  C   UNL     1       2.400   0.031  -0.021  0.00  0.00    +0.003 A 
ATOM     29  C   UNL     1       2.379   1.413  -0.013  0.00  0.00    +0.020 A 
ATOM     30  C   UNL     1       1.172   2.090   0.002  0.00  0.00    +0.046 A 
ATOM     31  C   UNL     1      -0.017   1.384   0.010  0.00  0.00    -0.010 A 
ATOM     32  C   UNL     1      -1.331   2.120   0.020  0.00  0.00    +0.047 C 
ATOM     33 CL   UNL     1       1.150   3.825   0.011  0.00  0.00    -0.083 Cl
ENDBRANCH  17  26
TORSDOF 1
