REMARK  Name = ZINC09496128
REMARK  6 active torsions:
REMARK  status: ('A' for Active; 'I' for Inactive)
REMARK    1  A    between atoms: C_1  and  C_2
REMARK    2  A    between atoms: C_3  and  C_21
REMARK    3  A    between atoms: C_4  and  C_12
REMARK    4  A    between atoms: C_17  and  O_18
REMARK    5  A    between atoms: O_18  and  C_19
REMARK    6  A    between atoms: N_23  and  C_24
REMARK                            x       y       z     vdW  Elec       q    Type
REMARK                         _______ _______ _______ _____ _____    ______ ____
ROOT
ATOM      1  C   UNL     1      -0.350   0.920   2.152  0.00  0.00    +0.066 C 
ATOM      2  C   UNL     1      -0.185  -0.271   1.244  0.00  0.00    +0.052 C 
ATOM      3  C   UNL     1      -1.272  -0.738   0.560  0.00  0.00    +0.062 C 
ATOM      4  C   UNL     1      -1.059  -1.940  -0.343  0.00  0.00    +0.167 C 
ATOM      5  N   UNL     1       0.305  -2.479  -0.387  0.00  0.00    -0.208 N 
ATOM      6  C   UNL     1       1.281  -1.880   0.372  0.00  0.00    +0.237 C 
ATOM      7  N   UNL     1       1.010  -0.831   1.129  0.00  0.00    -0.218 NA
ATOM      8  N   UNL     1       2.422  -2.561   0.152  0.00  0.00    -0.205 NA
ATOM      9  C   UNL     1       2.213  -3.538  -0.691  0.00  0.00    +0.203 C 
ATOM     10  N   UNL     1       0.912  -3.539  -1.064  0.00  0.00    -0.251 N 
ATOM     11  H   UNL     1       0.485  -4.156  -1.679  0.00  0.00    +0.171 HD
ENDROOT
BRANCH   4  12
ATOM     12  C   UNL     1      -1.450  -1.550  -1.745  0.00  0.00    +0.022 A 
ATOM     13  C   UNL     1      -1.494  -0.216  -2.105  0.00  0.00    +0.024 A 
ATOM     14  C   UNL     1      -1.853   0.142  -3.392  0.00  0.00    +0.018 A 
ATOM     15  C   UNL     1      -2.170  -0.833  -4.321  0.00  0.00    +0.019 A 
ATOM     16  C   UNL     1      -2.127  -2.167  -3.965  0.00  0.00    +0.047 A 
ATOM     17  C   UNL     1      -1.762  -2.529  -2.677  0.00  0.00    +0.125 A 
ATOM     18 BR   UNL     1      -1.913   1.968  -3.881  0.00  0.00    -0.050 Br
BRANCH  17  19
ATOM     19  O   UNL     1      -1.715  -3.841  -2.326  0.00  0.00    -0.495 OA
ATOM     20  C   UNL     1      -1.939  -4.798  -3.364  0.00  0.00    +0.277 C 
ENDBRANCH  17  19
ENDBRANCH   4  12
BRANCH   3  21
ATOM     21  C   UNL     1      -2.535  -0.131   0.687  0.00  0.00    +0.248 C 
ATOM     22  O   UNL     1      -2.655   0.899   1.329  0.00  0.00    -0.270 OA
ATOM     23  N   UNL     1      -3.613  -0.687   0.099  0.00  0.00    -0.282 N 
ATOM     24  H   UNL     1      -3.539  -1.557  -0.323  0.00  0.00    +0.155 HD
BRANCH  23  25
ATOM     25  C   UNL     1      -4.837  -0.010   0.099  0.00  0.00    +0.034 A 
ATOM     26  C   UNL     1      -4.865   1.377   0.040  0.00  0.00    +0.025 A 
ATOM     27  C   UNL     1      -6.075   2.043   0.040  0.00  0.00    +0.022 A 
ATOM     28  C   UNL     1      -7.259   1.329   0.099  0.00  0.00    +0.041 A 
ATOM     29  C   UNL     1      -7.234  -0.054   0.157  0.00  0.00    +0.022 A 
ATOM     30  C   UNL     1      -6.027  -0.725   0.152  0.00  0.00    +0.025 A 
ATOM     31 CL   UNL     1      -8.778   2.169   0.099  0.00  0.00    -0.084 Cl
ENDBRANCH  23  25
ENDBRANCH   3  21
TORSDOF 4
