REMARK  Name = ZINC30943282
REMARK  10 active torsions:
REMARK  status: ('A' for Active; 'I' for Inactive)
REMARK    1  A    between atoms: C_1  and  C_2
REMARK    2  A    between atoms: C_2  and  C_3
REMARK    3  A    between atoms: C_2  and  C_4
REMARK    4  A    between atoms: C_2  and  C_5
REMARK    5  A    between atoms: N_11  and  S_34
REMARK    6  A    between atoms: C_13  and  C_16
REMARK    7  A    between atoms: N_18  and  C_19
REMARK    8  A    between atoms: C_24  and  C_25
REMARK    9  A    between atoms: C_25  and  C_27
REMARK   10  A    between atoms: S_34  and  C_37
REMARK                            x       y       z     vdW  Elec       q    Type
REMARK                         _______ _______ _______ _____ _____    ______ ____
ROOT
ATOM      1  C   UNL     1      -3.871   4.007  -0.175  0.00  0.00    +0.260 C 
ATOM      2  O   UNL     1      -3.860   5.110   0.330  0.00  0.00    -0.271 OA
ATOM      3  N   UNL     1      -5.043   3.425  -0.498  0.00  0.00    -0.282 N 
ATOM      4  H   UNL     1      -5.057   2.397  -0.889  0.00  0.00    +0.155 HD
ENDROOT
BRANCH   1  13
ATOM      5  C   UNL     1       2.316   2.503  -0.009  0.00  0.00    -0.040 A 
ATOM      6  C   UNL     1       2.150   3.867  -0.168  0.00  0.00    +0.008 A 
ATOM      7  C   UNL     1       0.882   4.415  -0.209  0.00  0.00    +0.048 A 
ATOM      8  C   UNL     1      -0.232   3.599  -0.090  0.00  0.00    +0.144 A 
ATOM      9  C   UNL     1      -0.063   2.225   0.061  0.00  0.00    +0.093 A 
ATOM     10  C   UNL     1       1.210   1.681   0.108  0.00  0.00    +0.032 A 
ATOM     11  N   UNL     1      -1.189   1.394   0.180  0.00  0.00    -0.200 N 
ATOM     12  C   UNL     1      -2.490   2.033   0.439  0.00  0.00    +0.185 C 
ATOM     13  C   UNL     1      -2.573   3.288  -0.442  0.00  0.00    +0.278 C 
ATOM     14  O   UNL     1      -1.476   4.147  -0.126  0.00  0.00    -0.476 OA
BRANCH   5  16
ATOM     15  C   UNL     1       3.865   0.908  -1.106  0.00  0.00    +0.015 C 
ATOM     16  C   UNL     1       3.701   1.913   0.036  0.00  0.00    -0.013 C 
ATOM     17  C   UNL     1       4.736   3.030  -0.115  0.00  0.00    +0.015 C 
ATOM     18  C   UNL     1       3.910   1.202   1.374  0.00  0.00    +0.015 C 
ENDBRANCH   5  16
BRANCH  11  19
ATOM     19  S   UNL     1      -1.057  -0.250   0.027  0.00  0.00    +0.043 S 
ATOM     20  O   UNL     1      -2.378  -0.695  -0.251  0.00  0.00    -0.155 OA
ATOM     21  O   UNL     1      -0.014  -0.444  -0.918  0.00  0.00    -0.155 OA
ATOM     22  C   UNL     1      -0.534  -0.831   1.663  0.00  0.00    +0.218 C 
ENDBRANCH  11  19
ENDBRANCH   1  13
BRANCH   3  23
ATOM     23  C   UNL     1      -6.236   4.125  -0.336  0.00  0.00    +0.044 A 
ATOM     24  C   UNL     1      -6.328   5.137   0.611  0.00  0.00    +0.025 A 
ATOM     25  C   UNL     1      -7.511   5.830   0.770  0.00  0.00    +0.022 A 
ATOM     26  C   UNL     1      -8.615   5.524  -0.013  0.00  0.00    +0.042 A 
ATOM     27  C   UNL     1      -8.542   4.522  -0.957  0.00  0.00    +0.033 A 
ATOM     28  C   UNL     1      -7.349   3.815  -1.133  0.00  0.00    +0.045 A 
ATOM     29 CL   UNL     1     -10.095   6.406   0.199  0.00  0.00    -0.084 Cl
BRANCH  28  30
ATOM     30  C   UNL     1      -7.262   2.748  -2.145  0.00  0.00    +0.195 C 
ATOM     31  O   UNL     1      -7.780   1.668  -1.936  0.00  0.00    -0.287 OA
BRANCH  30  32
ATOM     32  C   UNL     1      -6.545   2.990  -3.415  0.00  0.00    +0.022 A 
ATOM     33  C   UNL     1      -5.866   4.193  -3.618  0.00  0.00    +0.012 A 
ATOM     34  C   UNL     1      -5.193   4.410  -4.803  0.00  0.00    +0.001 A 
ATOM     35  C   UNL     1      -5.200   3.443  -5.793  0.00  0.00    +0.000 A 
ATOM     36  C   UNL     1      -5.875   2.251  -5.600  0.00  0.00    +0.001 A 
ATOM     37  C   UNL     1      -6.547   2.018  -4.418  0.00  0.00    +0.012 A 
ENDBRANCH  30  32
ENDBRANCH  28  30
ENDBRANCH   3  23
TORSDOF 6
