REMARK  Name = ZINC18939551
REMARK  11 active torsions:
REMARK  status: ('A' for Active; 'I' for Inactive)
REMARK    1  A    between atoms: C_2  and  C_3
REMARK    2  A    between atoms: C_3  and  N_49
REMARK    3  A    between atoms: C_4  and  C_5
REMARK    4  A    between atoms: C_4  and  N_49
REMARK    5  A    between atoms: C_11  and  C_12
REMARK    6  A    between atoms: C_11  and  N_49
REMARK    7  A    between atoms: N_14  and  C_15
REMARK    8  A    between atoms: C_15  and  C_16
REMARK    9  A    between atoms: C_16  and  C_17
REMARK   10  A    between atoms: C_20  and  S_23
REMARK   11  A    between atoms: S_23  and  N_26
REMARK                            x       y       z     vdW  Elec       q    Type
REMARK                         _______ _______ _______ _____ _____    ______ ____
ROOT
ATOM      1  C   UNL     1       6.143  -0.817  -3.047  0.00  0.00    +0.196 C 
ATOM      2  O   UNL     1       5.306  -0.516  -3.871  0.00  0.00    -0.278 OA
ATOM      3  N   UNL     1       7.422  -1.010  -3.426  0.00  0.00    -0.317 N 
ATOM      4  H   UNL     1       8.092  -1.251  -2.768  0.00  0.00    +0.149 HD
ENDROOT
BRANCH   1   5
ATOM      5  C   UNL     1       5.754  -0.975  -1.600  0.00  0.00    +0.019 C 
BRANCH   5   6
ATOM      6  N   UNL     1       4.334  -0.595  -1.446  0.00  0.00    +0.391 N 
ATOM      7  H   UNL     1       3.791  -1.021  -2.206  0.00  0.00    -0.080 HD
BRANCH   6   8
ATOM      8  C   UNL     1       4.194   0.875  -1.522  0.00  0.00    -0.051 C 
BRANCH   8  10
ATOM      9  C   UNL     1       5.842   2.442  -0.633  0.00  0.00    +0.002 C 
ATOM     10  C   UNL     1       4.930   1.535  -0.385  0.00  0.00    -0.053 C 
ENDBRANCH   8  10
ENDBRANCH   6   8
BRANCH   6  11
ATOM     11  C   UNL     1       3.817  -1.086  -0.152  0.00  0.00    -0.034 C 
BRANCH  11  12
ATOM     12  C   UNL     1       2.325  -0.881  -0.115  0.00  0.00    -0.025 A 
ATOM     13  C   UNL     1       1.339  -1.715  -0.528  0.00  0.00    +0.011 A 
ATOM     14  C   UNL     1       0.022  -1.313  -0.397  0.00  0.00    +0.028 A 
ATOM     15  C   UNL     1      -0.243  -0.097   0.141  0.00  0.00    +0.078 A 
ATOM     16  S   UNL     1       1.397   0.522   0.482  0.00  0.00    -0.084 S 
ATOM     17 CL   UNL     1      -1.778   0.664   0.419  0.00  0.00    -0.076 Cl
ENDBRANCH  11  12
ENDBRANCH   6  11
ENDBRANCH   5   6
ENDBRANCH   1   5
BRANCH   3  18
ATOM     18  C   UNL     1       7.801  -0.856  -4.833  0.00  0.00    +0.109 C 
BRANCH  18  19
ATOM     19  C   UNL     1       9.298  -1.129  -4.991  0.00  0.00    +0.054 C 
BRANCH  19  20
ATOM     20  C   UNL     1       9.687  -0.971  -6.439  0.00  0.00    -0.046 A 
ATOM     21  C   UNL     1       9.640  -2.059  -7.290  0.00  0.00    +0.005 A 
ATOM     22  C   UNL     1       9.993  -1.913  -8.619  0.00  0.00    +0.029 A 
ATOM     23  C   UNL     1      10.402  -0.681  -9.094  0.00  0.00    +0.105 A 
ATOM     24  C   UNL     1      10.454   0.406  -8.241  0.00  0.00    +0.029 A 
ATOM     25  C   UNL     1      10.097   0.261  -6.913  0.00  0.00    +0.005 A 
BRANCH  23  26
ATOM     26  S   UNL     1      10.855  -0.495 -10.786  0.00  0.00    +0.056 S 
ATOM     27  O   UNL     1      10.199  -1.535 -11.499  0.00  0.00    -0.153 OA
ATOM     28  O   UNL     1      10.678   0.878 -11.106  0.00  0.00    -0.153 OA
BRANCH  26  29
ATOM     29  N   UNL     1      12.479  -0.800 -10.894  0.00  0.00    -0.204 NA
ATOM     30  H   UNL     1      12.850  -1.175 -11.708  0.00  0.00    +0.144 HD
ATOM     31  H   UNL     1      13.061  -0.605 -10.142  0.00  0.00    +0.144 HD
ENDBRANCH  26  29
ENDBRANCH  23  26
ENDBRANCH  19  20
ENDBRANCH  18  19
ENDBRANCH   3  18
TORSDOF 11
