REMARK  Name = ZINC41760355
REMARK  6 active torsions:
REMARK  status: ('A' for Active; 'I' for Inactive)
REMARK    1  A    between atoms: C_1  and  C_2
REMARK    2  A    between atoms: C_2  and  C_3
REMARK    3  A    between atoms: C_2  and  C_11
REMARK    4  A    between atoms: C_2  and  N_14
REMARK    5  A    between atoms: N_14  and  C_15
REMARK    6  A    between atoms: C_15  and  C_16
REMARK                            x       y       z     vdW  Elec       q    Type
REMARK                         _______ _______ _______ _____ _____    ______ ____
ROOT
ATOM      1  C   UNL     1      -0.019   1.526   0.010  0.00  0.00    +0.045 C 
ATOM      2  C   UNL     1       0.002  -0.004   0.002  0.00  0.00    +0.144 C 
ENDROOT
BRANCH   2   3
ATOM      3  C   UNL     1       0.731  -0.503   1.223  0.00  0.00    -0.015 A 
ATOM      4  C   UNL     1       0.080  -1.317   2.132  0.00  0.00    +0.007 A 
ATOM      5  C   UNL     1       0.747  -1.775   3.252  0.00  0.00    +0.022 A 
ATOM      6  C   UNL     1       2.067  -1.420   3.464  0.00  0.00    +0.059 A 
ATOM      7  C   UNL     1       2.719  -0.606   2.554  0.00  0.00    +0.060 A 
ATOM      8  C   UNL     1       2.051  -0.152   1.431  0.00  0.00    +0.027 A 
ATOM      9 CL   UNL     1       4.376  -0.159   2.819  0.00  0.00    -0.082 Cl
ATOM     10 CL   UNL     1       2.905  -1.995   4.872  0.00  0.00    -0.082 Cl
ENDBRANCH   2   3
BRANCH   2  11
ATOM     11  C   UNL     1       0.707  -0.490  -1.238  0.00  0.00    +0.380 C 
ATOM     12  O   UNL     1       1.869  -0.179  -1.440  0.00  0.00    -0.244 OA
ATOM     13  O   UNL     1       0.117  -1.195  -2.039  0.00  0.00    -0.244 OA
ENDBRANCH   2  11
BRANCH   2  14
ATOM     14  N   UNL     1      -1.376  -0.512   0.012  0.00  0.00    -0.290 NA
ATOM     15  H   UNL     1      -1.389  -1.520   0.072  0.00  0.00    +0.124 HD
BRANCH  14  16
ATOM     16  C   UNL     1      -2.119  -0.045  -1.166  0.00  0.00    +0.178 C 
BRANCH  16  17
ATOM     17  C   UNL     1      -3.525  -0.586  -1.120  0.00  0.00    +0.224 C 
ATOM     18  O   UNL     1      -3.874  -1.291  -0.198  0.00  0.00    -0.275 OA
ATOM     19  N   UNL     1      -4.394  -0.285  -2.105  0.00  0.00    -0.328 N 
ATOM     20  H   UNL     1      -4.115   0.279  -2.844  0.00  0.00    +0.145 HD
ATOM     21  H   UNL     1      -5.299  -0.633  -2.076  0.00  0.00    +0.145 HD
ENDBRANCH  16  17
ENDBRANCH  14  16
ENDBRANCH   2  14
TORSDOF 5
