REMARK  Name = ZINC39653688
REMARK  8 active torsions:
REMARK  status: ('A' for Active; 'I' for Inactive)
REMARK    1  A    between atoms: C_1  and  C_2
REMARK    2  A    between atoms: C_2  and  O_3
REMARK    3  A    between atoms: O_3  and  C_4
REMARK    4  A    between atoms: C_7  and  C_10
REMARK    5  A    between atoms: C_10  and  C_11
REMARK    6  A    between atoms: C_11  and  N_12
REMARK    7  A    between atoms: C_13  and  C_15
REMARK    8  A    between atoms: C_26  and  C_28
REMARK                            x       y       z     vdW  Elec       q    Type
REMARK                         _______ _______ _______ _____ _____    ______ ____
ROOT
ATOM      1  C   UNL     1       3.578 -10.740   1.101  0.00  0.00    +0.100 C 
ATOM      2  C   UNL     1       2.308 -11.155   0.325  0.00  0.00    +0.121 C 
ATOM      3  N   UNL     1       2.787 -11.452  -1.046  0.00  0.00    -0.296 N 
ATOM      4  C   UNL     1       4.082 -12.143  -0.842  0.00  0.00    +0.115 C 
ATOM      5  C   UNL     1       4.740 -11.394   0.334  0.00  0.00    -0.004 C 
ATOM      6  C   UNL     1       5.483 -12.375   1.237  0.00  0.00    -0.010 C 
ATOM      7  C   UNL     1       6.669 -12.968   0.471  0.00  0.00    -0.082 C 
ATOM      8  N   UNL     1       7.567 -11.889   0.044  0.00  0.00    +0.379 N 
ATOM      9  C   UNL     1       6.872 -11.002  -0.897  0.00  0.00    -0.082 C 
ATOM     10  C   UNL     1       5.695 -10.326  -0.190  0.00  0.00    -0.010 C 
ATOM     11  C   UNL     1       2.181 -11.161  -2.214  0.00  0.00    +0.247 C 
ATOM     12  O   UNL     1       1.176 -10.477  -2.224  0.00  0.00    -0.270 OA
ATOM     13  H   UNL     1       7.860 -11.358   0.850  0.00  0.00    -0.086 HD
ATOM     14  H   UNL     1       8.378 -12.287  -0.407  0.00  0.00    -0.086 HD
ENDROOT
BRANCH  11  15
ATOM     15  C   UNL     1       2.738 -11.674  -3.483  0.00  0.00    +0.037 A 
ATOM     16  C   UNL     1       3.584 -12.797  -3.471  0.00  0.00    +0.013 A 
ATOM     17  C   UNL     1       4.109 -13.287  -4.623  0.00  0.00    +0.009 A 
ATOM     18  C   UNL     1       3.808 -12.669  -5.851  0.00  0.00    -0.018 A 
ATOM     19  C   UNL     1       4.339 -13.157  -7.057  0.00  0.00    +0.008 A 
ATOM     20  C   UNL     1       4.030 -12.539  -8.230  0.00  0.00    +0.001 A 
ATOM     21  C   UNL     1       3.194 -11.424  -8.255  0.00  0.00    +0.001 A 
ATOM     22  C   UNL     1       2.661 -10.922  -7.108  0.00  0.00    +0.008 A 
ATOM     23  C   UNL     1       2.957 -11.535  -5.877  0.00  0.00    -0.017 A 
ATOM     24  C   UNL     1       2.419 -11.047  -4.676  0.00  0.00    +0.021 A 
ENDBRANCH  11  15
BRANCH   1  26
ATOM     25  N   UNL     1       4.435  -8.633   2.073  0.00  0.00    -0.315 N 
ATOM     26  C   UNL     1       3.727  -9.240   1.100  0.00  0.00    +0.218 C 
ATOM     27  O   UNL     1       3.210  -8.580   0.224  0.00  0.00    -0.275 OA
ATOM     28  H   UNL     1       4.849  -9.161   2.773  0.00  0.00    +0.149 HD
BRANCH  25  29
ATOM     29  C   UNL     1       4.580  -7.175   2.072  0.00  0.00    +0.109 C 
BRANCH  29  30
ATOM     30  C   UNL     1       5.423  -6.746   3.275  0.00  0.00    +0.054 C 
BRANCH  30  34
ATOM     31  C   UNL     1       5.846  -2.494   3.273  0.00  0.00    +0.121 A 
ATOM     32  C   UNL     1       4.781  -3.086   3.937  0.00  0.00    +0.046 A 
ATOM     33  C   UNL     1       4.647  -4.461   3.935  0.00  0.00    +0.007 A 
ATOM     34  C   UNL     1       5.572  -5.247   3.274  0.00  0.00    -0.046 A 
ATOM     35  C   UNL     1       6.635  -4.659   2.612  0.00  0.00    +0.007 A 
ATOM     36  C   UNL     1       6.771  -3.284   2.606  0.00  0.00    +0.046 A 
BRANCH  31  37
ATOM     37  O   UNL     1       5.981  -1.141   3.273  0.00  0.00    -0.492 OA
BRANCH  37  39
ATOM     38  C   UNL     1       5.308   1.102   3.869  0.00  0.00    +0.048 C 
ATOM     39  C   UNL     1       4.992  -0.391   3.981  0.00  0.00    +0.225 C 
ENDBRANCH  37  39
ENDBRANCH  31  37
ENDBRANCH  30  34
ENDBRANCH  29  30
ENDBRANCH  25  29
ENDBRANCH   1  26
TORSDOF 7
