REMARK  Name = ZINC20076258
REMARK  8 active torsions:
REMARK  status: ('A' for Active; 'I' for Inactive)
REMARK    1  A    between atoms: C_1  and  O_2
REMARK    2  A    between atoms: O_2  and  C_3
REMARK    3  A    between atoms: C_3  and  C_5
REMARK    4  A    between atoms: C_6  and  N_36
REMARK    5  A    between atoms: N_7  and  C_26
REMARK    6  A    between atoms: C_10  and  C_12
REMARK    7  A    between atoms: C_29  and  S_32
REMARK    8  A    between atoms: S_32  and  N_35
REMARK                            x       y       z     vdW  Elec       q    Type
REMARK                         _______ _______ _______ _____ _____    ______ ____
ROOT
ATOM      1  C   UNL     1      -1.864   3.213   0.590  0.00  0.00    +0.084 C 
ATOM      2  C   UNL     1      -1.419   1.932   0.469  0.00  0.00    +0.103 C 
ATOM      3  N   UNL     1      -2.173   1.002  -0.206  0.00  0.00    -0.261 N 
ATOM      4  C   UNL     1      -3.143   1.399  -1.091  0.00  0.00    +0.024 C 
ATOM      5  C   UNL     1      -3.646   2.650  -1.044  0.00  0.00    +0.025 C 
ATOM      6  C   UNL     1      -3.174   3.638  -0.007  0.00  0.00    +0.094 C 
ATOM      7  C   UNL     1      -4.628   3.071  -1.958  0.00  0.00    +0.162 C 
ATOM      8  O   UNL     1      -5.067   4.202  -1.883  0.00  0.00    -0.292 OA
ATOM      9  C   UNL     1      -5.146   2.148  -3.027  0.00  0.00    +0.080 C 
ATOM     10  C   UNL     1      -4.053   1.137  -3.386  0.00  0.00    +0.014 C 
ATOM     11  C   UNL     1      -3.634   0.402  -2.111  0.00  0.00    +0.052 C 
ENDROOT
BRANCH   6  12
ATOM     12  C   UNL     1      -4.203   3.733   1.089  0.00  0.00    -0.031 A 
ATOM     13  C   UNL     1      -4.540   2.609   1.819  0.00  0.00    +0.008 A 
ATOM     14  C   UNL     1      -5.484   2.692   2.826  0.00  0.00    +0.050 A 
ATOM     15  C   UNL     1      -6.094   3.904   3.107  0.00  0.00    +0.166 A 
ATOM     16  C   UNL     1      -5.754   5.037   2.371  0.00  0.00    +0.167 A 
ATOM     17  C   UNL     1      -4.804   4.947   1.367  0.00  0.00    +0.054 A 
ATOM     18  O   UNL     1      -6.485   6.092   2.834  0.00  0.00    -0.453 OA
ATOM     19  C   UNL     1      -6.973   5.685   4.126  0.00  0.00    +0.466 C 
ATOM     20  O   UNL     1      -7.037   4.250   4.030  0.00  0.00    -0.453 OA
ENDBRANCH   6  12
BRANCH   3  21
ATOM     21  C   UNL     1      -1.949  -0.363   0.011  0.00  0.00    +0.040 A 
ATOM     22  C   UNL     1      -2.625  -1.026   1.026  0.00  0.00    +0.026 A 
ATOM     23  C   UNL     1      -2.407  -2.374   1.234  0.00  0.00    +0.030 A 
ATOM     24  C   UNL     1      -1.507  -3.060   0.440  0.00  0.00    +0.105 A 
ATOM     25  C   UNL     1      -0.827  -2.401  -0.569  0.00  0.00    +0.030 A 
ATOM     26  C   UNL     1      -1.046  -1.055  -0.785  0.00  0.00    +0.026 A 
BRANCH  24  27
ATOM     27  S   UNL     1      -1.225  -4.778   0.713  0.00  0.00    +0.056 S 
ATOM     28  O   UNL     1      -2.385  -5.282   1.359  0.00  0.00    -0.153 OA
ATOM     29  O   UNL     1      -0.744  -5.311  -0.514  0.00  0.00    -0.153 OA
BRANCH  27  30
ATOM     30  N   UNL     1       0.016  -4.903   1.802  0.00  0.00    -0.204 NA
ATOM     31  H   UNL     1       0.224  -5.965   2.001  0.00  0.00    +0.144 HD
ATOM     32  H   UNL     1      -0.268  -4.404   2.740  0.00  0.00    +0.144 HD
ENDBRANCH  27  30
ENDBRANCH  24  27
ENDBRANCH   3  21
BRANCH   2  33
ATOM     33  N   UNL     1      -0.221   1.568   1.025  0.00  0.00    -0.346 N 
ATOM     34  H   UNL     1       0.139   0.533   0.927  0.00  0.00    +0.143 HD
ATOM     35  H   UNL     1       0.381   2.310   1.570  0.00  0.00    +0.143 HD
ENDBRANCH   2  33
BRANCH   1  36
ATOM     36  C   UNL     1      -1.084   4.151   1.281  0.00  0.00    +0.339 C 
ATOM     37  O   UNL     1      -0.073   3.795   1.860  0.00  0.00    -0.245 OA
BRANCH  36  39
ATOM     38  C   UNL     1      -0.612   6.351   2.027  0.00  0.00    +0.280 C 
ATOM     39  O   UNL     1      -1.454   5.450   1.305  0.00  0.00    -0.465 OA
ENDBRANCH  36  39
ENDBRANCH   1  36
TORSDOF 7
