REMARK  Name = ZINC35855624
REMARK  7 active torsions:
REMARK  status: ('A' for Active; 'I' for Inactive)
REMARK    1  A    between atoms: C_1  and  O_2
REMARK    2  A    between atoms: O_2  and  C_3
REMARK    3  A    between atoms: C_5  and  N_36
REMARK    4  A    between atoms: C_8  and  N_9
REMARK    5  A    between atoms: C_14  and  C_31
REMARK    6  A    between atoms: C_31  and  C_32
REMARK    7  A    between atoms: C_32  and  C_33
REMARK                            x       y       z     vdW  Elec       q    Type
REMARK                         _______ _______ _______ _____ _____    ______ ____
ROOT
ATOM      1  N   UNL     1      -0.075  -2.795  -0.233  0.00  0.00    -0.206 N 
ATOM      2  C   UNL     1       0.548  -3.194   0.882  0.00  0.00    +0.232 C 
ATOM      3  O   UNL     1       0.177  -2.960   2.012  0.00  0.00    -0.274 OA
ATOM      4  C   UNL     1       1.784  -3.982   0.513  0.00  0.00    +0.107 C 
ATOM      5  C   UNL     1       3.037  -3.173   0.911  0.00  0.00    +0.068 C 
ATOM      6  N   UNL     1       3.938  -3.262  -0.269  0.00  0.00    -0.295 NA
ATOM      7  C   UNL     1       3.028  -3.168  -1.426  0.00  0.00    +0.136 C 
ATOM      8  C   UNL     1       1.763  -3.975  -1.040  0.00  0.00    +0.123 C 
ATOM      9  C   UNL     1       0.519  -3.181  -1.369  0.00  0.00    +0.233 C 
ATOM     10  O   UNL     1       0.122  -2.931  -2.487  0.00  0.00    -0.274 OA
ATOM     11  C   UNL     1       2.702  -1.739  -1.757  0.00  0.00    +0.003 A 
ATOM     12  C   UNL     1       2.117  -0.712  -1.051  0.00  0.00    +0.008 A 
ATOM     13  C   UNL     1       1.950   0.528  -1.643  0.00  0.00    +0.000 A 
ATOM     14  C   UNL     1       2.371   0.732  -2.944  0.00  0.00    +0.002 A 
ATOM     15  C   UNL     1       2.957  -0.295  -3.656  0.00  0.00    +0.023 A 
ATOM     16  C   UNL     1       3.130  -1.546  -3.067  0.00  0.00    +0.039 A 
ATOM     17  N   UNL     1       3.687  -2.722  -3.573  0.00  0.00    -0.283 N 
ATOM     18  C   UNL     1       3.665  -3.723  -2.671  0.00  0.00    +0.243 C 
ATOM     19  O   UNL     1       4.079  -4.851  -2.832  0.00  0.00    -0.273 OA
ATOM     20  H   UNL     1       4.605  -2.505  -0.272  0.00  0.00    +0.123 HD
ATOM     21  H   UNL     1       4.046  -2.809  -4.469  0.00  0.00    +0.155 HD
ENDROOT
BRANCH   1  27
ATOM     22  C   UNL     1      -2.492  -2.672  -0.330  0.00  0.00    +0.144 A 
ATOM     23  C   UNL     1      -3.657  -1.922  -0.303  0.00  0.00    +0.080 A 
ATOM     24  C   UNL     1      -3.591  -0.548  -0.169  0.00  0.00    +0.130 A 
ATOM     25  C   UNL     1      -2.364   0.082  -0.061  0.00  0.00    +0.035 A 
ATOM     26  C   UNL     1      -1.198  -0.660  -0.086  0.00  0.00    +0.030 A 
ATOM     27  C   UNL     1      -1.257  -2.040  -0.214  0.00  0.00    +0.086 A 
BRANCH  24  28
ATOM     28  N   UNL     1      -4.836   0.252  -0.142  0.00  0.00    +0.057 N 
ATOM     29  O   UNL     1      -5.909  -0.296  -0.237  0.00  0.00    -0.126 OA
ATOM     30  O   UNL     1      -4.780   1.454  -0.025  0.00  0.00    -0.126 OA
ENDBRANCH  24  28
BRANCH  22  32
ATOM     31  C   UNL     1      -3.846  -4.594  -0.691  0.00  0.00    +0.277 C 
ATOM     32  O   UNL     1      -2.556  -4.024  -0.462  0.00  0.00    -0.493 OA
ENDBRANCH  22  32
ENDBRANCH   1  27
BRANCH   5  33
ATOM     33  C   UNL     1       3.704  -3.794   2.140  0.00  0.00    +0.028 C 
BRANCH  33  34
ATOM     34  C   UNL     1       4.868  -2.909   2.590  0.00  0.00    +0.097 C 
BRANCH  34  35
ATOM     35  C   UNL     1       5.525  -3.521   3.801  0.00  0.00    +0.211 C 
ATOM     36  O   UNL     1       5.104  -4.562   4.258  0.00  0.00    -0.276 OA
ATOM     37  N   UNL     1       6.581  -2.910   4.375  0.00  0.00    -0.329 N 
ATOM     38  H   UNL     1       6.918  -2.078   4.009  0.00  0.00    +0.145 HD
ATOM     39  H   UNL     1       7.003  -3.304   5.155  0.00  0.00    +0.145 HD
ENDBRANCH  34  35
ENDBRANCH  33  34
ENDBRANCH   5  33
TORSDOF 6
