REMARK  Name = ZINC05673443
REMARK  6 active torsions:
REMARK  status: ('A' for Active; 'I' for Inactive)
REMARK    1  A    between atoms: C_1  and  C_2
REMARK    2  A    between atoms: C_2  and  O_3
REMARK    3  A    between atoms: O_3  and  C_4
REMARK    4  A    between atoms: C_9  and  N_10
REMARK    5  A    between atoms: C_11  and  O_33
REMARK    6  A    between atoms: C_12  and  C_19
REMARK                            x       y       z     vdW  Elec       q    Type
REMARK                         _______ _______ _______ _____ _____    ______ ____
ROOT
ATOM      1  N   UNL     1       3.733   1.257  -0.128  0.00  0.00    -0.229 N 
ATOM      2  C   UNL     1       2.455   0.756  -0.114  0.00  0.00    +0.209 A 
ATOM      3  C   UNL     1       1.400   1.611  -0.003  0.00  0.00    +0.069 A 
ATOM      4  C   UNL     1       1.648   2.991   0.108  0.00  0.00    +0.260 A 
ATOM      5  O   UNL     1       0.720   3.775   0.214  0.00  0.00    -0.267 OA
ATOM      6  N   UNL     1       2.918   3.442   0.096  0.00  0.00    -0.274 N 
ATOM      7  H   UNL     1       3.098   4.422   0.175  0.00  0.00    +0.173 HD
ATOM      8  C   UNL     1       3.946   2.582  -0.020  0.00  0.00    +0.337 A 
ATOM      9  O   UNL     1       5.085   3.008  -0.029  0.00  0.00    -0.246 OA
ENDROOT
BRANCH   3  10
ATOM     10  C   UNL     1      -0.013   1.086   0.008  0.00  0.00    +0.018 C 
ATOM     11  C   UNL     1      -0.751   1.590  -1.209  0.00  0.00    +0.011 A 
ATOM     12  C   UNL     1      -2.023   2.059  -1.153  0.00  0.00    -0.022 A 
ATOM     13  C   UNL     1      -2.391   2.449  -2.496  0.00  0.00    +0.003 A 
ATOM     14  C   UNL     1      -3.558   2.994  -3.042  0.00  0.00    +0.010 A 
ATOM     15  C   UNL     1      -3.554   3.243  -4.392  0.00  0.00    +0.001 A 
ATOM     16  C   UNL     1      -2.452   2.973  -5.188  0.00  0.00    +0.002 A 
ATOM     17  C   UNL     1      -1.285   2.435  -4.674  0.00  0.00    +0.026 A 
ATOM     18  C   UNL     1      -1.260   2.171  -3.307  0.00  0.00    +0.047 A 
ATOM     19  N   UNL     1      -0.293   1.652  -2.493  0.00  0.00    -0.359 N 
ATOM     20  H   UNL     1       0.589   1.371  -2.783  0.00  0.00    +0.166 HD
ATOM     21  C   UNL     1      -2.832   2.127   0.118  0.00  0.00    +0.018 C 
ATOM     22  C   UNL     1      -2.143   1.243   1.167  0.00  0.00    -0.076 C 
ATOM     23  N   UNL     1      -0.704   1.571   1.223  0.00  0.00    +0.388 N 
ATOM     24  H   UNL     1      -0.592   2.589   1.291  0.00  0.00    -0.084 HD
ATOM     25  H   UNL     1      -0.288   1.125   2.049  0.00  0.00    -0.084 HD
ENDBRANCH   3  10
BRANCH   1  31
ATOM     26  C   UNL     1       5.319   0.053  -1.507  0.00  0.00    +0.144 A 
ATOM     27  C   UNL     1       6.396  -0.810  -1.620  0.00  0.00    +0.048 A 
ATOM     28  C   UNL     1       6.978  -1.342  -0.484  0.00  0.00    +0.004 A 
ATOM     29  C   UNL     1       6.487  -1.015   0.766  0.00  0.00    +0.002 A 
ATOM     30  C   UNL     1       5.415  -0.150   0.887  0.00  0.00    +0.030 A 
ATOM     31  C   UNL     1       4.824   0.383  -0.248  0.00  0.00    +0.096 A 
BRANCH  26  32
ATOM     32  O   UNL     1       4.746   0.578  -2.623  0.00  0.00    -0.490 OA
BRANCH  32  34
ATOM     33  C   UNL     1       4.536   0.880  -5.012  0.00  0.00    +0.048 C 
ATOM     34  C   UNL     1       5.306   0.195  -3.881  0.00  0.00    +0.226 C 
ENDBRANCH  32  34
ENDBRANCH  26  32
ENDBRANCH   1  31
BRANCH   2  35
ATOM     35  O   UNL     1       2.245  -0.574  -0.216  0.00  0.00    -0.493 OA
ATOM     36  H   UNL     1       3.055  -1.096  -0.290  0.00  0.00    +0.294 HD
ENDBRANCH   2  35
TORSDOF 5
