REMARK  Name = ZINC39012515
REMARK  8 active torsions:
REMARK  status: ('A' for Active; 'I' for Inactive)
REMARK    1  A    between atoms: C_1  and  C_2
REMARK    2  A    between atoms: C_5  and  C_9
REMARK    3  A    between atoms: C_6  and  O_8
REMARK    4  A    between atoms: C_12  and  C_14
REMARK    5  A    between atoms: N_16  and  C_17
REMARK    6  A    between atoms: C_19  and  C_29
REMARK    7  A    between atoms: N_31  and  C_32
REMARK    8  A    between atoms: C_32  and  C_33
REMARK                            x       y       z     vdW  Elec       q    Type
REMARK                         _______ _______ _______ _____ _____    ______ ____
ROOT
ATOM      1  C   UNL     1      -0.110  -8.085  -1.812  0.00  0.00    +0.261 C 
ATOM      2  O   UNL     1      -0.074  -8.342  -3.001  0.00  0.00    -0.269 OA
ATOM      3  N   UNL     1      -0.036  -9.079  -0.905  0.00  0.00    -0.298 N 
ATOM      4  H   UNL     1      -0.064  -8.875   0.043  0.00  0.00    +0.150 HD
ENDROOT
BRANCH   3   5
ATOM      5  C   UNL     1       0.086 -10.470  -1.351  0.00  0.00    +0.144 C 
ATOM      6  C   UNL     1       1.110 -11.238  -0.487  0.00  0.00    +0.109 C 
ATOM      7  C   UNL     1       0.763 -12.723  -0.419  0.00  0.00    +0.016 C 
ATOM      8  C   UNL     1       1.185 -13.396  -1.749  0.00  0.00    +0.005 C 
ATOM      9  C   UNL     1       0.251 -14.625  -1.841  0.00  0.00    +0.001 C 
ATOM     10  C   UNL     1      -1.095 -14.118  -1.283  0.00  0.00    +0.014 C 
ATOM     11  C   UNL     1      -0.765 -12.953  -0.321  0.00  0.00    +0.052 C 
ATOM     12  S   UNL     1      -1.465 -11.402  -1.027  0.00  0.00    -0.134 S 
BRANCH   6  13
ATOM     13  C   UNL     1       2.482 -11.079  -1.088  0.00  0.00    +0.219 C 
ATOM     14  O   UNL     1       2.603 -10.840  -2.271  0.00  0.00    -0.275 OA
ATOM     15  N   UNL     1       3.577 -11.202  -0.311  0.00  0.00    -0.308 N 
ATOM     16  H   UNL     1       3.481 -11.394   0.635  0.00  0.00    +0.149 HD
BRANCH  15  17
ATOM     17  C   UNL     1       4.911 -11.048  -0.895  0.00  0.00    +0.178 C 
BRANCH  17  18
ATOM     18  C   UNL     1       5.954 -11.232   0.178  0.00  0.00    +0.122 A 
ATOM     19  C   UNL     1       6.532 -12.397   0.521  0.00  0.00    +0.046 A 
ATOM     20  C   UNL     1       7.442 -12.110   1.564  0.00  0.00    +0.041 A 
ATOM     21  C   UNL     1       7.366 -10.787   1.796  0.00  0.00    +0.195 A 
ATOM     22  O   UNL     1       6.466 -10.260   0.950  0.00  0.00    -0.466 OA
ENDBRANCH  17  18
ENDBRANCH  15  17
ENDBRANCH   6  13
ENDBRANCH   3   5
BRANCH   1  26
ATOM     23  C   UNL     1      -0.431  -4.355  -1.184  0.00  0.00    +0.080 C 
ATOM     24  N   UNL     1      -0.390  -4.988  -0.033  0.00  0.00    -0.153 NA
ATOM     25  N   UNL     1      -0.282  -6.254  -0.136  0.00  0.00    -0.148 NA
ATOM     26  C   UNL     1      -0.232  -6.694  -1.366  0.00  0.00    +0.131 C 
ATOM     27  C   UNL     1      -0.333  -5.450  -2.233  0.00  0.00    +0.120 C 
BRANCH  23  32
ATOM     28  C   UNL     1      -0.903   1.304  -2.064  0.00  0.00    +0.044 C 
ATOM     29  C   UNL     1      -0.779  -0.179  -1.829  0.00  0.00    -0.047 A 
ATOM     30  C   UNL     1      -0.699  -1.043  -2.911  0.00  0.00    +0.004 A 
ATOM     31  C   UNL     1      -0.586  -2.400  -2.711  0.00  0.00    +0.013 A 
ATOM     32  C   UNL     1      -0.551  -2.912  -1.406  0.00  0.00    +0.040 A 
ATOM     33  C   UNL     1      -0.631  -2.031  -0.313  0.00  0.00    +0.126 A 
ATOM     34  C   UNL     1      -0.740  -0.668  -0.538  0.00  0.00    +0.049 A 
BRANCH  33  35
ATOM     35  O   UNL     1      -0.598  -2.512   0.955  0.00  0.00    -0.506 OA
ATOM     36  H   UNL     1       0.291  -2.578   1.327  0.00  0.00    +0.292 HD
ENDBRANCH  33  35
ENDBRANCH  23  32
ENDBRANCH   1  26
TORSDOF 7
