REMARK  Name = ZINC39656947
REMARK  8 active torsions:
REMARK  status: ('A' for Active; 'I' for Inactive)
REMARK    1  A    between atoms: C_1  and  C_2
REMARK    2  A    between atoms: C_2  and  C_4
REMARK    3  A    between atoms: C_2  and  N_11
REMARK    4  A    between atoms: C_12  and  C_14
REMARK    5  A    between atoms: C_25  and  C_27
REMARK    6  A    between atoms: C_27  and  C_29
REMARK    7  A    between atoms: C_27  and  O_30
REMARK    8  A    between atoms: O_30  and  C_31
REMARK                            x       y       z     vdW  Elec       q    Type
REMARK                         _______ _______ _______ _____ _____    ______ ____
ROOT
ATOM      1  C   UNL     1      -3.443  -1.182   1.152  0.00  0.00    +0.100 C 
ATOM      2  C   UNL     1      -3.495  -2.581   0.498  0.00  0.00    +0.121 C 
ATOM      3  N   UNL     1      -3.399  -3.528   1.634  0.00  0.00    -0.297 N 
ATOM      4  C   UNL     1      -4.224  -2.911   2.700  0.00  0.00    +0.115 C 
ATOM      5  C   UNL     1      -3.926  -1.402   2.596  0.00  0.00    -0.004 C 
ATOM      6  C   UNL     1      -5.193  -0.594   2.859  0.00  0.00    -0.010 C 
ATOM      7  C   UNL     1      -5.620  -0.783   4.317  0.00  0.00    -0.082 C 
ATOM      8  N   UNL     1      -4.540  -0.341   5.207  0.00  0.00    +0.379 N 
ATOM      9  C   UNL     1      -3.354  -1.184   5.013  0.00  0.00    -0.082 C 
ATOM     10  C   UNL     1      -2.831  -1.012   3.584  0.00  0.00    -0.010 C 
ATOM     11  C   UNL     1      -2.716  -4.689   1.685  0.00  0.00    +0.256 C 
ATOM     12  O   UNL     1      -2.006  -5.017   0.759  0.00  0.00    -0.272 OA
ATOM     13  H   UNL     1      -4.306   0.619   4.998  0.00  0.00    -0.086 HD
ATOM     14  H   UNL     1      -4.846  -0.409   6.165  0.00  0.00    -0.086 HD
ENDROOT
BRANCH   1  16
ATOM     15  N   UNL     1      -1.813   0.676   1.077  0.00  0.00    -0.308 N 
ATOM     16  C   UNL     1      -2.033  -0.651   1.145  0.00  0.00    +0.219 C 
ATOM     17  O   UNL     1      -1.096  -1.419   1.202  0.00  0.00    -0.275 OA
ATOM     18  H   UNL     1      -2.562   1.291   1.032  0.00  0.00    +0.149 HD
BRANCH  15  20
ATOM     19  C   UNL     1       0.058   1.332   2.510  0.00  0.00    +0.033 C 
ATOM     20  C   UNL     1      -0.441   1.192   1.070  0.00  0.00    +0.100 C 
BRANCH  20  21
ATOM     21  C   UNL     1      -0.415   2.540   0.396  0.00  0.00    -0.027 A 
ATOM     22  C   UNL     1      -1.429   3.449   0.629  0.00  0.00    +0.006 A 
ATOM     23  C   UNL     1      -1.405   4.685   0.011  0.00  0.00    +0.015 A 
ATOM     24  C   UNL     1      -0.365   5.012  -0.840  0.00  0.00    +0.018 A 
ATOM     25  C   UNL     1       0.650   4.102  -1.073  0.00  0.00    +0.015 A 
ATOM     26  C   UNL     1       0.628   2.868  -0.450  0.00  0.00    +0.006 A 
ATOM     27 BR   UNL     1      -0.332   6.703  -1.686  0.00  0.00    -0.050 Br
ENDBRANCH  20  21
ENDBRANCH  15  20
ENDBRANCH   1  16
BRANCH  11  28
ATOM     28  C   UNL     1      -2.835  -5.580   2.895  0.00  0.00    +0.256 C 
ATOM     29  C   UNL     1      -4.244  -6.175   2.954  0.00  0.00    +0.062 C 
BRANCH  28  30
ATOM     30  O   UNL     1      -1.876  -6.636   2.805  0.00  0.00    -0.480 OA
BRANCH  30  31
ATOM     31  C   UNL     1      -1.474  -7.205   3.972  0.00  0.00    +0.122 A 
ATOM     32  C   UNL     1      -0.456  -8.148   3.971  0.00  0.00    +0.045 A 
ATOM     33  C   UNL     1      -0.049  -8.725   5.158  0.00  0.00    +0.004 A 
ATOM     34  C   UNL     1      -0.654  -8.363   6.347  0.00  0.00    +0.000 A 
ATOM     35  C   UNL     1      -1.669  -7.423   6.351  0.00  0.00    +0.004 A 
ATOM     36  C   UNL     1      -2.076  -6.840   5.167  0.00  0.00    +0.045 A 
ENDBRANCH  30  31
ENDBRANCH  28  30
ENDBRANCH  11  28
TORSDOF 6
