REMARK  Name = ZINC20684127
REMARK  3 active torsions:
REMARK  status: ('A' for Active; 'I' for Inactive)
REMARK    1  A    between atoms: C_1  and  C_2
REMARK    2  A    between atoms: C_2  and  N_3
REMARK    3  A    between atoms: C_14  and  C_16
REMARK                            x       y       z     vdW  Elec       q    Type
REMARK                         _______ _______ _______ _____ _____    ______ ____
ROOT
ATOM      1  N   UNL     1       6.862  -3.210  -1.907  0.00  0.00    -0.340 N 
ATOM      2  C   UNL     1       7.527  -3.114  -0.698  0.00  0.00    +0.050 A 
ATOM      3  C   UNL     1       8.855  -3.327  -0.339  0.00  0.00    +0.026 A 
ATOM      4  C   UNL     1       9.252  -3.155   0.970  0.00  0.00    +0.002 A 
ATOM      5  C   UNL     1       8.339  -2.767   1.939  0.00  0.00    +0.001 A 
ATOM      6  C   UNL     1       7.020  -2.551   1.603  0.00  0.00    +0.010 A 
ATOM      7  C   UNL     1       6.605  -2.722   0.284  0.00  0.00    +0.008 A 
ATOM      8  C   UNL     1       5.305  -2.578  -0.397  0.00  0.00    +0.008 A 
ATOM      9  C   UNL     1       5.526  -2.891  -1.746  0.00  0.00    +0.050 A 
ATOM     10  C   UNL     1       4.461  -2.840  -2.640  0.00  0.00    +0.027 A 
ATOM     11  C   UNL     1       3.205  -2.484  -2.197  0.00  0.00    +0.007 A 
ATOM     12  C   UNL     1       2.989  -2.174  -0.863  0.00  0.00    -0.026 A 
ATOM     13  C   UNL     1       4.033  -2.214   0.036  0.00  0.00    +0.016 A 
ENDROOT
BRANCH  12  14
ATOM     14  C   UNL     1       1.609  -1.787  -0.396  0.00  0.00    +0.105 C 
ATOM     15  C   UNL     1       1.339  -0.335  -0.732  0.00  0.00    +0.029 C 
ATOM     16  C   UNL     1       2.203   0.734  -0.053  0.00  0.00    +0.033 C 
ATOM     17  C   UNL     1       1.236   1.919   0.001  0.00  0.00    -0.030 C 
ATOM     18  C   UNL     1      -0.018   1.479   0.010  0.00  0.00    -0.023 C 
ATOM     19  C   UNL     1       0.002  -0.004   0.002  0.00  0.00    +0.049 C 
ATOM     20  C   UNL     1      -1.041  -0.813  -0.666  0.00  0.00    -0.018 A 
ATOM     21  C   UNL     1      -2.350  -0.361  -0.758  0.00  0.00    +0.006 A 
ATOM     22  C   UNL     1      -3.318  -1.144  -1.357  0.00  0.00    +0.002 A 
ATOM     23  C   UNL     1      -2.981  -2.392  -1.848  0.00  0.00    +0.022 A 
ATOM     24  C   UNL     1      -1.685  -2.850  -1.748  0.00  0.00    +0.062 A 
ATOM     25  C   UNL     1      -0.694  -2.067  -1.151  0.00  0.00    +0.050 A 
ATOM     26  N   UNL     1       0.597  -2.590  -1.101  0.00  0.00    -0.335 N 
ATOM     27 CL   UNL     1      -1.280  -4.419  -2.370  0.00  0.00    -0.082 Cl
ATOM     28  H   UNL     1       0.877  -3.551  -1.556  0.00  0.00    +0.147 HD
ENDBRANCH  12  14
BRANCH   1  30
ATOM     29  C   UNL     1       7.998  -2.343  -3.892  0.00  0.00    +0.027 C 
ATOM     30  C   UNL     1       7.485  -3.594  -3.176  0.00  0.00    +0.119 C 
ENDBRANCH   1  30
TORSDOF 2
