REMARK  Name = ZINC04556147
REMARK  7 active torsions:
REMARK  status: ('A' for Active; 'I' for Inactive)
REMARK    1  A    between atoms: C_1  and  C_2
REMARK    2  A    between atoms: C_2  and  N_47
REMARK    3  A    between atoms: C_10  and  O_26
REMARK    4  A    between atoms: C_12  and  C_15
REMARK    5  A    between atoms: C_18  and  O_24
REMARK    6  A    between atoms: C_19  and  N_21
REMARK    7  A    between atoms: O_24  and  C_25
REMARK                            x       y       z     vdW  Elec       q    Type
REMARK                         _______ _______ _______ _____ _____    ______ ____
ROOT
ATOM      1  C   UNL     1       3.391   1.307   6.515  0.00  0.00    -0.074 C 
ATOM      2  C   UNL     1       3.939   1.517   5.101  0.00  0.00    +0.018 C 
ATOM      3  C   UNL     1       3.202   0.572   4.159  0.00  0.00    -0.027 A 
ATOM      4  C   UNL     1       2.521  -0.487   4.660  0.00  0.00    -0.021 A 
ATOM      5  S   UNL     1       1.831  -1.296   3.243  0.00  0.00    -0.080 S 
ATOM      6  C   UNL     1       2.436  -0.259   2.024  0.00  0.00    +0.080 A 
ATOM      7  C   UNL     1       3.165   0.717   2.716  0.00  0.00    +0.067 A 
ATOM      8  C   UNL     1       3.812   1.782   1.909  0.00  0.00    +0.220 C 
ATOM      9  N   UNL     1       3.501   1.861   0.646  0.00  0.00    -0.223 NA
ATOM     10  C   UNL     1       2.490   1.045  -0.015  0.00  0.00    +0.224 C 
ATOM     11  N   UNL     1       2.318  -0.257   0.655  0.00  0.00    -0.313 N 
ATOM     12  C   UNL     1       2.399  -0.864   6.103  0.00  0.00    -0.035 C 
ATOM     13  H   UNL     1       2.132  -1.068   0.156  0.00  0.00    +0.149 HD
ATOM     14  N   UNL     1       3.446  -0.130   6.854  0.00  0.00    +0.383 N 
ATOM     15  H   UNL     1       4.367  -0.500   6.593  0.00  0.00    -0.081 HD
ENDROOT
BRANCH  10  16
ATOM     16  C   UNL     1       1.176   1.783   0.000  0.00  0.00    -0.003 A 
ATOM     17  C   UNL     1      -0.013   1.076   0.008  0.00  0.00    +0.011 A 
ATOM     18  C   UNL     1      -1.218   1.750   0.017  0.00  0.00    +0.048 A 
ATOM     19  C   UNL     1      -1.236   3.137   0.030  0.00  0.00    +0.150 A 
ATOM     20  C   UNL     1      -0.043   3.844   0.022  0.00  0.00    +0.168 A 
ATOM     21  C   UNL     1       1.160   3.165   0.007  0.00  0.00    +0.043 A 
BRANCH  20  22
ATOM     22  N   UNL     1      -0.059   5.324   0.029  0.00  0.00    +0.060 N 
ATOM     23  O   UNL     1       0.990   5.944   0.022  0.00  0.00    -0.126 OA
ATOM     24  O   UNL     1      -1.120   5.921   0.042  0.00  0.00    -0.126 OA
ENDBRANCH  20  22
BRANCH  19  25
ATOM     25  O   UNL     1      -2.421   3.802   0.044  0.00  0.00    -0.493 OA
ATOM     26  C   UNL     1      -3.610   3.009   0.051  0.00  0.00    +0.277 C 
ENDBRANCH  19  25
ENDBRANCH  10  16
BRANCH  14  28
ATOM     27  C   UNL     1       3.523  -1.778   8.663  0.00  0.00    -0.017 C 
ATOM     28  C   UNL     1       3.249  -0.315   8.308  0.00  0.00    -0.082 C 
ENDBRANCH  14  28
BRANCH   8  29
ATOM     29  O   UNL     1       4.696   2.643   2.466  0.00  0.00    -0.492 OA
ATOM     30  H   UNL     1       5.054   3.294   1.848  0.00  0.00    +0.294 HD
ENDBRANCH   8  29
TORSDOF 5
