REMARK  Name = ZINC38679399
REMARK  16 active torsions:
REMARK  status: ('A' for Active; 'I' for Inactive)
REMARK    1  A    between atoms: C_1  and  C_2
REMARK    2  A    between atoms: C_2  and  C_3
REMARK    3  A    between atoms: C_3  and  O_4
REMARK    4  A    between atoms: O_4  and  C_5
REMARK    5  A    between atoms: C_10  and  C_11
REMARK    6  A    between atoms: C_11  and  O_13
REMARK    7  A    between atoms: O_13  and  C_14
REMARK    8  A    between atoms: C_21  and  N_39
REMARK    9  A    between atoms: C_22  and  C_37
REMARK   10  A    between atoms: C_23  and  C_25
REMARK   11  A    between atoms: C_28  and  O_34
REMARK   12  A    between atoms: C_29  and  O_31
REMARK   13  A    between atoms: O_31  and  C_32
REMARK   14  A    between atoms: C_32  and  C_33
REMARK   15  A    between atoms: O_34  and  C_35
REMARK   16  A    between atoms: C_35  and  C_36
REMARK                            x       y       z     vdW  Elec       q    Type
REMARK                         _______ _______ _______ _____ _____    ______ ____
ROOT
ATOM      1  C   UNL     1       0.245  -6.730  -0.371  0.00  0.00    +0.135 A 
ATOM      2  C   UNL     1      -0.405  -5.994   0.610  0.00  0.00    +0.047 A 
ATOM      3  C   UNL     1      -1.029  -6.640   1.658  0.00  0.00    +0.012 A 
ATOM      4  C   UNL     1      -1.010  -8.021   1.737  0.00  0.00    +0.008 A 
ATOM      5  C   UNL     1      -0.362  -8.762   0.760  0.00  0.00    +0.138 A 
ATOM      6  C   UNL     1       0.262  -8.114  -0.298  0.00  0.00    +0.093 A 
ATOM      7  O   UNL     1      -0.332 -10.116   0.820  0.00  0.00    -0.441 OA
ATOM      8  C   UNL     1      -0.578 -10.741   1.983  0.00  0.00    +0.199 C 
ATOM      9  C   UNL     1      -1.222 -10.128   3.004  0.00  0.00    +0.098 C 
ATOM     10  C   UNL     1      -1.697  -8.707   2.888  0.00  0.00    +0.098 C 
ENDROOT
BRANCH  10  11
ATOM     11  C   UNL     1      -3.186  -8.696   2.658  0.00  0.00    -0.031 A 
ATOM     12  C   UNL     1      -3.716  -9.312   1.540  0.00  0.00    +0.008 A 
ATOM     13  C   UNL     1      -5.082  -9.305   1.325  0.00  0.00    +0.050 A 
ATOM     14  C   UNL     1      -5.923  -8.679   2.232  0.00  0.00    +0.162 A 
ATOM     15  C   UNL     1      -5.389  -8.059   3.357  0.00  0.00    +0.162 A 
ATOM     16  C   UNL     1      -4.020  -8.074   3.569  0.00  0.00    +0.054 A 
BRANCH  15  17
ATOM     17  O   UNL     1      -6.210  -7.444   4.250  0.00  0.00    -0.489 OA
BRANCH  17  18
ATOM     18  C   UNL     1      -5.592  -6.828   5.382  0.00  0.00    +0.226 C 
ATOM     19  C   UNL     1      -6.667  -6.192   6.266  0.00  0.00    +0.048 C 
ENDBRANCH  17  18
ENDBRANCH  15  17
BRANCH  14  20
ATOM     20  O   UNL     1      -7.266  -8.671   2.022  0.00  0.00    -0.489 OA
BRANCH  20  21
ATOM     21  C   UNL     1      -7.743  -9.326   0.845  0.00  0.00    +0.226 C 
ATOM     22  C   UNL     1      -9.267  -9.213   0.780  0.00  0.00    +0.048 C 
ENDBRANCH  20  21
ENDBRANCH  14  20
ENDBRANCH  10  11
BRANCH   8  23
ATOM     23  N   UNL     1      -0.165 -12.041   2.141  0.00  0.00    -0.328 N 
ATOM     24  H   UNL     1       0.297 -12.494   1.418  0.00  0.00    +0.145 HD
ATOM     25  H   UNL     1      -0.336 -12.506   2.975  0.00  0.00    +0.145 HD
ENDBRANCH   8  23
BRANCH   9  26
ATOM     26  C   UNL     1      -1.454 -10.848   4.220  0.00  0.00    +0.101 C 
ATOM     27  N   UNL     1      -1.639 -11.419   5.185  0.00  0.00    -0.191 NA
ENDBRANCH   9  26
BRANCH   1  28
ATOM     28  O   UNL     1       0.860  -6.096  -1.403  0.00  0.00    -0.422 OA
BRANCH  28  29
ATOM     29  C   UNL     1       0.237  -6.082  -2.598  0.00  0.00    +0.348 C 
ATOM     30  O   UNL     1      -0.797  -6.701  -2.752  0.00  0.00    -0.244 OA
BRANCH  29  36
ATOM     31  C   UNL     1       0.166  -5.298  -4.964  0.00  0.00    +0.134 A 
ATOM     32  C   UNL     1       0.711  -4.568  -6.010  0.00  0.00    +0.046 A 
ATOM     33  C   UNL     1       1.886  -3.867  -5.826  0.00  0.00    +0.004 A 
ATOM     34  C   UNL     1       2.530  -3.887  -4.599  0.00  0.00    +0.001 A 
ATOM     35  C   UNL     1       2.003  -4.606  -3.549  0.00  0.00    +0.018 A 
ATOM     36  C   UNL     1       0.810  -5.315  -3.719  0.00  0.00    +0.101 A 
BRANCH  31  37
ATOM     37  O   UNL     1      -0.989  -5.987  -5.143  0.00  0.00    -0.491 OA
BRANCH  37  38
ATOM     38  C   UNL     1      -1.589  -5.922  -6.439  0.00  0.00    +0.229 C 
BRANCH  38  40
ATOM     39  C   UNL     1      -3.514  -6.685  -7.836  0.00  0.00    +0.007 C 
ATOM     40  C   UNL     1      -2.872  -6.754  -6.449  0.00  0.00    +0.038 C 
ENDBRANCH  38  40
ENDBRANCH  37  38
ENDBRANCH  31  37
ENDBRANCH  29  36
ENDBRANCH  28  29
ENDBRANCH   1  28
TORSDOF 13
