REMARK  Name = ZINC14705247
REMARK  11 active torsions:
REMARK  status: ('A' for Active; 'I' for Inactive)
REMARK    1  A    between atoms: C_1  and  C_2
REMARK    2  A    between atoms: C_2  and  C_3
REMARK    3  A    between atoms: C_3  and  C_4
REMARK    4  A    between atoms: C_4  and  N_5
REMARK    5  A    between atoms: C_6  and  N_31
REMARK    6  A    between atoms: C_7  and  N_14
REMARK    7  A    between atoms: N_14  and  C_15
REMARK    8  A    between atoms: C_20  and  C_22
REMARK    9  A    between atoms: C_22  and  N_70
REMARK   10  A    between atoms: C_23  and  N_70
REMARK   11  A    between atoms: C_24  and  N_70
REMARK                            x       y       z     vdW  Elec       q    Type
REMARK                         _______ _______ _______ _____ _____    ______ ____
ROOT
ATOM      1  N   UNL     1      -0.631   1.512   1.197  0.00  0.00    -0.263 N 
ATOM      2  C   UNL     1      -0.885   2.799   1.513  0.00  0.00    +0.204 C 
ATOM      3  O   UNL     1      -0.848   3.654   0.653  0.00  0.00    -0.277 OA
ENDROOT
BRANCH   1   6
ATOM      4  N   UNL     1       0.220  -1.122   3.612  0.00  0.00    -0.280 N 
ATOM      5  C   UNL     1       0.368  -0.151   2.649  0.00  0.00    +0.127 A 
ATOM      6  C   UNL     1      -0.750   0.508   2.180  0.00  0.00    +0.140 A 
ATOM      7  C   UNL     1      -2.012   0.156   2.696  0.00  0.00    +0.277 A 
ATOM      8  O   UNL     1      -3.017   0.719   2.296  0.00  0.00    -0.266 OA
ATOM      9  N   UNL     1      -2.102  -0.806   3.634  0.00  0.00    -0.273 N 
ATOM     10  H   UNL     1      -2.998  -1.057   4.001  0.00  0.00    +0.173 HD
ATOM     11  C   UNL     1      -1.001  -1.434   4.083  0.00  0.00    +0.331 A 
ATOM     12  O   UNL     1      -1.110  -2.299   4.931  0.00  0.00    -0.246 OA
BRANCH   5  13
ATOM     13  N   UNL     1       1.615   0.163   2.164  0.00  0.00    -0.343 N 
ATOM     14  H   UNL     1       1.724   0.912   1.557  0.00  0.00    +0.144 HD
ATOM     15  H   UNL     1       2.385  -0.363   2.429  0.00  0.00    +0.144 HD
ENDBRANCH   5  13
BRANCH   4  16
ATOM     16  C   UNL     1       1.399  -1.825   4.124  0.00  0.00    +0.128 C 
BRANCH  16  17
ATOM     17  C   UNL     1       1.665  -3.065   3.267  0.00  0.00    +0.021 C 
BRANCH  17  19
ATOM     18  C   UNL     1       3.162  -5.039   2.945  0.00  0.00    +0.004 C 
ATOM     19  C   UNL     1       2.896  -3.800   3.801  0.00  0.00    -0.002 C 
ENDBRANCH  17  19
ENDBRANCH  16  17
ENDBRANCH   4  16
ENDBRANCH   1   6
BRANCH   1  20
ATOM     20  C   UNL     1      -0.233   1.158  -0.168  0.00  0.00    +0.082 C 
ATOM     21  C   UNL     1      -1.395   1.428  -1.146  0.00  0.00    +0.023 C 
ATOM     22  C   UNL     1      -1.094   2.837  -1.714  0.00  0.00    +0.002 C 
ATOM     23  C   UNL     1       0.448   2.825  -1.860  0.00  0.00    +0.002 C 
ATOM     24  C   UNL     1       0.939   2.046  -0.622  0.00  0.00    +0.023 C 
ENDBRANCH   1  20
BRANCH   2  25
ATOM     25  C   UNL     1      -1.214   3.175   2.935  0.00  0.00    +0.019 C 
BRANCH  25  27
ATOM     26  C   UNL     1      -0.020   5.282   2.948  0.00  0.00    -0.095 C 
ATOM     27  N   UNL     1      -1.352   4.644   3.018  0.00  0.00    +0.385 N 
ATOM     28  H   UNL     1      -1.920   4.971   2.227  0.00  0.00    -0.081 HD
BRANCH  27  29
ATOM     29  C   UNL     1      -2.026   5.019   4.279  0.00  0.00    -0.068 C 
ATOM     30  C   UNL     1      -2.335   6.529   4.232  0.00  0.00    -0.015 C 
ATOM     31  C   UNL     1      -3.446   6.819   5.204  0.00  0.00    -0.002 C 
ATOM     32  C   UNL     1      -2.922   7.261   6.584  0.00  0.00    -0.000 C 
ATOM     33  C   UNL     1      -1.710   6.435   7.055  0.00  0.00    -0.000 C 
ATOM     34  C   UNL     1      -1.866   4.966   6.765  0.00  0.00    -0.002 C 
ATOM     35  C   UNL     1      -1.189   4.659   5.414  0.00  0.00    -0.015 C 
ENDBRANCH  27  29
ENDBRANCH  25  27
ENDBRANCH   2  25
TORSDOF 9
