REMARK  Name = ZINC37195233
REMARK  5 active torsions:
REMARK  status: ('A' for Active; 'I' for Inactive)
REMARK    1  A    between atoms: C_3  and  C_11
REMARK    2  A    between atoms: C_6  and  C_7
REMARK    3  A    between atoms: C_11  and  S_12
REMARK    4  A    between atoms: S_12  and  C_13
REMARK    5  A    between atoms: C_18  and  N_19
REMARK                            x       y       z     vdW  Elec       q    Type
REMARK                         _______ _______ _______ _____ _____    ______ ____
ROOT
ATOM      1  C   UNL     1      -0.017   1.391   0.010  0.00  0.00    +0.013 A 
ATOM      2  C   UNL     1       1.170   2.095   0.002  0.00  0.00    +0.008 A 
ATOM      3  C   UNL     1       2.378   1.422  -0.013  0.00  0.00    -0.002 A 
ATOM      4  C   UNL     1       2.405   0.036  -0.021  0.00  0.00    +0.128 A 
ATOM      5  C   UNL     1       1.223  -0.680  -0.014  0.00  0.00    +0.051 A 
ATOM      6  C   UNL     1       0.002  -0.004   0.002  0.00  0.00    +0.039 A 
ATOM      7  F   UNL     1       3.588  -0.615  -0.036  0.00  0.00    -0.205 F 
ENDROOT
BRANCH   6   8
ATOM      8  C   UNL     1      -1.266  -0.764   0.011  0.00  0.00    +0.242 C 
ATOM      9  O   UNL     1      -2.329  -0.173   0.024  0.00  0.00    -0.270 OA
ATOM     10  N   UNL     1      -1.245  -2.111   0.003  0.00  0.00    -0.325 N 
ATOM     11  H   UNL     1      -0.397  -2.583  -0.008  0.00  0.00    +0.145 HD
ATOM     12  H   UNL     1      -2.077  -2.610   0.009  0.00  0.00    +0.145 HD
ENDBRANCH   6   8
BRANCH   3  13
ATOM     13  C   UNL     1       3.670   2.198  -0.021  0.00  0.00    +0.112 C 
BRANCH  13  14
ATOM     14  S   UNL     1       4.204   2.500   1.686  0.00  0.00    -0.119 S 
BRANCH  14  15
ATOM     15  C   UNL     1       5.706   3.404   1.508  0.00  0.00    +0.029 A 
ATOM     16  C   UNL     1       6.186   3.713   0.244  0.00  0.00    +0.019 A 
ATOM     17  C   UNL     1       7.365   4.423   0.106  0.00  0.00    +0.039 A 
ATOM     18  C   UNL     1       8.069   4.827   1.228  0.00  0.00    +0.125 A 
ATOM     19  C   UNL     1       7.596   4.522   2.493  0.00  0.00    +0.062 A 
ATOM     20  C   UNL     1       6.412   3.816   2.639  0.00  0.00    +0.041 A 
ATOM     21  F   UNL     1       9.220   5.521   1.087  0.00  0.00    -0.205 F 
BRANCH  20  22
ATOM     22  N   UNL     1       5.929   3.511   3.917  0.00  0.00    -0.357 N 
ATOM     23  H   UNL     1       5.103   3.013   4.018  0.00  0.00    +0.142 HD
ATOM     24  H   UNL     1       6.421   3.798   4.702  0.00  0.00    +0.142 HD
ENDBRANCH  20  22
ENDBRANCH  14  15
ENDBRANCH  13  14
ENDBRANCH   3  13
TORSDOF 5
