REMARK  Name = ZINC12872752
REMARK  5 active torsions:
REMARK  status: ('A' for Active; 'I' for Inactive)
REMARK    1  A    between atoms: C_5  and  C_7
REMARK    2  A    between atoms: C_7  and  N_8
REMARK    3  A    between atoms: C_13  and  C_29
REMARK    4  A    between atoms: C_29  and  C_30
REMARK    5  A    between atoms: C_30  and  C_31
REMARK                            x       y       z     vdW  Elec       q    Type
REMARK                         _______ _______ _______ _____ _____    ______ ____
ROOT
ATOM      1  N   UNL     1       3.245  -0.116  -1.344  0.00  0.00    -0.237 N 
ATOM      2  C   UNL     1       4.137   0.726  -0.810  0.00  0.00    +0.224 C 
ATOM      3  O   UNL     1       5.263   0.431  -0.472  0.00  0.00    -0.275 OA
ATOM      4  C   UNL     1       3.521   2.101  -0.693  0.00  0.00    +0.073 C 
ATOM      5  C   UNL     1       3.323   2.447   0.798  0.00  0.00    -0.057 C 
ATOM      6  C   UNL     1       1.167   2.135  -0.045  0.00  0.00    +0.050 C 
ATOM      7  C   UNL     1       2.084   1.901  -1.251  0.00  0.00    +0.088 C 
ATOM      8  C   UNL     1       2.061   0.437  -1.631  0.00  0.00    +0.225 C 
ATOM      9  O   UNL     1       1.116  -0.144  -2.120  0.00  0.00    -0.275 OA
ATOM     10  C   UNL     1       0.610   3.530  -0.038  0.00  0.00    -0.028 A 
ATOM     11  C   UNL     1       1.185   4.780  -0.008  0.00  0.00    +0.004 A 
ATOM     12  C   UNL     1       0.387   5.910  -0.009  0.00  0.00    +0.000 A 
ATOM     13  C   UNL     1      -0.990   5.780  -0.041  0.00  0.00    +0.002 A 
ATOM     14  C   UNL     1      -1.571   4.530  -0.072  0.00  0.00    +0.023 A 
ATOM     15  C   UNL     1      -0.774   3.387  -0.071  0.00  0.00    +0.036 A 
ATOM     16  N   UNL     1      -1.119   2.034  -0.104  0.00  0.00    -0.286 N 
ATOM     17  C   UNL     1      -0.036   1.233  -0.084  0.00  0.00    +0.211 C 
ATOM     18  O   UNL     1      -0.032   0.020  -0.100  0.00  0.00    -0.277 OA
ATOM     19  H   UNL     1      -2.033   1.708  -0.134  0.00  0.00    +0.155 HD
ATOM     20  N   UNL     1       2.005   1.895   1.117  0.00  0.00    +0.394 N 
ATOM     21  H   UNL     1       1.613   2.367   1.941  0.00  0.00    -0.083 HD
ATOM     22  H   UNL     1       2.077   0.888   1.302  0.00  0.00    -0.083 HD
ENDROOT
BRANCH   1  23
ATOM     23  C   UNL     1       3.540  -1.529  -1.594  0.00  0.00    +0.153 C 
BRANCH  23  28
ATOM     24  C   UNL     1       3.388  -2.252  -5.297  0.00  0.00    +0.000 A 
ATOM     25  C   UNL     1       4.701  -2.041  -5.674  0.00  0.00    +0.001 A 
ATOM     26  C   UNL     1       5.639  -1.665  -4.731  0.00  0.00    +0.020 A 
ATOM     27  C   UNL     1       5.264  -1.499  -3.410  0.00  0.00    +0.046 A 
ATOM     28  C   UNL     1       3.950  -1.710  -3.033  0.00  0.00    -0.011 A 
ATOM     29  C   UNL     1       3.013  -2.091  -3.976  0.00  0.00    +0.006 A 
ATOM     30 CL   UNL     1       6.442  -1.027  -2.225  0.00  0.00    -0.083 Cl
ENDBRANCH  23  28
ENDBRANCH   1  23
BRANCH   5  31
ATOM     31  C   UNL     1       4.420   1.799   1.645  0.00  0.00    -0.006 C 
BRANCH  31  32
ATOM     32  C   UNL     1       4.232   2.193   3.111  0.00  0.00    +0.094 C 
BRANCH  32  33
ATOM     33  C   UNL     1       5.313   1.554   3.946  0.00  0.00    +0.210 C 
ATOM     34  O   UNL     1       6.150   0.853   3.419  0.00  0.00    -0.276 OA
ATOM     35  N   UNL     1       5.348   1.763   5.277  0.00  0.00    -0.329 N 
ATOM     36  H   UNL     1       4.678   2.324   5.698  0.00  0.00    +0.145 HD
ATOM     37  H   UNL     1       6.043   1.352   5.814  0.00  0.00    +0.145 HD
ENDBRANCH  32  33
ENDBRANCH  31  32
ENDBRANCH   5  31
TORSDOF 5
