REMARK  Name = ZINC13123661
REMARK  10 active torsions:
REMARK  status: ('A' for Active; 'I' for Inactive)
REMARK    1  A    between atoms: C_1  and  C_2
REMARK    2  A    between atoms: C_5  and  C_8
REMARK    3  A    between atoms: C_8  and  C_10
REMARK    4  A    between atoms: C_11  and  C_29
REMARK    5  A    between atoms: C_18  and  C_20
REMARK    6  A    between atoms: C_23  and  O_28
REMARK    7  A    between atoms: C_24  and  O_26
REMARK    8  A    between atoms: O_26  and  C_27
REMARK    9  A    between atoms: C_29  and  O_31
REMARK   10  A    between atoms: O_31  and  C_32
REMARK                            x       y       z     vdW  Elec       q    Type
REMARK                         _______ _______ _______ _____ _____    ______ ____
ROOT
ATOM      1  C   UNL     1      -0.288  -5.448   0.966  0.00  0.00    +0.059 C 
ATOM      2  C   UNL     1       0.007  -6.764   1.284  0.00  0.00    +0.160 C 
ATOM      3  N   UNL     1       0.222  -7.146   2.544  0.00  0.00    -0.206 NA
ATOM      4  C   UNL     1       0.180  -6.343   3.586  0.00  0.00    +0.233 C 
ATOM      5  N   UNL     1       0.366  -6.545   4.910  0.00  0.00    -0.231 N 
ATOM      6  N   UNL     1       0.220  -5.439   5.548  0.00  0.00    -0.086 NA
ATOM      7  N   UNL     1      -0.060  -4.471   4.742  0.00  0.00    -0.165 N 
ATOM      8  N   UNL     1      -0.098  -5.004   3.452  0.00  0.00    -0.192 N 
ATOM      9  C   UNL     1      -0.348  -4.457   2.115  0.00  0.00    +0.165 C 
ATOM     10  H   UNL     1      -0.215  -3.546   4.987  0.00  0.00    +0.195 HD
ATOM     11  H   UNL     1       0.579  -7.399   5.319  0.00  0.00    +0.193 HD
ENDROOT
BRANCH   9  12
ATOM     12  C   UNL     1      -1.717  -3.826   2.120  0.00  0.00    -0.017 A 
ATOM     13  C   UNL     1      -2.813  -4.558   2.538  0.00  0.00    +0.009 A 
ATOM     14  C   UNL     1      -4.070  -3.984   2.543  0.00  0.00    +0.049 A 
ATOM     15  C   UNL     1      -4.234  -2.671   2.131  0.00  0.00    +0.158 A 
ATOM     16  C   UNL     1      -3.131  -1.934   1.710  0.00  0.00    +0.162 A 
ATOM     17  C   UNL     1      -1.873  -2.514   1.712  0.00  0.00    +0.055 A 
BRANCH  16  18
ATOM     18  O   UNL     1      -3.288  -0.646   1.304  0.00  0.00    -0.491 OA
ATOM     19  C   UNL     1      -2.130   0.018   0.794  0.00  0.00    +0.277 C 
ENDBRANCH  16  18
BRANCH  15  20
ATOM     20  O   UNL     1      -5.471  -2.105   2.135  0.00  0.00    -0.503 OA
ATOM     21  H   UNL     1      -5.698  -1.665   2.965  0.00  0.00    +0.292 HD
ENDBRANCH  15  20
ENDBRANCH   9  12
BRANCH   1  22
ATOM     22  C   UNL     1      -0.516  -5.046  -0.368  0.00  0.00    +0.194 C 
ATOM     23  O   UNL     1      -1.502  -5.442  -0.964  0.00  0.00    -0.287 OA
BRANCH  22  28
ATOM     24  C   UNL     1       3.212  -1.529  -2.989  0.00  0.00    +0.044 C 
ATOM     25  C   UNL     1       2.236  -2.450  -2.303  0.00  0.00    -0.050 A 
ATOM     26  C   UNL     1       1.056  -2.799  -2.936  0.00  0.00    +0.004 A 
ATOM     27  C   UNL     1       0.158  -3.641  -2.314  0.00  0.00    +0.012 A 
ATOM     28  C   UNL     1       0.443  -4.142  -1.042  0.00  0.00    +0.022 A 
ATOM     29  C   UNL     1       1.635  -3.787  -0.409  0.00  0.00    +0.012 A 
ATOM     30  C   UNL     1       2.526  -2.948  -1.045  0.00  0.00    +0.004 A 
ENDBRANCH  22  28
ENDBRANCH   1  22
BRANCH   2  31
ATOM     31  C   UNL     1       0.084  -7.773   0.197  0.00  0.00    +0.358 C 
ATOM     32  O   UNL     1      -0.103  -7.439  -0.955  0.00  0.00    -0.243 OA
BRANCH  31  33
ATOM     33  O   UNL     1       0.362  -9.057   0.489  0.00  0.00    -0.463 OA
ATOM     34  C   UNL     1       0.421  -9.974  -0.605  0.00  0.00    +0.280 C 
ENDBRANCH  31  33
ENDBRANCH   2  31
TORSDOF 7
