REMARK  Name = ZINC39708721
REMARK  8 active torsions:
REMARK  status: ('A' for Active; 'I' for Inactive)
REMARK    1  A    between atoms: C_1  and  C_2
REMARK    2  A    between atoms: C_2  and  C_3
REMARK    3  A    between atoms: C_3  and  C_5
REMARK    4  A    between atoms: C_3  and  S_18
REMARK    5  A    between atoms: N_7  and  C_8
REMARK    6  A    between atoms: C_11  and  S_14
REMARK    7  A    between atoms: S_14  and  N_17
REMARK    8  A    between atoms: S_18  and  C_19
REMARK                            x       y       z     vdW  Elec       q    Type
REMARK                         _______ _______ _______ _____ _____    ______ ____
ROOT
ATOM      1  C   UNL     1       0.554  -0.870  -1.502  0.00  0.00    +0.140 C 
ENDROOT
BRANCH   1   2
ATOM      2  C   UNL     1       0.547  -2.369  -1.343  0.00  0.00    +0.231 C 
ATOM      3  O   UNL     1      -0.241  -3.042  -1.973  0.00  0.00    -0.274 OA
ATOM      4  N   UNL     1       1.417  -2.961  -0.500  0.00  0.00    -0.285 N 
ATOM      5  H   UNL     1       2.091  -2.430  -0.048  0.00  0.00    +0.155 HD
BRANCH   4   6
ATOM      6  C   UNL     1       1.346  -4.340  -0.277  0.00  0.00    +0.034 A 
ATOM      7  C   UNL     1       2.503  -5.065  -0.025  0.00  0.00    +0.025 A 
ATOM      8  C   UNL     1       2.430  -6.426   0.194  0.00  0.00    +0.030 A 
ATOM      9  C   UNL     1       1.206  -7.068   0.163  0.00  0.00    +0.105 A 
ATOM     10  C   UNL     1       0.051  -6.350  -0.088  0.00  0.00    +0.030 A 
ATOM     11  C   UNL     1       0.117  -4.987  -0.302  0.00  0.00    +0.025 A 
BRANCH   9  12
ATOM     12  S   UNL     1       1.117  -8.806   0.443  0.00  0.00    +0.056 S 
ATOM     13  O   UNL     1      -0.079  -9.257  -0.178  0.00  0.00    -0.153 OA
ATOM     14  O   UNL     1       2.393  -9.336   0.114  0.00  0.00    -0.153 OA
BRANCH  12  15
ATOM     15  N   UNL     1       0.917  -9.029   2.072  0.00  0.00    -0.204 NA
ATOM     16  H   UNL     1       0.430  -9.802   2.399  0.00  0.00    +0.144 HD
ATOM     17  H   UNL     1       1.286  -8.388   2.698  0.00  0.00    +0.144 HD
ENDBRANCH  12  15
ENDBRANCH   9  12
ENDBRANCH   4   6
ENDBRANCH   1   2
BRANCH   1  19
ATOM     18  C   UNL     1      -0.067   1.292  -0.414  0.00  0.00    +0.005 C 
ATOM     19  C   UNL     1      -0.200  -0.230  -0.335  0.00  0.00    +0.020 C 
ENDBRANCH   1  19
BRANCH   1  20
ATOM     20  S   UNL     1      -0.256  -0.424  -3.062  0.00  0.00    -0.072 S 
BRANCH  20  21
ATOM     21  C   UNL     1       0.801  -1.100  -4.300  0.00  0.00    +0.208 C 
ATOM     22  N   UNL     1       1.863  -1.763  -3.910  0.00  0.00    -0.227 NA
ATOM     23  C   UNL     1       2.690  -2.388  -4.939  0.00  0.00    +0.252 C 
ATOM     24  C   UNL     1       2.518  -1.546  -6.196  0.00  0.00    +0.117 C 
ATOM     25  C   UNL     1       3.780  -1.304  -6.649  0.00  0.00    +0.025 A 
ATOM     26  C   UNL     1       4.265  -0.675  -7.822  0.00  0.00    +0.012 A 
ATOM     27  C   UNL     1       5.614  -0.579  -7.968  0.00  0.00    +0.001 A 
ATOM     28  C   UNL     1       6.541  -1.059  -7.038  0.00  0.00    +0.002 A 
ATOM     29  C   UNL     1       6.190  -1.684  -5.883  0.00  0.00    +0.026 A 
ATOM     30  C   UNL     1       4.746  -1.840  -5.641  0.00  0.00    +0.046 A 
ATOM     31  N   UNL     1       4.118  -2.402  -4.654  0.00  0.00    -0.358 N 
ATOM     32  N   UNL     1       1.318  -1.089  -6.565  0.00  0.00    -0.147 NA
ATOM     33  N   UNL     1       0.466  -0.910  -5.599  0.00  0.00    -0.122 NA
ATOM     34  H   UNL     1       4.531  -2.770  -3.858  0.00  0.00    +0.162 HD
ENDBRANCH  20  21
ENDBRANCH   1  20
TORSDOF 7
