REMARK  Name = ZINC39883304
REMARK  6 active torsions:
REMARK  status: ('A' for Active; 'I' for Inactive)
REMARK    1  A    between atoms: C_3  and  C_6
REMARK    2  A    between atoms: C_6  and  N_7
REMARK    3  A    between atoms: C_8  and  C_10
REMARK    4  A    between atoms: C_14  and  N_15
REMARK    5  A    between atoms: C_16  and  C_18
REMARK    6  A    between atoms: C_18  and  C_19
REMARK                            x       y       z     vdW  Elec       q    Type
REMARK                         _______ _______ _______ _____ _____    ______ ____
ROOT
ATOM      1  C   UNL     1       5.930   0.556   2.957  0.00  0.00    +0.069 A 
ATOM      2  C   UNL     1       6.166  -0.693   3.660  0.00  0.00    -0.023 A 
ATOM      3  C   UNL     1       6.628  -0.539   4.920  0.00  0.00    -0.004 A 
ATOM      4  S   UNL     1       6.740   1.211   5.146  0.00  0.00    -0.077 S 
ATOM      5  C   UNL     1       6.205   1.730   3.641  0.00  0.00    +0.084 A 
ATOM      6  C   UNL     1       6.963  -1.627   5.894  0.00  0.00    +0.043 C 
ATOM      7  C   UNL     1       6.348  -2.938   5.383  0.00  0.00    +0.005 C 
ATOM      8  C   UNL     1       6.695  -3.104   3.901  0.00  0.00    +0.005 C 
ATOM      9  C   UNL     1       5.927  -2.074   3.068  0.00  0.00    +0.037 C 
ENDROOT
BRANCH   1  11
ATOM     10  N   UNL     1       4.101   0.607   1.347  0.00  0.00    -0.304 N 
ATOM     11  C   UNL     1       5.428   0.575   1.580  0.00  0.00    +0.247 C 
ATOM     12  O   UNL     1       6.209   0.561   0.647  0.00  0.00    -0.270 OA
ATOM     13  H   UNL     1       3.478   0.617   2.090  0.00  0.00    +0.149 HD
BRANCH  10  14
ATOM     14  C   UNL     1       3.599   0.625  -0.029  0.00  0.00    +0.179 C 
BRANCH  14  17
ATOM     15  C   UNL     1      -0.016   1.341   0.009  0.00  0.00    +0.041 A 
ATOM     16  C   UNL     1       1.331   1.769  -0.001  0.00  0.00    +0.046 A 
ATOM     17  C   UNL     1       2.092   0.660  -0.014  0.00  0.00    +0.122 A 
ATOM     18  O   UNL     1       1.282  -0.411  -0.012  0.00  0.00    -0.466 OA
ATOM     19  C   UNL     1       0.002  -0.004   0.002  0.00  0.00    +0.195 A 
ENDBRANCH  14  17
ENDBRANCH  10  14
ENDBRANCH   1  11
BRANCH   5  20
ATOM     20  N   UNL     1       6.068   3.033   3.188  0.00  0.00    -0.279 N 
ATOM     21  C   UNL     1       6.385   4.064   3.995  0.00  0.00    +0.222 C 
ATOM     22  O   UNL     1       6.791   3.853   5.119  0.00  0.00    -0.275 OA
ATOM     23  H   UNL     1       5.744   3.202   2.289  0.00  0.00    +0.155 HD
BRANCH  21  24
ATOM     24  C   UNL     1       6.237   5.481   3.502  0.00  0.00    +0.135 C 
BRANCH  24  25
ATOM     25  C   UNL     1       6.654   6.437   4.589  0.00  0.00    +0.007 A 
ATOM     26  C   UNL     1       5.856   7.038   5.483  0.00  0.00    +0.200 A 
ATOM     27  O   UNL     1       6.582   7.822   6.298  0.00  0.00    -0.463 OA
ATOM     28  C   UNL     1       7.890   7.772   5.975  0.00  0.00    +0.135 A 
ATOM     29  C   UNL     1       8.017   6.894   4.886  0.00  0.00    +0.025 A 
ATOM     30  C   UNL     1       9.272   6.638   4.335  0.00  0.00    +0.027 A 
ATOM     31  C   UNL     1      10.386   7.250   4.867  0.00  0.00    +0.019 A 
ATOM     32  C   UNL     1      10.262   8.115   5.945  0.00  0.00    +0.019 A 
ATOM     33  C   UNL     1       9.026   8.381   6.494  0.00  0.00    +0.048 A 
ATOM     34 BR   UNL     1      12.092   6.909   4.125  0.00  0.00    -0.050 Br
ENDBRANCH  24  25
ENDBRANCH  21  24
ENDBRANCH   5  20
TORSDOF 6
