REMARK  Name = ZINC36610317
REMARK  16 active torsions:
REMARK  status: ('A' for Active; 'I' for Inactive)
REMARK    1  A    between atoms: C_1  and  C_2
REMARK    2  A    between atoms: C_7  and  C_8
REMARK    3  A    between atoms: C_8  and  C_10
REMARK    4  A    between atoms: C_8  and  N_21
REMARK    5  A    between atoms: N_12  and  C_13
REMARK    6  A    between atoms: C_13  and  C_14
REMARK    7  A    between atoms: C_13  and  C_15
REMARK    8  A    between atoms: C_13  and  C_16
REMARK    9  A    between atoms: C_16  and  C_17
REMARK   10  A    between atoms: C_17  and  C_18
REMARK   11  A    between atoms: C_17  and  C_19
REMARK   12  A    between atoms: C_17  and  C_20
REMARK   13  A    between atoms: N_21  and  C_22
REMARK   14  A    between atoms: C_28  and  C_30
REMARK   15  A    between atoms: C_34  and  O_37
REMARK   16  A    between atoms: C_35  and  O_36
REMARK                            x       y       z     vdW  Elec       q    Type
REMARK                         _______ _______ _______ _____ _____    ______ ____
ROOT
ATOM      1  C   UNL     1       1.452   1.365   3.284  0.00  0.00    +0.198 C 
ENDROOT
BRANCH   1   8
ATOM      2  C   UNL     1       1.329  -1.188   1.937  0.00  0.00    +0.044 C 
ATOM      3  C   UNL     1       2.633  -0.438   2.011  0.00  0.00    -0.045 A 
ATOM      4  C   UNL     1       3.770  -0.969   1.430  0.00  0.00    +0.004 A 
ATOM      5  C   UNL     1       4.967  -0.280   1.498  0.00  0.00    +0.000 A 
ATOM      6  C   UNL     1       5.027   0.939   2.147  0.00  0.00    +0.000 A 
ATOM      7  C   UNL     1       3.890   1.470   2.728  0.00  0.00    +0.006 A 
ATOM      8  C   UNL     1       2.692   0.783   2.656  0.00  0.00    -0.015 A 
ENDBRANCH   1   8
BRANCH   1   9
ATOM      9  C   UNL     1       1.617   2.855   3.436  0.00  0.00    +0.239 C 
ATOM     10  O   UNL     1       1.748   3.341   4.539  0.00  0.00    -0.273 OA
ATOM     11  N   UNL     1       1.618   3.647   2.345  0.00  0.00    -0.308 N 
ATOM     12  H   UNL     1       1.444   3.268   1.470  0.00  0.00    +0.149 HD
BRANCH  11  13
ATOM     13  C   UNL     1       1.881   5.082   2.483  0.00  0.00    +0.030 C 
ATOM     14  C   UNL     1       0.749   5.734   3.279  0.00  0.00    +0.031 C 
ATOM     15  C   UNL     1       3.207   5.289   3.218  0.00  0.00    +0.031 C 
BRANCH  13  16
ATOM     16  C   UNL     1       1.962   5.721   1.095  0.00  0.00    +0.031 C 
BRANCH  16  17
ATOM     17  C   UNL     1       2.641   4.751   0.126  0.00  0.00    -0.036 C 
ATOM     18  C   UNL     1       1.595   3.802  -0.463  0.00  0.00    +0.010 C 
ATOM     19  C   UNL     1       3.306   5.541  -1.004  0.00  0.00    +0.010 C 
ATOM     20  C   UNL     1       3.701   3.941   0.874  0.00  0.00    +0.010 C 
ENDBRANCH  16  17
ENDBRANCH  13  16
ENDBRANCH  11  13
ENDBRANCH   1   9
BRANCH   1  21
ATOM     21  N   UNL     1       1.242   0.760   4.601  0.00  0.00    -0.251 N 
ATOM     22  C   UNL     1       0.068   0.167   4.891  0.00  0.00    +0.255 C 
ATOM     23  O   UNL     1      -0.846   0.202   4.090  0.00  0.00    -0.269 OA
BRANCH  21  24
ATOM     24  C   UNL     1       2.261   0.798   5.559  0.00  0.00    +0.038 A 
ATOM     25  C   UNL     1       3.451   0.116   5.337  0.00  0.00    +0.023 A 
ATOM     26  C   UNL     1       4.455   0.156   6.284  0.00  0.00    +0.002 A 
ATOM     27  C   UNL     1       4.278   0.874   7.452  0.00  0.00    +0.000 A 
ATOM     28  C   UNL     1       3.095   1.554   7.676  0.00  0.00    +0.002 A 
ATOM     29  C   UNL     1       2.089   1.523   6.730  0.00  0.00    +0.023 A 
ENDBRANCH  21  24
BRANCH  22  30
ATOM     30  C   UNL     1      -0.110  -0.526   6.182  0.00  0.00    +0.082 A 
ATOM     31  C   UNL     1       0.998  -1.039   6.863  0.00  0.00    +0.017 A 
ATOM     32  C   UNL     1       0.828  -1.685   8.067  0.00  0.00    +0.005 A 
ATOM     33  C   UNL     1      -0.438  -1.831   8.611  0.00  0.00    +0.049 A 
ATOM     34  C   UNL     1      -1.545  -1.328   7.949  0.00  0.00    +0.159 A 
ATOM     35  C   UNL     1      -1.389  -0.668   6.734  0.00  0.00    +0.171 A 
BRANCH  35  36
ATOM     36  O   UNL     1      -2.472  -0.168   6.085  0.00  0.00    -0.503 OA
ATOM     37  H   UNL     1      -2.884  -0.791   5.471  0.00  0.00    +0.292 HD
ENDBRANCH  35  36
BRANCH  34  38
ATOM     38  O   UNL     1      -2.785  -1.475   8.489  0.00  0.00    -0.503 OA
ATOM     39  H   UNL     1      -3.049  -0.749   9.070  0.00  0.00    +0.292 HD
ENDBRANCH  34  38
ENDBRANCH  22  30
ENDBRANCH   1  21
TORSDOF 10
