REMARK  Name = ZINC01863261
REMARK  11 active torsions:
REMARK  status: ('A' for Active; 'I' for Inactive)
REMARK    1  A    between atoms: C_1  and  C_2
REMARK    2  A    between atoms: C_2  and  C_3
REMARK    3  A    between atoms: C_3  and  S_4
REMARK    4  A    between atoms: S_4  and  C_5
REMARK    5  A    between atoms: C_14  and  C_16
REMARK    6  A    between atoms: C_14  and  C_17
REMARK    7  A    between atoms: C_17  and  C_18
REMARK    8  A    between atoms: C_21  and  S_24
REMARK    9  A    between atoms: S_24  and  C_25
REMARK   10  A    between atoms: C_25  and  C_26
REMARK   11  A    between atoms: N_28  and  C_29
REMARK                            x       y       z     vdW  Elec       q    Type
REMARK                         _______ _______ _______ _____ _____    ______ ____
ROOT
ATOM      1  C   UNL     1      -3.113  -2.797   0.023  0.00  0.00    +0.178 A 
ATOM      2  N   UNL     1      -4.028  -1.856   0.034  0.00  0.00    -0.216 NA
ATOM      3  C   UNL     1      -5.330  -2.130   0.053  0.00  0.00    +0.115 A 
ATOM      4  C   UNL     1      -5.819  -3.445   0.064  0.00  0.00    +0.056 A 
ATOM      5  C   UNL     1      -7.270  -3.584   0.084  0.00  0.00    -0.019 A 
ATOM      6  C   UNL     1      -7.999  -2.444   0.091  0.00  0.00    +0.021 A 
ATOM      7  S   UNL     1      -6.804  -1.139   0.070  0.00  0.00    -0.071 S 
ATOM      8  C   UNL     1      -9.493  -2.347   0.112  0.00  0.00    +0.203 C 
ATOM      9  O   UNL     1     -10.014  -3.644   0.443  0.00  0.00    -0.368 OA
ATOM     10  C   UNL     1      -9.439  -4.704  -0.326  0.00  0.00    +0.071 C 
ATOM     11  C   UNL     1      -7.985  -4.934   0.096  0.00  0.00    +0.071 C 
ATOM     12  C   UNL     1      -9.483  -4.335  -1.810  0.00  0.00    +0.042 C 
ATOM     13  C   UNL     1      -4.783  -4.500   0.052  0.00  0.00    +0.174 A 
ATOM     14  N   UNL     1      -3.458  -4.123   0.026  0.00  0.00    -0.248 N 
ATOM     15  C   UNL     1      -2.747  -5.292   0.013  0.00  0.00    +0.198 A 
ATOM     16  N   UNL     1      -3.617  -6.275   0.026  0.00  0.00    -0.122 NA
ATOM     17  N   UNL     1      -4.817  -5.810   0.058  0.00  0.00    -0.128 NA
ENDROOT
BRANCH  10  18
ATOM     18  C   UNL     1     -10.241  -5.987  -0.102  0.00  0.00    +0.032 C 
ATOM     19  C   UNL     1     -11.657  -5.807  -0.654  0.00  0.00    +0.007 C 
ENDBRANCH  10  18
BRANCH   1  20
ATOM     20  S   UNL     1      -1.409  -2.348  -0.004  0.00  0.00    -0.087 S 
BRANCH  20  21
ATOM     21  C   UNL     1      -1.434  -0.534   0.000  0.00  0.00    +0.077 C 
BRANCH  21  23
ATOM     22  C   UNL     1      -0.020   1.526  -0.019  0.00  0.00    +0.004 C 
ATOM     23  C   UNL     1       0.001  -0.004  -0.022  0.00  0.00    +0.008 C 
ENDBRANCH  21  23
ENDBRANCH  20  21
ENDBRANCH   1  20
BRANCH  15  24
ATOM     24  S   UNL     1      -0.992  -5.448  -0.017  0.00  0.00    -0.076 S 
BRANCH  24  25
ATOM     25  C   UNL     1      -0.711  -7.240  -0.024  0.00  0.00    +0.173 C 
BRANCH  25  26
ATOM     26  C   UNL     1       0.770  -7.517  -0.050  0.00  0.00    +0.227 C 
ATOM     27  O   UNL     1       1.559  -6.595  -0.062  0.00  0.00    -0.275 OA
ATOM     28  N   UNL     1       1.219  -8.787  -0.059  0.00  0.00    -0.285 N 
ATOM     29  H   UNL     1       0.592  -9.524   0.019  0.00  0.00    +0.155 HD
BRANCH  28  30
ATOM     30  C   UNL     1       2.589  -9.045  -0.180  0.00  0.00    +0.033 A 
ATOM     31  C   UNL     1       3.028 -10.154  -0.892  0.00  0.00    +0.024 A 
ATOM     32  C   UNL     1       4.381 -10.406  -1.010  0.00  0.00    +0.017 A 
ATOM     33  C   UNL     1       5.298  -9.554  -0.421  0.00  0.00    +0.018 A 
ATOM     34  C   UNL     1       4.864  -8.448   0.288  0.00  0.00    +0.017 A 
ATOM     35  C   UNL     1       3.512  -8.189   0.405  0.00  0.00    +0.024 A 
ATOM     36 BR   UNL     1       7.150  -9.902  -0.585  0.00  0.00    -0.050 Br
ENDBRANCH  28  30
ENDBRANCH  25  26
ENDBRANCH  24  25
ENDBRANCH  15  24
TORSDOF 8
