REMARK  Name = ZINC40752329
REMARK  7 active torsions:
REMARK  status: ('A' for Active; 'I' for Inactive)
REMARK    1  A    between atoms: C_1  and  C_2
REMARK    2  A    between atoms: C_9  and  O_12
REMARK    3  A    between atoms: O_12  and  C_13
REMARK    4  A    between atoms: C_14  and  N_30
REMARK    5  A    between atoms: C_15  and  N_19
REMARK    6  A    between atoms: N_19  and  N_20
REMARK    7  A    between atoms: C_21  and  C_23
REMARK                            x       y       z     vdW  Elec       q    Type
REMARK                         _______ _______ _______ _____ _____    ______ ____
ROOT
ATOM      1  C   UNL     1      -0.044  -2.684   4.744  0.00  0.00    +0.246 A 
ATOM      2  C   UNL     1      -0.164  -2.024   5.966  0.00  0.00    +0.129 A 
ATOM      3  C   UNL     1      -0.253  -2.797   7.127  0.00  0.00    +0.163 A 
ATOM      4  N   UNL     1      -0.220  -4.123   7.022  0.00  0.00    -0.217 NA
ATOM      5  C   UNL     1      -0.106  -4.706   5.846  0.00  0.00    +0.227 A 
ATOM      6  N   UNL     1      -0.025  -4.013   4.728  0.00  0.00    -0.199 NA
ENDROOT
BRANCH   2   7
ATOM      7  N   UNL     1      -0.194  -0.622   6.029  0.00  0.00    -0.351 N 
ATOM      8  H   UNL     1      -0.131  -0.099   5.215  0.00  0.00    +0.143 HD
ATOM      9  H   UNL     1      -0.278  -0.177   6.887  0.00  0.00    +0.143 HD
ENDBRANCH   2   7
BRANCH   3  10
ATOM     10  N   UNL     1      -0.373  -2.190   8.371  0.00  0.00    -0.246 N 
ATOM     11  H   UNL     1      -0.396  -1.223   8.439  0.00  0.00    +0.172 HD
BRANCH  10  12
ATOM     12  N   UNL     1      -0.462  -2.976   9.528  0.00  0.00    -0.231 N 
ATOM     13  C   UNL     1      -0.578  -2.387  10.735  0.00  0.00    +0.260 C 
ATOM     14  O   UNL     1      -0.607  -1.175  10.820  0.00  0.00    -0.269 OA
ATOM     15  H   UNL     1      -0.439  -3.943   9.460  0.00  0.00    +0.173 HD
BRANCH  13  16
ATOM     16  C   UNL     1      -0.671  -3.216  11.955  0.00  0.00    +0.038 A 
ATOM     17  C   UNL     1      -0.633  -4.608  11.862  0.00  0.00    +0.014 A 
ATOM     18  C   UNL     1      -0.721  -5.376  13.004  0.00  0.00    +0.016 A 
ATOM     19  C   UNL     1      -0.846  -4.768  14.242  0.00  0.00    +0.018 A 
ATOM     20  C   UNL     1      -0.885  -3.388  14.341  0.00  0.00    +0.016 A 
ATOM     21  C   UNL     1      -0.792  -2.609  13.207  0.00  0.00    +0.014 A 
ATOM     22 BR   UNL     1      -0.966  -5.828  15.803  0.00  0.00    -0.050 Br
ENDBRANCH  13  16
ENDBRANCH  10  12
ENDBRANCH   3  10
BRANCH   1  23
ATOM     23  O   UNL     1       0.045  -1.980   3.588  0.00  0.00    -0.434 OA
BRANCH  23  32
ATOM     24  C   UNL     1      -4.708  -2.875   2.347  0.00  0.00    +0.065 C 
ATOM     25  C   UNL     1      -3.382  -3.210   1.715  0.00  0.00    +0.039 A 
ATOM     26  C   UNL     1      -3.362  -3.924   0.519  0.00  0.00    +0.023 A 
ATOM     27  C   UNL     1      -2.169  -4.237  -0.068  0.00  0.00    +0.012 A 
ATOM     28  C   UNL     1      -0.985  -3.818   0.569  0.00  0.00    +0.004 A 
ATOM     29  C   UNL     1       0.278  -4.102   0.024  0.00  0.00    +0.010 A 
ATOM     30  C   UNL     1       1.401  -3.680   0.668  0.00  0.00    +0.004 A 
ATOM     31  C   UNL     1       1.318  -2.969   1.862  0.00  0.00    +0.048 A 
ATOM     32  C   UNL     1       0.107  -2.674   2.422  0.00  0.00    +0.156 A 
ATOM     33  C   UNL     1      -1.078  -3.095   1.783  0.00  0.00    +0.113 A 
ATOM     34  N   UNL     1      -2.277  -2.817   2.302  0.00  0.00    -0.248 NA
ENDBRANCH  23  32
ENDBRANCH   1  23
TORSDOF 6
