REMARK  Name = ZINC06544023
REMARK  6 active torsions:
REMARK  status: ('A' for Active; 'I' for Inactive)
REMARK    1  A    between atoms: C_4  and  C_7
REMARK    2  A    between atoms: C_7  and  C_8
REMARK    3  A    between atoms: C_11  and  S_13
REMARK    4  A    between atoms: S_13  and  C_14
REMARK    5  A    between atoms: C_14  and  C_15
REMARK    6  A    between atoms: N_17  and  N_18
REMARK                            x       y       z     vdW  Elec       q    Type
REMARK                         _______ _______ _______ _____ _____    ______ ____
ROOT
ATOM      1  C   UNL     1      -1.187   1.624   0.017  0.00  0.00    +0.240 C 
ATOM      2  O   UNL     1      -1.204   2.837   0.023  0.00  0.00    -0.273 OA
ATOM      3  N   UNL     1      -0.011   0.966   0.007  0.00  0.00    -0.223 N 
ATOM      4  H   UNL     1       0.002  -0.004   0.002  0.00  0.00    +0.174 HD
ENDROOT
BRANCH   3   5
ATOM      5  N   UNL     1       1.193   1.683  -0.000  0.00  0.00    -0.137 N 
ATOM      6  C   UNL     1       2.002   1.817   1.071  0.00  0.00    +0.263 C 
ATOM      7  O   UNL     1       1.834   1.358   2.180  0.00  0.00    -0.271 OA
ATOM      8  C   UNL     1       3.163   2.660   0.596  0.00  0.00    +0.114 C 
ATOM      9  C   UNL     1       4.469   1.881   0.716  0.00  0.00    +0.035 C 
ATOM     10  C   UNL     1       5.628   2.741   0.204  0.00  0.00    +0.003 C 
ATOM     11  C   UNL     1       5.706   4.030   1.025  0.00  0.00    +0.000 C 
ATOM     12  C   UNL     1       4.399   4.811   0.874  0.00  0.00    +0.003 C 
ATOM     13  C   UNL     1       3.235   3.960   1.389  0.00  0.00    +0.035 C 
ATOM     14  N   UNL     1       2.854   2.932  -0.814  0.00  0.00    -0.284 N 
ATOM     15  C   UNL     1       1.685   2.315  -1.073  0.00  0.00    +0.326 C 
ATOM     16  O   UNL     1       1.137   2.333  -2.157  0.00  0.00    -0.251 OA
ATOM     17  H   UNL     1       3.388   3.450  -1.436  0.00  0.00    +0.151 HD
ENDBRANCH   3   5
BRANCH   1  18
ATOM     18  C   UNL     1      -2.482   0.853   0.018  0.00  0.00    +0.176 C 
BRANCH  18  19
ATOM     19  S   UNL     1      -3.874   2.010   0.031  0.00  0.00    -0.056 S 
BRANCH  19  23
ATOM     20  C   UNL     1      -7.195   0.012   0.036  0.00  0.00    +0.222 A 
ATOM     21  N   UNL     1      -6.313  -0.943   0.027  0.00  0.00    -0.111 NA
ATOM     22  N   UNL     1      -5.130  -0.437   0.025  0.00  0.00    -0.101 NA
ATOM     23  C   UNL     1      -5.218   0.872   0.032  0.00  0.00    +0.278 A 
ATOM     24  O   UNL     1      -6.528   1.183   0.045  0.00  0.00    -0.415 OA
BRANCH  20  25
ATOM     25  C   UNL     1      -8.693  -0.160   0.042  0.00  0.00    +0.132 C 
BRANCH  25  29
ATOM     26  C   UNL     1     -10.089  -0.343   4.075  0.00  0.00    +0.000 A 
ATOM     27  C   UNL     1      -9.999   0.876   3.430  0.00  0.00    +0.000 A 
ATOM     28  C   UNL     1      -9.547   0.935   2.125  0.00  0.00    +0.004 A 
ATOM     29  C   UNL     1      -9.185  -0.224   1.465  0.00  0.00    -0.038 A 
ATOM     30  C   UNL     1      -9.280  -1.444   2.109  0.00  0.00    +0.004 A 
ATOM     31  C   UNL     1      -9.727  -1.503   3.416  0.00  0.00    +0.000 A 
ENDBRANCH  25  29
ENDBRANCH  20  25
ENDBRANCH  19  23
ENDBRANCH  18  19
ENDBRANCH   1  18
TORSDOF 6
