REMARK  Name = ZINC35636052
REMARK  9 active torsions:
REMARK  status: ('A' for Active; 'I' for Inactive)
REMARK    1  A    between atoms: C_1  and  N_2
REMARK    2  A    between atoms: C_5  and  C_10
REMARK    3  A    between atoms: N_19  and  C_21
REMARK    4  A    between atoms: C_21  and  C_22
REMARK    5  A    between atoms: N_24  and  C_25
REMARK    6  A    between atoms: C_25  and  C_26
REMARK    7  A    between atoms: C_26  and  N_27
REMARK    8  A    between atoms: N_27  and  C_28
REMARK    9  A    between atoms: N_27  and  C_29
REMARK                            x       y       z     vdW  Elec       q    Type
REMARK                         _______ _______ _______ _____ _____    ______ ____
ROOT
ATOM      1  C   UNL     1      -0.018   1.461   0.010  0.00  0.00    +0.139 C 
ATOM      2  N   UNL     1       0.002  -0.004   0.002  0.00  0.00    -0.260 N 
ATOM      3  C   UNL     1      -1.193  -0.666   0.004  0.00  0.00    +0.042 C 
ATOM      4  C   UNL     1      -1.245  -2.013  -0.003  0.00  0.00    +0.058 C 
ATOM      5  C   UNL     1       0.068  -2.769  -0.014  0.00  0.00    +0.142 C 
ATOM      6  N   UNL     1       1.301  -1.964  -0.016  0.00  0.00    -0.288 N 
ATOM      7  C   UNL     1       1.191  -0.621  -0.013  0.00  0.00    +0.307 C 
ATOM      8  O   UNL     1       2.203   0.052  -0.018  0.00  0.00    -0.252 OA
ATOM      9  C   UNL     1      -2.585  -2.452   0.002  0.00  0.00    +0.247 C 
ATOM     10  O   UNL     1      -2.927  -3.620  -0.003  0.00  0.00    -0.270 OA
ATOM     11  N   UNL     1      -3.437  -1.411   0.012  0.00  0.00    -0.283 N 
ATOM     12  C   UNL     1      -2.626  -0.184   0.015  0.00  0.00    +0.160 C 
ATOM     13  H   UNL     1       2.172  -2.391  -0.023  0.00  0.00    +0.151 HD
ENDROOT
BRANCH   5  14
ATOM     14  C   UNL     1       0.087  -3.650  -1.237  0.00  0.00    -0.022 A 
ATOM     15  C   UNL     1       0.410  -3.113  -2.470  0.00  0.00    +0.008 A 
ATOM     16  C   UNL     1       0.428  -3.919  -3.592  0.00  0.00    +0.038 A 
ATOM     17  C   UNL     1       0.123  -5.265  -3.482  0.00  0.00    +0.123 A 
ATOM     18  C   UNL     1      -0.200  -5.802  -2.247  0.00  0.00    +0.038 A 
ATOM     19  C   UNL     1      -0.212  -4.995  -1.125  0.00  0.00    +0.008 A 
ATOM     20  F   UNL     1       0.140  -6.054  -4.578  0.00  0.00    -0.205 F 
ENDBRANCH   5  14
BRANCH  11  21
ATOM     21  C   UNL     1      -4.900  -1.485   0.019  0.00  0.00    +0.204 C 
BRANCH  21  22
ATOM     22  C   UNL     1      -5.394  -1.519   1.442  0.00  0.00    +0.230 C 
ATOM     23  O   UNL     1      -4.603  -1.484   2.360  0.00  0.00    -0.274 OA
ATOM     24  N   UNL     1      -6.717  -1.587   1.695  0.00  0.00    -0.316 N 
ATOM     25  H   UNL     1      -7.350  -1.615   0.961  0.00  0.00    +0.149 HD
BRANCH  24  26
ATOM     26  C   UNL     1      -7.197  -1.620   3.079  0.00  0.00    +0.085 C 
BRANCH  26  27
ATOM     27  C   UNL     1      -8.725  -1.698   3.086  0.00  0.00    -0.061 C 
BRANCH  27  28
ATOM     28  N   UNL     1      -9.207  -1.730   4.473  0.00  0.00    +0.377 N 
ATOM     29  C   UNL     1     -10.675  -1.684   4.483  0.00  0.00    -0.097 C 
ATOM     30  C   UNL     1      -8.752  -2.968   5.121  0.00  0.00    -0.097 C 
ATOM     31  H   UNL     1      -8.842  -0.934   4.975  0.00  0.00    -0.083 HD
ENDBRANCH  27  28
ENDBRANCH  26  27
ENDBRANCH  24  26
ENDBRANCH  21  22
ENDBRANCH  11  21
TORSDOF 6
