REMARK  Name = ZINC35379219
REMARK  9 active torsions:
REMARK  status: ('A' for Active; 'I' for Inactive)
REMARK    1  A    between atoms: C_1  and  C_2
REMARK    2  A    between atoms: C_7  and  S_8
REMARK    3  A    between atoms: S_8  and  N_11
REMARK    4  A    between atoms: C_15  and  C_18
REMARK    5  A    between atoms: N_20  and  C_21
REMARK    6  A    between atoms: C_21  and  C_22
REMARK    7  A    between atoms: C_22  and  N_23
REMARK    8  A    between atoms: C_26  and  C_29
REMARK    9  A    between atoms: C_31  and  C_36
REMARK                            x       y       z     vdW  Elec       q    Type
REMARK                         _______ _______ _______ _____ _____    ______ ____
ROOT
ATOM      1  N   UNL     1       1.449   1.022   2.801  0.00  0.00    -0.176 NA
ATOM      2  C   UNL     1       2.647   0.415   3.396  0.00  0.00    +0.109 C 
ATOM      3  C   UNL     1       3.188   1.352   4.481  0.00  0.00    +0.018 C 
ATOM      4  C   UNL     1       3.420   2.741   3.881  0.00  0.00    +0.015 C 
ATOM      5  C   UNL     1       2.091   3.306   3.372  0.00  0.00    +0.091 C 
ATOM      6  C   UNL     1       1.540   2.389   2.269  0.00  0.00    +0.122 C 
ENDROOT
BRANCH   5   7
ATOM      7  C   UNL     1       2.315   4.687   2.811  0.00  0.00    +0.217 C 
ATOM      8  O   UNL     1       2.055   4.919   1.649  0.00  0.00    -0.275 OA
ATOM      9  N   UNL     1       2.803   5.664   3.600  0.00  0.00    -0.317 N 
ATOM     10  H   UNL     1       3.011   5.479   4.529  0.00  0.00    +0.149 HD
BRANCH   9  11
ATOM     11  C   UNL     1       3.020   7.006   3.055  0.00  0.00    +0.085 C 
BRANCH  11  12
ATOM     12  C   UNL     1       3.576   7.918   4.150  0.00  0.00    -0.060 C 
BRANCH  12  13
ATOM     13  N   UNL     1       3.793   9.264   3.603  0.00  0.00    +0.381 N 
ATOM     14  C   UNL     1       2.503   9.848   3.218  0.00  0.00    -0.079 C 
ATOM     15  C   UNL     1       2.731  11.217   2.573  0.00  0.00    -0.016 C 
ATOM     16  C   UNL     1       3.430  12.138   3.577  0.00  0.00    -0.018 C 
ATOM     17  C   UNL     1       4.739  11.484   4.029  0.00  0.00    -0.016 C 
ATOM     18  C   UNL     1       4.437  10.105   4.620  0.00  0.00    -0.079 C 
ATOM     19  C   UNL     1       3.733  13.483   2.913  0.00  0.00    +0.007 C 
ATOM     20  H   UNL     1       4.389   9.204   2.792  0.00  0.00    -0.082 HD
ENDBRANCH  12  13
ENDBRANCH  11  12
ENDBRANCH   9  11
ENDBRANCH   5   7
BRANCH   1  21
ATOM     21  S   UNL     1       0.026   0.179   2.724  0.00  0.00    +0.061 S 
ATOM     22  O   UNL     1      -1.013   1.145   2.639  0.00  0.00    -0.153 OA
ATOM     23  O   UNL     1       0.076  -0.798   3.754  0.00  0.00    -0.153 OA
BRANCH  21  30
ATOM     24  C   UNL     1      -0.018   1.503   0.010  0.00  0.00    +0.046 C 
ATOM     25  C   UNL     1       0.002  -0.004   0.002  0.00  0.00    -0.022 A 
ATOM     26  C   UNL     1       0.006  -0.687  -1.201  0.00  0.00    +0.032 A 
ATOM     27  C   UNL     1       0.024  -2.071  -1.206  0.00  0.00    +0.076 A 
ATOM     28  C   UNL     1       0.039  -2.773  -0.002  0.00  0.00    +0.145 A 
ATOM     29  C   UNL     1       0.036  -2.083   1.198  0.00  0.00    +0.076 A 
ATOM     30  C   UNL     1       0.023  -0.700   1.196  0.00  0.00    +0.112 A 
ATOM     31  O   UNL     1       0.054  -4.133  -0.019  0.00  0.00    -0.478 OA
ATOM     32  C   UNL     1      -0.636  -4.769  -1.098  0.00  0.00    +0.256 C 
ATOM     33  C   UNL     1      -0.269  -4.101  -2.399  0.00  0.00    +0.258 C 
ATOM     34  O   UNL     1      -0.241  -4.744  -3.427  0.00  0.00    -0.271 OA
ATOM     35  N   UNL     1       0.029  -2.784  -2.414  0.00  0.00    -0.280 N 
ATOM     36  C   UNL     1      -0.239  -6.246  -1.155  0.00  0.00    +0.062 C 
ATOM     37  H   UNL     1       0.242  -2.337  -3.248  0.00  0.00    +0.155 HD
ENDBRANCH  21  30
ENDBRANCH   1  21
TORSDOF 6
