REMARK  Name = ZINC42954875
REMARK  12 active torsions:
REMARK  status: ('A' for Active; 'I' for Inactive)
REMARK    1  A    between atoms: C_1  and  C_2
REMARK    2  A    between atoms: C_2  and  N_3
REMARK    3  A    between atoms: N_3  and  C_4
REMARK    4  A    between atoms: N_3  and  C_11
REMARK    5  A    between atoms: C_4  and  C_5
REMARK    6  A    between atoms: N_7  and  C_8
REMARK    7  A    between atoms: C_8  and  C_9
REMARK    8  A    between atoms: C_8  and  C_10
REMARK    9  A    between atoms: C_11  and  C_13
REMARK   10  A    between atoms: C_11  and  C_20
REMARK   11  A    between atoms: C_20  and  C_22
REMARK   12  A    between atoms: C_20  and  N_23
REMARK                            x       y       z     vdW  Elec       q    Type
REMARK                         _______ _______ _______ _____ _____    ______ ____
ROOT
ATOM      1  C   UNL     1      -0.180  -0.078   2.415  0.00  0.00    +0.073 C 
ENDROOT
BRANCH   1   2
ATOM      2  C   UNL     1      -0.536   1.386   2.385  0.00  0.00    -0.032 A 
ATOM      3  C   UNL     1       0.436   2.328   2.103  0.00  0.00    +0.006 A 
ATOM      4  C   UNL     1       0.111   3.671   2.075  0.00  0.00    +0.015 A 
ATOM      5  C   UNL     1      -1.188   4.073   2.330  0.00  0.00    +0.018 A 
ATOM      6  C   UNL     1      -2.160   3.131   2.613  0.00  0.00    +0.015 A 
ATOM      7  C   UNL     1      -1.835   1.787   2.635  0.00  0.00    +0.006 A 
ATOM      8 BR   UNL     1      -1.633   5.910   2.292  0.00  0.00    -0.050 Br
ENDBRANCH   1   2
BRANCH   1   9
ATOM      9  C   UNL     1       0.428  -0.427   3.775  0.00  0.00    -0.056 C 
ATOM     10  C   UNL     1       1.756   0.315   3.945  0.00  0.00    -0.012 C 
BRANCH   9  11
ATOM     11  N   UNL     1      -0.497  -0.027   4.843  0.00  0.00    +0.381 N 
ATOM     12  H   UNL     1      -0.659   0.967   4.793  0.00  0.00    -0.090 HD
ATOM     13  H   UNL     1      -1.372  -0.517   4.731  0.00  0.00    -0.090 HD
ATOM     14  H   UNL     1      -0.095  -0.258   5.740  0.00  0.00    -0.090 HD
ENDBRANCH   9  11
ENDBRANCH   1   9
BRANCH   1  15
ATOM     15  N   UNL     1       0.793  -0.367   1.354  0.00  0.00    -0.289 NA
BRANCH  15  17
ATOM     16  C   UNL     1      -1.014  -0.761  -0.252  0.00  0.00    +0.020 C 
ATOM     17  C   UNL     1       0.268   0.022   0.038  0.00  0.00    +0.082 C 
ENDBRANCH  15  17
BRANCH  15  18
ATOM     18  C   UNL     1       1.181  -1.784   1.367  0.00  0.00    +0.180 C 
BRANCH  18  19
ATOM     19  C   UNL     1       2.349  -1.994   0.439  0.00  0.00    +0.227 C 
ATOM     20  O   UNL     1       2.813  -1.056  -0.173  0.00  0.00    -0.274 OA
ATOM     21  N   UNL     1       2.879  -3.224   0.290  0.00  0.00    -0.312 N 
ATOM     22  H   UNL     1       2.508  -3.975   0.780  0.00  0.00    +0.149 HD
BRANCH  21  23
ATOM     23  C   UNL     1       4.015  -3.428  -0.613  0.00  0.00    +0.067 C 
ATOM     24  C   UNL     1       5.317  -3.118   0.129  0.00  0.00    +0.027 C 
ATOM     25  C   UNL     1       4.034  -4.882  -1.089  0.00  0.00    +0.027 C 
ENDBRANCH  21  23
ENDBRANCH  18  19
ENDBRANCH  15  18
ENDBRANCH   1  15
TORSDOF 8
