REMARK  Name = ZINC39652678
REMARK  9 active torsions:
REMARK  status: ('A' for Active; 'I' for Inactive)
REMARK    1  A    between atoms: C_1  and  C_2
REMARK    2  A    between atoms: C_2  and  O_3
REMARK    3  A    between atoms: O_3  and  C_4
REMARK    4  A    between atoms: C_9  and  C_10
REMARK    5  A    between atoms: C_10  and  C_11
REMARK    6  A    between atoms: C_11  and  N_12
REMARK    7  A    between atoms: C_13  and  C_15
REMARK    8  A    between atoms: C_26  and  C_28
REMARK    9  A    between atoms: C_28  and  C_29
REMARK                            x       y       z     vdW  Elec       q    Type
REMARK                         _______ _______ _______ _____ _____    ______ ____
ROOT
ATOM      1  C   UNL     1      -7.203   1.180  -2.525  0.00  0.00    +0.100 C 
ATOM      2  C   UNL     1      -8.457   0.388  -2.092  0.00  0.00    +0.121 C 
ATOM      3  N   UNL     1      -9.553   0.939  -2.925  0.00  0.00    -0.300 N 
ATOM      4  C   UNL     1      -8.934   1.149  -4.256  0.00  0.00    +0.115 C 
ATOM      5  C   UNL     1      -7.519   1.677  -3.945  0.00  0.00    -0.004 C 
ATOM      6  C   UNL     1      -6.514   1.106  -4.941  0.00  0.00    -0.010 C 
ATOM      7  C   UNL     1      -6.813   1.661  -6.337  0.00  0.00    -0.082 C 
ATOM      8  N   UNL     1      -6.730   3.126  -6.311  0.00  0.00    +0.379 N 
ATOM      9  C   UNL     1      -7.763   3.671  -5.422  0.00  0.00    -0.082 C 
ATOM     10  C   UNL     1      -7.504   3.202  -3.988  0.00  0.00    -0.010 C 
ATOM     11  C   UNL     1     -10.824   1.191  -2.556  0.00  0.00    +0.220 C 
ATOM     12  O   UNL     1     -11.610   1.645  -3.360  0.00  0.00    -0.275 OA
ATOM     13  H   UNL     1      -5.820   3.404  -5.978  0.00  0.00    -0.086 HD
ATOM     14  H   UNL     1      -6.868   3.485  -7.244  0.00  0.00    -0.086 HD
ENDROOT
BRANCH   1  16
ATOM     15  N   UNL     1      -4.768   0.794  -2.317  0.00  0.00    -0.315 N 
ATOM     16  C   UNL     1      -5.994   0.280  -2.541  0.00  0.00    +0.218 C 
ATOM     17  O   UNL     1      -6.124  -0.907  -2.754  0.00  0.00    -0.275 OA
ATOM     18  H   UNL     1      -4.664   1.743  -2.146  0.00  0.00    +0.149 HD
BRANCH  15  19
ATOM     19  C   UNL     1      -3.593  -0.081  -2.333  0.00  0.00    +0.109 C 
BRANCH  19  20
ATOM     20  C   UNL     1      -2.337   0.747  -2.054  0.00  0.00    +0.057 C 
BRANCH  20  26
ATOM     21  C   UNL     1      -0.502  -0.453  -3.270  0.00  0.00    +0.124 A 
ATOM     22  C   UNL     1       0.614  -1.277  -3.281  0.00  0.00    +0.046 A 
ATOM     23  C   UNL     1       1.095  -1.802  -2.097  0.00  0.00    +0.004 A 
ATOM     24  C   UNL     1       0.465  -1.505  -0.902  0.00  0.00    +0.000 A 
ATOM     25  C   UNL     1      -0.647  -0.684  -0.888  0.00  0.00    +0.007 A 
ATOM     26  C   UNL     1      -1.129  -0.153  -2.069  0.00  0.00    -0.004 A 
BRANCH  21  27
ATOM     27  O   UNL     1      -0.977   0.065  -4.434  0.00  0.00    -0.492 OA
BRANCH  27  29
ATOM     28  C   UNL     1      -0.958   0.385  -6.829  0.00  0.00    +0.048 C 
ATOM     29  C   UNL     1      -0.282  -0.287  -5.631  0.00  0.00    +0.225 C 
ENDBRANCH  27  29
ENDBRANCH  21  27
ENDBRANCH  20  26
ENDBRANCH  19  20
ENDBRANCH  15  19
ENDBRANCH   1  16
BRANCH  11  30
ATOM     30  C   UNL     1     -11.269   0.910  -1.144  0.00  0.00    +0.131 C 
BRANCH  30  31
ATOM     31  C   UNL     1     -12.722   1.277  -0.992  0.00  0.00    -0.039 A 
ATOM     32  C   UNL     1     -13.075   2.557  -0.608  0.00  0.00    +0.005 A 
ATOM     33  C   UNL     1     -14.408   2.894  -0.469  0.00  0.00    +0.020 A 
ATOM     34  C   UNL     1     -15.390   1.950  -0.714  0.00  0.00    +0.041 A 
ATOM     35  C   UNL     1     -15.036   0.669  -1.099  0.00  0.00    +0.020 A 
ATOM     36  C   UNL     1     -13.703   0.335  -1.243  0.00  0.00    +0.005 A 
ATOM     37 CL   UNL     1     -17.064   2.373  -0.539  0.00  0.00    -0.084 Cl
ENDBRANCH  30  31
ENDBRANCH  11  30
TORSDOF 8
