REMARK  Name = ZINC08394609
REMARK  7 active torsions:
REMARK  status: ('A' for Active; 'I' for Inactive)
REMARK    1  A    between atoms: C_3  and  S_23
REMARK    2  A    between atoms: C_6  and  C_7
REMARK    3  A    between atoms: C_7  and  N_44
REMARK    4  A    between atoms: C_8  and  C_9
REMARK    5  A    between atoms: C_8  and  C_16
REMARK    6  A    between atoms: C_8  and  N_44
REMARK    7  A    between atoms: S_23  and  N_26
REMARK                            x       y       z     vdW  Elec       q    Type
REMARK                         _______ _______ _______ _____ _____    ______ ____
ROOT
ATOM      1  N   UNL     1       2.221   4.096   0.889  0.00  0.00    +0.389 N 
ATOM      2  H   UNL     1       3.034   3.473   0.823  0.00  0.00    -0.084 HD
ATOM      3  H   UNL     1       2.489   5.041   0.590  0.00  0.00    -0.084 HD
ENDROOT
BRANCH   1   4
ATOM      4  C   UNL     1       1.756   4.142   2.289  0.00  0.00    -0.045 C 
BRANCH   4  10
ATOM      5  C   UNL     1       3.766   3.776   3.734  0.00  0.00    +0.003 A 
ATOM      6  C   UNL     1       4.790   4.251   4.532  0.00  0.00    +0.029 A 
ATOM      7  C   UNL     1       4.912   5.608   4.766  0.00  0.00    +0.105 A 
ATOM      8  C   UNL     1       4.012   6.490   4.198  0.00  0.00    +0.029 A 
ATOM      9  C   UNL     1       2.991   6.016   3.397  0.00  0.00    +0.003 A 
ATOM     10  C   UNL     1       2.869   4.659   3.162  0.00  0.00    -0.064 A 
BRANCH   7  11
ATOM     11  S   UNL     1       6.215   6.213   5.786  0.00  0.00    +0.056 S 
ATOM     12  O   UNL     1       7.245   5.234   5.753  0.00  0.00    -0.153 OA
ATOM     13  O   UNL     1       6.436   7.564   5.405  0.00  0.00    -0.153 OA
BRANCH  11  14
ATOM     14  N   UNL     1       5.644   6.246   7.340  0.00  0.00    -0.204 NA
ATOM     15  H   UNL     1       4.737   5.960   7.530  0.00  0.00    +0.144 HD
ATOM     16  H   UNL     1       6.217   6.553   8.061  0.00  0.00    +0.144 HD
ENDBRANCH  11  14
ENDBRANCH   7  11
ENDBRANCH   4  10
ENDBRANCH   1   4
BRANCH   1  17
ATOM     17  C   UNL     1       1.149   3.593   0.010  0.00  0.00    -0.010 C 
BRANCH  17  18
ATOM     18  C   UNL     1       1.171   2.086   0.002  0.00  0.00    -0.057 A 
ATOM     19  C   UNL     1      -0.017   1.378   0.010  0.00  0.00    +0.005 A 
ATOM     20  C   UNL     1       0.002  -0.004   0.002  0.00  0.00    +0.038 A 
ATOM     21  C   UNL     1       1.211  -0.679  -0.013  0.00  0.00    +0.123 A 
ATOM     22  C   UNL     1       2.399   0.031  -0.021  0.00  0.00    +0.038 A 
ATOM     23  C   UNL     1       2.378   1.413  -0.013  0.00  0.00    +0.005 A 
ATOM     24  F   UNL     1       1.230  -2.030  -0.020  0.00  0.00    -0.205 F 
ENDBRANCH  17  18
BRANCH  17  25
ATOM     25  C   UNL     1       1.375   4.105  -1.389  0.00  0.00    -0.057 A 
ATOM     26  C   UNL     1       2.657   4.166  -1.903  0.00  0.00    +0.005 A 
ATOM     27  C   UNL     1       2.865   4.631  -3.188  0.00  0.00    +0.038 A 
ATOM     28  C   UNL     1       1.791   5.047  -3.956  0.00  0.00    +0.123 A 
ATOM     29  C   UNL     1       0.508   4.991  -3.438  0.00  0.00    +0.038 A 
ATOM     30  C   UNL     1       0.302   4.520  -2.155  0.00  0.00    +0.005 A 
ATOM     31  F   UNL     1       1.994   5.506  -5.210  0.00  0.00    -0.205 F 
ENDBRANCH  17  25
ENDBRANCH   1  17
TORSDOF 7
