REMARK  Name = ZINC08623649
REMARK  6 active torsions:
REMARK  status: ('A' for Active; 'I' for Inactive)
REMARK    1  A    between atoms: C_1  and  C_2
REMARK    2  A    between atoms: C_8  and  N_10
REMARK    3  A    between atoms: C_14  and  C_16
REMARK    4  A    between atoms: C_16  and  N_17
REMARK    5  A    between atoms: C_20  and  C_24
REMARK    6  A    between atoms: C_20  and  C_25
REMARK                            x       y       z     vdW  Elec       q    Type
REMARK                         _______ _______ _______ _____ _____    ______ ____
ROOT
ATOM      1  C   UNL     1      -1.900   1.179  -5.823  0.00  0.00    +0.214 C 
ENDROOT
BRANCH   1   2
ATOM      2  N   UNL     1      -1.631   0.284  -6.952  0.00  0.00    -0.215 N 
ATOM      3  C   UNL     1      -2.379  -0.794  -7.258  0.00  0.00    +0.251 C 
ATOM      4  O   UNL     1      -3.364  -1.193  -6.673  0.00  0.00    -0.272 OA
ATOM      5  C   UNL     1      -1.734  -1.405  -8.486  0.00  0.00    +0.135 C 
ATOM      6  N   UNL     1      -0.590  -0.516  -8.754  0.00  0.00    -0.281 N 
ATOM      7  C   UNL     1      -0.617   0.441  -7.809  0.00  0.00    +0.310 C 
ATOM      8  O   UNL     1       0.192   1.345  -7.741  0.00  0.00    -0.252 OA
ATOM      9  C   UNL     1      -1.256  -2.829  -8.191  0.00  0.00    +0.047 C 
ATOM     10  H   UNL     1       0.055  -0.603  -9.473  0.00  0.00    +0.152 HD
BRANCH   5  11
ATOM     11  C   UNL     1      -2.693  -1.400  -9.648  0.00  0.00    -0.015 A 
ATOM     12  C   UNL     1      -4.054  -1.495  -9.421  0.00  0.00    +0.007 A 
ATOM     13  C   UNL     1      -4.934  -1.484 -10.486  0.00  0.00    +0.020 A 
ATOM     14  C   UNL     1      -4.454  -1.389 -11.780  0.00  0.00    +0.041 A 
ATOM     15  C   UNL     1      -3.092  -1.300 -12.006  0.00  0.00    +0.020 A 
ATOM     16  C   UNL     1      -2.212  -1.305 -10.940  0.00  0.00    +0.007 A 
ATOM     17 CL   UNL     1      -5.559  -1.384 -13.118  0.00  0.00    -0.084 Cl
ENDBRANCH   5  11
ENDBRANCH   1   2
BRANCH   1  22
ATOM     18  N   UNL     1      -0.721   1.571  -1.179  0.00  0.00    -0.296 N 
ATOM     19  C   UNL     1      -0.620   0.902  -2.344  0.00  0.00    +0.306 C 
ATOM     20  O   UNL     1       0.058  -0.104  -2.411  0.00  0.00    -0.252 OA
ATOM     21  N   UNL     1      -1.272   1.349  -3.436  0.00  0.00    -0.239 N 
ATOM     22  C   UNL     1      -1.171   0.679  -4.602  0.00  0.00    +0.238 C 
ATOM     23  O   UNL     1      -0.494  -0.324  -4.668  0.00  0.00    -0.274 OA
ATOM     24  H   UNL     1      -1.263   2.374  -1.126  0.00  0.00    +0.151 HD
ATOM     25  H   UNL     1      -1.814   2.151  -3.383  0.00  0.00    +0.159 HD
BRANCH  18  32
ATOM     26  C   UNL     1      -2.164   1.050   1.278  0.00  0.00    +0.009 C 
ATOM     27  C   UNL     1      -0.729   1.579   1.267  0.00  0.00    +0.006 C 
ATOM     28  C   UNL     1      -0.750   3.109   1.275  0.00  0.00    +0.005 C 
ATOM     29  C   UNL     1       0.686   3.639   1.264  0.00  0.00    +0.000 C 
ATOM     30  C   UNL     1       1.402   3.145   0.006  0.00  0.00    +0.002 C 
ATOM     31  C   UNL     1       1.423   1.615  -0.003  0.00  0.00    +0.022 C 
ATOM     32  C   UNL     1      -0.013   1.086   0.008  0.00  0.00    +0.077 C 
ENDBRANCH  18  32
ENDBRANCH   1  22
TORSDOF 4
