REMARK  Name = ZINC08695239
REMARK  17 active torsions:
REMARK  status: ('A' for Active; 'I' for Inactive)
REMARK    1  A    between atoms: C_1  and  C_2
REMARK    2  A    between atoms: C_2  and  C_3
REMARK    3  A    between atoms: C_3  and  C_4
REMARK    4  A    between atoms: C_4  and  N_69
REMARK    5  A    between atoms: C_5  and  C_6
REMARK    6  A    between atoms: C_5  and  N_69
REMARK    7  A    between atoms: C_6  and  C_7
REMARK    8  A    between atoms: C_7  and  C_8
REMARK    9  A    between atoms: C_9  and  C_10
REMARK   10  A    between atoms: C_9  and  N_69
REMARK   11  A    between atoms: C_10  and  C_11
REMARK   12  A    between atoms: C_11  and  N_12
REMARK   13  A    between atoms: C_13  and  C_29
REMARK   14  A    between atoms: C_15  and  C_20
REMARK   15  A    between atoms: C_16  and  O_19
REMARK   16  A    between atoms: C_20  and  C_22
REMARK   17  A    between atoms: C_25  and  C_28
REMARK                            x       y       z     vdW  Elec       q    Type
REMARK                         _______ _______ _______ _____ _____    ______ ____
ROOT
ATOM      1  N   UNL     1      -1.228   5.774   7.894  0.00  0.00    -0.281 N 
ATOM      2  C   UNL     1      -1.835   6.935   7.232  0.00  0.00    +0.180 C 
ATOM      3  C   UNL     1      -0.700   7.876   6.905  0.00  0.00    +0.074 C 
ATOM      4  C   UNL     1       0.436   7.287   7.348  0.00  0.00    +0.188 C 
ATOM      5  C   UNL     1       0.099   5.986   7.965  0.00  0.00    +0.282 C 
ATOM      6  O   UNL     1       0.901   5.221   8.461  0.00  0.00    -0.267 OA
ENDROOT
BRANCH   2   7
ATOM      7  C   UNL     1      -2.816   7.606   8.159  0.00  0.00    +0.130 A 
ATOM      8  C   UNL     1      -4.000   8.135   7.802  0.00  0.00    +0.047 A 
ATOM      9  C   UNL     1      -4.587   8.655   8.978  0.00  0.00    +0.041 A 
ATOM     10  C   UNL     1      -3.727   8.413   9.983  0.00  0.00    +0.195 A 
ATOM     11  O   UNL     1      -2.658   7.771   9.482  0.00  0.00    -0.466 OA
ENDBRANCH   2   7
BRANCH   4  12
ATOM     12  O   UNL     1       1.680   7.807   7.248  0.00  0.00    -0.502 OA
ATOM     13  H   UNL     1       2.340   7.174   7.652  0.00  0.00    +0.292 HD
ENDBRANCH   4  12
BRANCH   3  14
ATOM     14  C   UNL     1      -0.806   9.177   6.238  0.00  0.00    +0.195 C 
ATOM     15  O   UNL     1      -0.517  10.194   6.839  0.00  0.00    -0.287 OA
BRANCH  14  16
ATOM     16  C   UNL     1      -1.265   9.252   4.834  0.00  0.00    +0.022 A 
ATOM     17  C   UNL     1      -1.510   8.082   4.112  0.00  0.00    +0.012 A 
ATOM     18  C   UNL     1      -1.942   8.159   2.805  0.00  0.00    +0.004 A 
ATOM     19  C   UNL     1      -2.123   9.393   2.205  0.00  0.00    -0.050 A 
ATOM     20  C   UNL     1      -1.877  10.556   2.912  0.00  0.00    +0.004 A 
ATOM     21  C   UNL     1      -1.450  10.493   4.222  0.00  0.00    +0.012 A 
ATOM     22  C   UNL     1      -2.590   9.469   0.774  0.00  0.00    +0.044 C 
ENDBRANCH  14  16
ENDBRANCH   3  14
BRANCH   1  23
ATOM     23  C   UNL     1      -1.941   4.596   8.394  0.00  0.00    +0.107 C 
BRANCH  23  24
ATOM     24  C   UNL     1      -2.024   3.542   7.288  0.00  0.00    +0.000 C 
BRANCH  24  25
ATOM     25  C   UNL     1      -2.769   2.312   7.810  0.00  0.00    -0.077 C 
BRANCH  25  26
ATOM     26  N   UNL     1      -2.821   1.296   6.738  0.00  0.00    +0.380 N 
ATOM     27  H   UNL     1      -1.873   1.143   6.377  0.00  0.00    -0.082 HD
BRANCH  26  28
ATOM     28  C   UNL     1      -3.685   1.769   5.636  0.00  0.00    -0.079 C 
BRANCH  28  29
ATOM     29  C   UNL     1      -5.098   2.058   6.147  0.00  0.00    -0.019 C 
BRANCH  29  31
ATOM     30  C   UNL     1      -7.382   2.837   5.500  0.00  0.00    +0.004 C 
ATOM     31  C   UNL     1      -5.969   2.549   4.989  0.00  0.00    -0.005 C 
ENDBRANCH  29  31
ENDBRANCH  28  29
ENDBRANCH  26  28
BRANCH  26  32
ATOM     32  C   UNL     1      -3.342   0.021   7.276  0.00  0.00    -0.079 C 
BRANCH  32  33
ATOM     33  C   UNL     1      -2.968  -1.106   6.312  0.00  0.00    -0.019 C 
BRANCH  33  34
ATOM     34  C   UNL     1      -3.563  -2.424   6.813  0.00  0.00    -0.005 C 
ATOM     35  C   UNL     1      -3.189  -3.552   5.849  0.00  0.00    +0.004 C 
ENDBRANCH  33  34
ENDBRANCH  32  33
ENDBRANCH  26  32
ENDBRANCH  25  26
ENDBRANCH  24  25
ENDBRANCH  23  24
ENDBRANCH   1  23
TORSDOF 14
