REMARK  Name = ZINC03522738
REMARK  10 active torsions:
REMARK  status: ('A' for Active; 'I' for Inactive)
REMARK    1  A    between atoms: C_1  and  C_2
REMARK    2  A    between atoms: C_2  and  C_4
REMARK    3  A    between atoms: C_2  and  O_17
REMARK    4  A    between atoms: N_6  and  C_7
REMARK    5  A    between atoms: C_10  and  S_13
REMARK    6  A    between atoms: S_13  and  N_16
REMARK    7  A    between atoms: O_17  and  C_18
REMARK    8  A    between atoms: C_18  and  C_20
REMARK    9  A    between atoms: C_25  and  O_26
REMARK   10  A    between atoms: O_26  and  C_27
REMARK                            x       y       z     vdW  Elec       q    Type
REMARK                         _______ _______ _______ _____ _____    ______ ____
ROOT
ATOM      1  C   UNL     1      -1.255   3.412   0.128  0.00  0.00    +0.258 C 
ATOM      2  O   UNL     1      -0.215   4.035   0.127  0.00  0.00    -0.271 OA
ATOM      3  N   UNL     1      -1.237   2.069   0.019  0.00  0.00    -0.282 N 
ATOM      4  H   UNL     1      -2.070   1.577  -0.057  0.00  0.00    +0.155 HD
ENDROOT
BRANCH   3   5
ATOM      5  C   UNL     1      -0.017   1.384   0.015  0.00  0.00    +0.034 A 
ATOM      6  C   UNL     1       0.127   0.222  -0.732  0.00  0.00    +0.025 A 
ATOM      7  C   UNL     1       1.331  -0.454  -0.730  0.00  0.00    +0.030 A 
ATOM      8  C   UNL     1       2.392   0.023   0.017  0.00  0.00    +0.105 A 
ATOM      9  C   UNL     1       2.252   1.180   0.762  0.00  0.00    +0.030 A 
ATOM     10  C   UNL     1       1.051   1.861   0.763  0.00  0.00    +0.025 A 
BRANCH   8  11
ATOM     11  S   UNL     1       3.927  -0.843   0.017  0.00  0.00    +0.056 S 
ATOM     12  O   UNL     1       3.970  -1.593  -1.189  0.00  0.00    -0.153 OA
ATOM     13  O   UNL     1       4.928   0.105   0.361  0.00  0.00    -0.153 OA
BRANCH  11  14
ATOM     14  N   UNL     1       3.869  -1.941   1.256  0.00  0.00    -0.204 NA
ATOM     15  H   UNL     1       4.361  -2.774   1.189  0.00  0.00    +0.144 HD
ATOM     16  H   UNL     1       3.342  -1.751   2.048  0.00  0.00    +0.144 HD
ENDBRANCH  11  14
ENDBRANCH   8  11
ENDBRANCH   3   5
BRANCH   1  18
ATOM     17  C   UNL     1      -3.375   3.960  -1.036  0.00  0.00    +0.062 C 
ATOM     18  C   UNL     1      -2.569   4.140   0.252  0.00  0.00    +0.259 C 
BRANCH  18  19
ATOM     19  O   UNL     1      -2.320   5.554   0.473  0.00  0.00    -0.449 OA
BRANCH  19  20
ATOM     20  C   UNL     1      -3.236   6.231   1.194  0.00  0.00    +0.343 C 
ATOM     21  O   UNL     1      -4.215   5.655   1.626  0.00  0.00    -0.245 OA
BRANCH  20  22
ATOM     22  C   UNL     1      -3.049   7.668   1.459  0.00  0.00    +0.102 A 
ATOM     23  C   UNL     1      -1.921   8.333   0.969  0.00  0.00    +0.038 A 
ATOM     24  C   UNL     1      -1.755   9.679   1.216  0.00  0.00    +0.042 A 
ATOM     25  C   UNL     1      -2.697  10.375   1.958  0.00  0.00    +0.023 A 
ATOM     26  C   UNL     1      -3.813   9.729   2.451  0.00  0.00    +0.048 A 
ATOM     27  C   UNL     1      -3.999   8.377   2.208  0.00  0.00    +0.134 A 
ATOM     28 CL   UNL     1      -0.358  10.505   0.600  0.00  0.00    -0.084 Cl
BRANCH  27  29
ATOM     29  O   UNL     1      -5.095   7.741   2.694  0.00  0.00    -0.494 OA
ATOM     30  C   UNL     1      -6.019   8.527   3.448  0.00  0.00    +0.277 C 
ENDBRANCH  27  29
ENDBRANCH  20  22
ENDBRANCH  19  20
ENDBRANCH  18  19
ENDBRANCH   1  18
TORSDOF 8
