REMARK  Name = ZINC14468177
REMARK  9 active torsions:
REMARK  status: ('A' for Active; 'I' for Inactive)
REMARK    1  A    between atoms: C_1  and  C_2
REMARK    2  A    between atoms: C_2  and  O_4
REMARK    3  A    between atoms: O_4  and  C_5
REMARK    4  A    between atoms: C_8  and  C_13
REMARK    5  A    between atoms: C_10  and  O_11
REMARK    6  A    between atoms: O_11  and  C_12
REMARK    7  A    between atoms: C_24  and  S_29
REMARK    8  A    between atoms: S_29  and  N_32
REMARK    9  A    between atoms: N_32  and  C_33
REMARK                            x       y       z     vdW  Elec       q    Type
REMARK                         _______ _______ _______ _____ _____    ______ ____
ROOT
ATOM      1  C   UNL     1      -0.943  -6.603  -0.023  0.00  0.00    +0.105 C 
ATOM      2  C   UNL     1      -0.519  -6.998   1.380  0.00  0.00    +0.029 C 
ATOM      3  C   UNL     1      -1.588  -6.937   2.478  0.00  0.00    +0.033 C 
ATOM      4  C   UNL     1      -1.106  -8.027   3.438  0.00  0.00    -0.030 C 
ATOM      5  C   UNL     1      -0.388  -8.927   2.778  0.00  0.00    -0.023 C 
ATOM      6  C   UNL     1      -0.324  -8.544   1.335  0.00  0.00    +0.049 C 
ATOM      7  C   UNL     1       0.846  -8.828   0.476  0.00  0.00    -0.018 A 
ATOM      8  C   UNL     1       1.713  -9.869   0.729  0.00  0.00    +0.034 A 
ATOM      9  C   UNL     1       2.786 -10.103  -0.112  0.00  0.00    +0.109 A 
ATOM     10  C   UNL     1       2.992  -9.291  -1.212  0.00  0.00    +0.030 A 
ATOM     11  C   UNL     1       2.132  -8.243  -1.470  0.00  0.00    +0.025 A 
ATOM     12  C   UNL     1       1.055  -7.995  -0.628  0.00  0.00    +0.031 A 
ATOM     13  N   UNL     1       0.215  -6.904  -0.893  0.00  0.00    -0.336 N 
ATOM     14  H   UNL     1       0.397  -6.336  -1.657  0.00  0.00    +0.147 HD
ENDROOT
BRANCH   1  18
ATOM     15  C   UNL     1      -1.847  -2.425  -0.170  0.00  0.00    +0.173 A 
ATOM     16  C   UNL     1      -0.529  -2.853  -0.179  0.00  0.00    +0.050 A 
ATOM     17  C   UNL     1      -0.240  -4.204  -0.132  0.00  0.00    +0.009 A 
ATOM     18  C   UNL     1      -1.264  -5.131  -0.075  0.00  0.00    -0.023 A 
ATOM     19  C   UNL     1      -2.581  -4.712  -0.066  0.00  0.00    +0.055 A 
ATOM     20  C   UNL     1      -2.877  -3.359  -0.108  0.00  0.00    +0.163 A 
BRANCH  20  21
ATOM     21  O   UNL     1      -4.172  -2.944  -0.094  0.00  0.00    -0.491 OA
ATOM     22  C   UNL     1      -5.177  -3.958  -0.029  0.00  0.00    +0.277 C 
ENDBRANCH  20  21
BRANCH  15  23
ATOM     23  O   UNL     1      -2.133  -1.097  -0.216  0.00  0.00    -0.422 OA
BRANCH  23  25
ATOM     24  C   UNL     1      -2.530   1.040   0.954  0.00  0.00    +0.136 C 
ATOM     25  C   UNL     1      -2.323  -0.452   0.946  0.00  0.00    +0.309 C 
ATOM     26  O   UNL     1      -2.329  -1.069   1.985  0.00  0.00    -0.251 OA
ENDBRANCH  23  25
ENDBRANCH  15  23
ENDBRANCH   1  18
BRANCH   9  27
ATOM     27  S   UNL     1       3.891 -11.435   0.220  0.00  0.00    +0.072 S 
ATOM     28  O   UNL     1       5.157 -11.051  -0.298  0.00  0.00    -0.150 OA
ATOM     29  O   UNL     1       3.701 -11.791   1.582  0.00  0.00    -0.150 OA
BRANCH  27  30
ATOM     30  N   UNL     1       3.383 -12.728  -0.682  0.00  0.00    -0.216 N 
ATOM     31  H   UNL     1       3.960 -13.095  -1.371  0.00  0.00    +0.174 HD
BRANCH  30  32
ATOM     32  C   UNL     1       2.125 -13.289  -0.452  0.00  0.00    +0.048 A 
ATOM     33  C   UNL     1       1.698 -13.531   0.848  0.00  0.00    +0.024 A 
ATOM     34  C   UNL     1       0.454 -14.086   1.072  0.00  0.00    +0.002 A 
ATOM     35  C   UNL     1      -0.367 -14.401   0.005  0.00  0.00    +0.000 A 
ATOM     36  C   UNL     1       0.055 -14.162  -1.290  0.00  0.00    +0.002 A 
ATOM     37  C   UNL     1       1.296 -13.602  -1.521  0.00  0.00    +0.024 A 
ENDBRANCH  30  32
ENDBRANCH  27  30
ENDBRANCH   9  27
TORSDOF 7
