REMARK  Name = ZINC09542775
REMARK  11 active torsions:
REMARK  status: ('A' for Active; 'I' for Inactive)
REMARK    1  A    between atoms: C_1  and  C_2
REMARK    2  A    between atoms: C_2  and  O_3
REMARK    3  A    between atoms: O_3  and  C_4
REMARK    4  A    between atoms: C_8  and  C_11
REMARK    5  A    between atoms: C_9  and  O_10
REMARK    6  A    between atoms: C_14  and  C_28
REMARK    7  A    between atoms: C_16  and  C_18
REMARK    8  A    between atoms: C_21  and  C_24
REMARK    9  A    between atoms: C_24  and  O_26
REMARK   10  A    between atoms: O_26  and  C_27
REMARK   11  A    between atoms: C_31  and  C_34
REMARK                            x       y       z     vdW  Elec       q    Type
REMARK                         _______ _______ _______ _____ _____    ______ ____
ROOT
ATOM      1  C   UNL     1      -4.961   3.975   0.462  0.00  0.00    -0.028 C 
ATOM      2  C   UNL     1      -3.793   3.071   0.055  0.00  0.00    +0.044 C 
ATOM      3  C   UNL     1      -2.520   3.870   0.047  0.00  0.00    +0.040 C 
ATOM      4  N   UNL     1      -2.497   5.149   0.058  0.00  0.00    -0.299 NA
ATOM      5  C   UNL     1      -3.689   5.988   0.079  0.00  0.00    +0.081 C 
ATOM      6  N   UNL     1      -4.877   5.221  -0.325  0.00  0.00    +0.401 N 
ATOM      7  H   UNL     1      -5.719   5.785  -0.161  0.00  0.00    -0.081 HD
ATOM      8  H   UNL     1      -4.809   4.989  -1.323  0.00  0.00    -0.081 HD
ENDROOT
BRANCH   3   9
ATOM      9  C   UNL     1      -1.234   3.144   0.031  0.00  0.00    -0.004 A 
ATOM     10  C   UNL     1      -1.217   1.748   0.017  0.00  0.00    +0.010 A 
ATOM     11  C   UNL     1      -0.013   1.076   0.008  0.00  0.00    +0.004 A 
ATOM     12  C   UNL     1       1.177   1.782   0.000  0.00  0.00    -0.050 A 
ATOM     13  C   UNL     1       1.167   3.166   0.007  0.00  0.00    +0.004 A 
ATOM     14  C   UNL     1      -0.030   3.850   0.023  0.00  0.00    +0.010 A 
ATOM     15  C   UNL     1       2.489   1.041  -0.016  0.00  0.00    +0.044 C 
ENDBRANCH   3   9
BRANCH   1  20
ATOM     16  C   UNL     1      -8.011   1.762   0.821  0.00  0.00    +0.162 A 
ATOM     17  C   UNL     1      -8.668   2.010  -0.373  0.00  0.00    +0.049 A 
ATOM     18  C   UNL     1      -8.126   2.890  -1.291  0.00  0.00    +0.004 A 
ATOM     19  C   UNL     1      -6.930   3.528  -1.018  0.00  0.00    +0.006 A 
ATOM     20  C   UNL     1      -6.267   3.281   0.170  0.00  0.00    -0.016 A 
ATOM     21  C   UNL     1      -6.805   2.400   1.094  0.00  0.00    +0.160 A 
BRANCH  21  22
ATOM     22  O   UNL     1      -6.156   2.159   2.264  0.00  0.00    -0.503 OA
ATOM     23  H   UNL     1      -6.406   2.756   2.983  0.00  0.00    +0.292 HD
ENDBRANCH  21  22
BRANCH  16  24
ATOM     24  O   UNL     1      -8.543   0.896   1.725  0.00  0.00    -0.489 OA
BRANCH  24  26
ATOM     25  C   UNL     1     -10.222  -0.656   2.508  0.00  0.00    +0.048 C 
ATOM     26  C   UNL     1      -9.784   0.277   1.378  0.00  0.00    +0.226 C 
ENDBRANCH  24  26
ENDBRANCH  16  24
ENDBRANCH   1  20
BRANCH   5  27
ATOM     27  C   UNL     1      -3.502   7.144  -0.870  0.00  0.00    -0.040 A 
ATOM     28  C   UNL     1      -4.603   7.714  -1.485  0.00  0.00    +0.004 A 
ATOM     29  C   UNL     1      -4.440   8.776  -2.350  0.00  0.00    +0.015 A 
ATOM     30  C   UNL     1      -3.159   9.267  -2.614  0.00  0.00    +0.059 A 
ATOM     31  C   UNL     1      -2.053   8.683  -1.994  0.00  0.00    +0.015 A 
ATOM     32  C   UNL     1      -2.231   7.626  -1.126  0.00  0.00    +0.004 A 
BRANCH  30  33
ATOM     33  C   UNL     1      -2.977  10.399  -3.545  0.00  0.00    +0.339 C 
ATOM     34  O   UNL     1      -1.862  10.824  -3.773  0.00  0.00    -0.245 OA
BRANCH  33  35
ATOM     35  O   UNL     1      -4.046  10.960  -4.142  0.00  0.00    -0.464 OA
ATOM     36  C   UNL     1      -3.791  12.069  -5.045  0.00  0.00    +0.280 C 
ENDBRANCH  33  35
ENDBRANCH  30  33
ENDBRANCH   5  27
TORSDOF 8
