REMARK  Name = ZINC10352973
REMARK  6 active torsions:
REMARK  status: ('A' for Active; 'I' for Inactive)
REMARK    1  A    between atoms: C_1  and  C_2
REMARK    2  A    between atoms: C_8  and  C_10
REMARK    3  A    between atoms: C_11  and  C_31
REMARK    4  A    between atoms: N_12  and  C_25
REMARK    5  A    between atoms: C_16  and  C_18
REMARK    6  A    between atoms: C_21  and  O_24
REMARK                            x       y       z     vdW  Elec       q    Type
REMARK                         _______ _______ _______ _____ _____    ______ ____
ROOT
ATOM      1  C   UNL     1       5.890  -0.766   0.127  0.00  0.00    +0.056 C 
ATOM      2  C   UNL     1       4.691  -0.156   0.235  0.00  0.00    +0.025 C 
ATOM      3  N   UNL     1       3.528  -0.846   0.036  0.00  0.00    -0.255 N 
ATOM      4  C   UNL     1       3.482  -2.146  -0.283  0.00  0.00    +0.142 C 
ATOM      5  S   UNL     1       1.956  -2.889  -0.511  0.00  0.00    -0.018 S 
ATOM      6  N   UNL     1       4.597  -2.888  -0.431  0.00  0.00    -0.315 N 
ATOM      7  C   UNL     1       5.903  -2.238  -0.232  0.00  0.00    +0.139 C 
ATOM      8  C   UNL     1       4.632   1.309   0.586  0.00  0.00    +0.062 C 
ATOM      9  H   UNL     1       4.540  -3.828  -0.662  0.00  0.00    +0.149 HD
ENDROOT
BRANCH   1  17
ATOM     10  C   UNL     1      11.544   3.068   0.962  0.00  0.00    +0.089 C 
ATOM     11  C   UNL     1      10.413   2.243   1.519  0.00  0.00    +0.136 A 
ATOM     12  C   UNL     1       9.458   1.598   0.810  0.00  0.00    +0.091 A 
ATOM     13  C   UNL     1       8.650   0.983   1.804  0.00  0.00    +0.168 A 
ATOM     14  N   UNL     1       9.176   1.311   2.955  0.00  0.00    -0.063 NA
ATOM     15  O   UNL     1      10.156   2.004   2.813  0.00  0.00    -0.358 OA
ATOM     16  N   UNL     1       7.521   0.193   1.593  0.00  0.00    -0.264 N 
ATOM     17  C   UNL     1       7.095  -0.053   0.339  0.00  0.00    +0.249 C 
ATOM     18  O   UNL     1       7.747   0.337  -0.613  0.00  0.00    -0.270 OA
ATOM     19  H   UNL     1       7.042  -0.179   2.350  0.00  0.00    +0.157 HD
ENDBRANCH   1  17
BRANCH   7  20
ATOM     20  C   UNL     1       6.628  -2.976   0.864  0.00  0.00    -0.022 A 
ATOM     21  C   UNL     1       5.963  -3.305   2.031  0.00  0.00    +0.009 A 
ATOM     22  C   UNL     1       6.623  -3.987   3.035  0.00  0.00    +0.046 A 
ATOM     23  C   UNL     1       7.957  -4.331   2.876  0.00  0.00    +0.117 A 
ATOM     24  C   UNL     1       8.624  -3.995   1.706  0.00  0.00    +0.046 A 
ATOM     25  C   UNL     1       7.957  -3.319   0.703  0.00  0.00    +0.009 A 
BRANCH  23  26
ATOM     26  O   UNL     1       8.611  -4.997   3.864  0.00  0.00    -0.507 OA
ATOM     27  H   UNL     1       9.042  -4.419   4.509  0.00  0.00    +0.292 HD
ENDBRANCH  23  26
ENDBRANCH   7  20
BRANCH   3  28
ATOM     28  C   UNL     1       2.317  -0.154   0.168  0.00  0.00    +0.040 A 
ATOM     29  C   UNL     1       1.712  -0.043   1.413  0.00  0.00    +0.024 A 
ATOM     30  C   UNL     1       0.518   0.640   1.540  0.00  0.00    +0.002 A 
ATOM     31  C   UNL     1      -0.074   1.213   0.429  0.00  0.00    +0.000 A 
ATOM     32  C   UNL     1       0.527   1.104  -0.812  0.00  0.00    +0.002 A 
ATOM     33  C   UNL     1       1.720   0.422  -0.945  0.00  0.00    +0.024 A 
ENDBRANCH   3  28
TORSDOF 4
