REMARK  Name = ZINC13782496
REMARK  12 active torsions:
REMARK  status: ('A' for Active; 'I' for Inactive)
REMARK    1  A    between atoms: C_1  and  C_2
REMARK    2  A    between atoms: C_3  and  C_38
REMARK    3  A    between atoms: C_4  and  C_29
REMARK    4  A    between atoms: C_6  and  C_10
REMARK    5  A    between atoms: C_7  and  C_9
REMARK    6  A    between atoms: N_12  and  C_13
REMARK    7  A    between atoms: C_13  and  C_14
REMARK    8  A    between atoms: C_14  and  C_15
REMARK    9  A    between atoms: C_15  and  N_16
REMARK   10  A    between atoms: C_19  and  C_22
REMARK   11  A    between atoms: C_19  and  C_23
REMARK   12  A    between atoms: C_32  and  N_35
REMARK                            x       y       z     vdW  Elec       q    Type
REMARK                         _______ _______ _______ _____ _____    ______ ____
ROOT
ATOM      1  C   UNL     1      -1.603  -6.035  -1.348  0.00  0.00    +0.061 C 
ATOM      2  C   UNL     1      -1.330  -4.724  -0.658  0.00  0.00    +0.014 C 
ATOM      3  C   UNL     1      -0.062  -4.346  -0.428  0.00  0.00    +0.043 C 
ATOM      4  C   UNL     1       0.256  -3.051   0.264  0.00  0.00    +0.092 C 
ATOM      5  C   UNL     1      -0.941  -2.144   0.275  0.00  0.00    +0.043 C 
ATOM      6  C   UNL     1      -2.175  -2.611   0.022  0.00  0.00    +0.014 C 
ATOM      7  N   UNL     1      -2.378  -3.932  -0.273  0.00  0.00    -0.321 N 
ATOM      8  C   UNL     1      -3.350  -1.667   0.058  0.00  0.00    +0.061 C 
ATOM      9  H   UNL     1      -3.390  -4.357  -0.198  0.00  0.00    +0.152 HD
ENDROOT
BRANCH   4  10
ATOM     10  C   UNL     1       0.674  -3.337   1.684  0.00  0.00    -0.035 A 
ATOM     11  C   UNL     1      -0.209  -3.947   2.555  0.00  0.00    +0.007 A 
ATOM     12  C   UNL     1       0.176  -4.213   3.855  0.00  0.00    +0.033 A 
ATOM     13  C   UNL     1       1.441  -3.861   4.287  0.00  0.00    +0.126 A 
ATOM     14  C   UNL     1       2.322  -3.247   3.418  0.00  0.00    +0.033 A 
ATOM     15  C   UNL     1       1.939  -2.985   2.116  0.00  0.00    +0.007 A 
BRANCH  13  16
ATOM     16  N   UNL     1       1.852  -4.142   5.682  0.00  0.00    +0.056 N 
ATOM     17  O   UNL     1       2.966  -3.832   6.063  0.00  0.00    -0.126 OA
ATOM     18  O   UNL     1       1.075  -4.684   6.448  0.00  0.00    -0.126 OA
ENDBRANCH  13  16
ENDBRANCH   4  10
BRANCH   3  19
ATOM     19  C   UNL     1       0.998  -5.186  -0.848  0.00  0.00    +0.240 C 
ATOM     20  O   UNL     1       1.606  -4.933  -1.872  0.00  0.00    -0.271 OA
ATOM     21  N   UNL     1       1.334  -6.265  -0.114  0.00  0.00    -0.326 N 
ATOM     22  H   UNL     1       2.157  -6.918  -0.440  0.00  0.00    +0.145 HD
ATOM     23  H   UNL     1       0.784  -6.494   0.811  0.00  0.00    +0.145 HD
ENDBRANCH   3  19
BRANCH   5  24
ATOM     24  C   UNL     1      -0.766  -0.768   0.562  0.00  0.00    +0.242 C 
ATOM     25  O   UNL     1      -1.710  -0.004   0.480  0.00  0.00    -0.270 OA
ATOM     26  N   UNL     1       0.446  -0.305   0.927  0.00  0.00    -0.312 N 
ATOM     27  H   UNL     1       1.299  -0.996   1.002  0.00  0.00    +0.149 HD
BRANCH  26  28
ATOM     28  C   UNL     1       0.627   1.118   1.225  0.00  0.00    +0.102 C 
BRANCH  28  29
ATOM     29  C   UNL     1       2.085   1.377   1.611  0.00  0.00    +0.000 C 
BRANCH  29  30
ATOM     30  C   UNL     1       2.274   2.863   1.922  0.00  0.00    -0.077 C 
BRANCH  30  31
ATOM     31  N   UNL     1       3.674   3.111   2.292  0.00  0.00    +0.380 N 
ATOM     32  C   UNL     1       4.011   2.439   3.553  0.00  0.00    -0.078 C 
ATOM     33  C   UNL     1       5.508   2.598   3.832  0.00  0.00    -0.008 C 
ATOM     34  C   UNL     1       5.851   4.087   3.918  0.00  0.00    -0.010 C 
ATOM     35  C   UNL     1       5.445   4.773   2.610  0.00  0.00    -0.008 C 
ATOM     36  C   UNL     1       3.950   4.551   2.367  0.00  0.00    -0.078 C 
ATOM     37  C   UNL     1       5.092   4.722   5.085  0.00  0.00    +0.016 C 
ATOM     38  H   UNL     1       4.314   2.687   1.504  0.00  0.00    -0.082 HD
BRANCH  34  39
ATOM     39  C   UNL     1       7.334   4.251   4.133  0.00  0.00    -0.042 A 
ATOM     40  C   UNL     1       8.095   4.936   3.204  0.00  0.00    +0.004 A 
ATOM     41  C   UNL     1       9.454   5.090   3.404  0.00  0.00    +0.000 A 
ATOM     42  C   UNL     1      10.054   4.551   4.527  0.00  0.00    +0.000 A 
ATOM     43  C   UNL     1       9.293   3.861   5.452  0.00  0.00    +0.000 A 
ATOM     44  C   UNL     1       7.933   3.711   5.255  0.00  0.00    +0.004 A 
ENDBRANCH  34  39
ENDBRANCH  30  31
ENDBRANCH  29  30
ENDBRANCH  28  29
ENDBRANCH  26  28
ENDBRANCH   5  24
TORSDOF 9
