REMARK  Name = ZINC15139999
REMARK  10 active torsions:
REMARK  status: ('A' for Active; 'I' for Inactive)
REMARK    1  A    between atoms: C_1  and  C_2
REMARK    2  A    between atoms: C_6  and  N_8
REMARK    3  A    between atoms: N_8  and  S_9
REMARK    4  A    between atoms: S_9  and  C_12
REMARK    5  A    between atoms: C_15  and  C_33
REMARK    6  A    between atoms: C_16  and  C_18
REMARK    7  A    between atoms: N_20  and  C_21
REMARK    8  A    between atoms: C_21  and  C_22
REMARK    9  A    between atoms: C_25  and  C_28
REMARK   10  A    between atoms: C_28  and  N_65
REMARK                            x       y       z     vdW  Elec       q    Type
REMARK                         _______ _______ _______ _____ _____    ______ ____
ROOT
ATOM      1  C   UNL     1       0.402   5.800  -2.651  0.00  0.00    +0.109 A 
ATOM      2  C   UNL     1       0.785   4.585  -3.191  0.00  0.00    +0.029 A 
ATOM      3  C   UNL     1       0.381   4.230  -4.466  0.00  0.00    +0.006 A 
ATOM      4  C   UNL     1      -0.398   5.091  -5.211  0.00  0.00    -0.038 A 
ATOM      5  C   UNL     1      -0.783   6.320  -4.675  0.00  0.00    +0.041 A 
ATOM      6  C   UNL     1      -0.377   6.670  -3.386  0.00  0.00    +0.042 A 
ATOM      7  C   UNL     1      -0.831   4.705  -6.602  0.00  0.00    +0.044 C 
ENDROOT
BRANCH   5   8
ATOM      8  C   UNL     1      -1.618   7.247  -5.468  0.00  0.00    +0.245 C 
ATOM      9  O   UNL     1      -1.876   6.992  -6.628  0.00  0.00    -0.270 OA
ATOM     10  N   UNL     1      -2.094   8.375  -4.904  0.00  0.00    -0.307 N 
ATOM     11  H   UNL     1      -1.889   8.579  -3.978  0.00  0.00    +0.149 HD
BRANCH  10  12
ATOM     12  C   UNL     1      -2.922   9.294  -5.689  0.00  0.00    +0.139 C 
BRANCH  12  13
ATOM     13  C   UNL     1      -3.321  10.468  -4.833  0.00  0.00    -0.030 A 
ATOM     14  C   UNL     1      -4.490  10.420  -4.097  0.00  0.00    +0.005 A 
ATOM     15  C   UNL     1      -4.854  11.495  -3.308  0.00  0.00    +0.002 A 
ATOM     16  C   UNL     1      -4.054  12.621  -3.261  0.00  0.00    -0.064 A 
ATOM     17  C   UNL     1      -2.888  12.671  -4.001  0.00  0.00    +0.002 A 
ATOM     18  C   UNL     1      -2.521  11.594  -4.787  0.00  0.00    +0.005 A 
BRANCH  16  19
ATOM     19  C   UNL     1      -4.453  13.794  -2.404  0.00  0.00    -0.043 C 
BRANCH  19  24
ATOM     20  C   UNL     1      -6.419  14.001  -3.825  0.00  0.00    -0.078 C 
ATOM     21  C   UNL     1      -7.425  15.139  -4.135  0.00  0.00    -0.020 C 
ATOM     22  C   UNL     1      -7.276  16.075  -2.914  0.00  0.00    -0.020 C 
ATOM     23  C   UNL     1      -5.889  15.753  -2.327  0.00  0.00    -0.078 C 
ATOM     24  N   UNL     1      -5.306  14.730  -3.197  0.00  0.00    +0.382 N 
ATOM     25  H   UNL     1      -4.731  15.177  -3.921  0.00  0.00    -0.081 HD
ENDBRANCH  19  24
ENDBRANCH  16  19
ENDBRANCH  12  13
ENDBRANCH  10  12
ENDBRANCH   5   8
BRANCH   1  26
ATOM     26  S   UNL     1       0.916   6.240  -1.025  0.00  0.00    +0.072 S 
ATOM     27  O   UNL     1       0.887   7.660  -0.960  0.00  0.00    -0.150 OA
ATOM     28  O   UNL     1       2.091   5.489  -0.753  0.00  0.00    -0.150 OA
BRANCH  26  29
ATOM     29  N   UNL     1      -0.247   5.695   0.021  0.00  0.00    -0.216 N 
ATOM     30  H   UNL     1      -0.770   6.328   0.538  0.00  0.00    +0.174 HD
BRANCH  29  36
ATOM     31  C   UNL     1      -3.404   1.940   0.315  0.00  0.00    +0.044 C 
ATOM     32  C   UNL     1      -1.995   2.475   0.304  0.00  0.00    -0.049 A 
ATOM     33  C   UNL     1      -0.925   1.607   0.430  0.00  0.00    +0.003 A 
ATOM     34  C   UNL     1       0.369   2.094   0.415  0.00  0.00    +0.002 A 
ATOM     35  C   UNL     1       0.598   3.449   0.280  0.00  0.00    +0.024 A 
ATOM     36  C   UNL     1      -0.474   4.324   0.159  0.00  0.00    +0.048 A 
ATOM     37  C   UNL     1      -1.774   3.832   0.174  0.00  0.00    +0.027 A 
ENDBRANCH  29  36
ENDBRANCH  26  29
ENDBRANCH   1  26
TORSDOF 8
