REMARK  Name = ZINC21795502
REMARK  9 active torsions:
REMARK  status: ('A' for Active; 'I' for Inactive)
REMARK    1  A    between atoms: C_1  and  N_2
REMARK    2  A    between atoms: N_2  and  C_3
REMARK    3  A    between atoms: C_4  and  C_6
REMARK    4  A    between atoms: C_6  and  N_7
REMARK    5  A    between atoms: N_7  and  C_8
REMARK    6  A    between atoms: C_8  and  C_10
REMARK    7  A    between atoms: C_8  and  C_16
REMARK    8  A    between atoms: N_18  and  C_19
REMARK    9  A    between atoms: C_22  and  N_26
REMARK                            x       y       z     vdW  Elec       q    Type
REMARK                         _______ _______ _______ _____ _____    ______ ____
ROOT
ATOM      1  C   UNL     1       3.744  -0.964   0.179  0.00  0.00    +0.048 C 
ENDROOT
BRANCH   1   2
ATOM      2  C   UNL     1       4.483  -0.498   1.407  0.00  0.00    -0.053 A 
ATOM      3  C   UNL     1       4.146  -1.003   2.650  0.00  0.00    +0.002 A 
ATOM      4  C   UNL     1       4.827  -0.580   3.775  0.00  0.00    +0.000 A 
ATOM      5  C   UNL     1       5.839   0.355   3.660  0.00  0.00    +0.000 A 
ATOM      6  C   UNL     1       6.173   0.864   2.419  0.00  0.00    +0.000 A 
ATOM      7  C   UNL     1       5.495   0.437   1.292  0.00  0.00    +0.002 A 
ENDBRANCH   1   2
BRANCH   1   8
ATOM      8  C   UNL     1       2.427  -0.238   0.081  0.00  0.00    +0.207 C 
ATOM      9  O   UNL     1       1.388  -0.864   0.088  0.00  0.00    -0.277 OA
ATOM     10  N   UNL     1       2.403   1.106  -0.014  0.00  0.00    -0.285 N 
ATOM     11  H   UNL     1       3.344   1.667  -0.112  0.00  0.00    +0.155 HD
BRANCH  10  12
ATOM     12  C   UNL     1       1.181   1.788   0.012  0.00  0.00    +0.052 A 
ATOM     13  C   UNL     1       0.076   1.214   0.627  0.00  0.00    +0.027 A 
ATOM     14  C   UNL     1      -1.130   1.887   0.646  0.00  0.00    +0.034 A 
ATOM     15  C   UNL     1      -1.236   3.136   0.063  0.00  0.00    +0.128 A 
ATOM     16  C   UNL     1      -0.139   3.712  -0.551  0.00  0.00    +0.054 A 
ATOM     17  C   UNL     1       1.070   3.041  -0.579  0.00  0.00    +0.064 A 
ATOM     18 CL   UNL     1       2.448   3.764  -1.349  0.00  0.00    -0.082 Cl
BRANCH  15  19
ATOM     19  N   UNL     1      -2.529   3.856   0.090  0.00  0.00    +0.056 N 
ATOM     20  O   UNL     1      -2.625   4.955  -0.428  0.00  0.00    -0.126 OA
ATOM     21  O   UNL     1      -3.496   3.351   0.630  0.00  0.00    -0.126 OA
ENDBRANCH  15  19
ENDBRANCH  10  12
ENDBRANCH   1   8
BRANCH   1  22
ATOM     22  N   UNL     1       3.501  -2.409   0.272  0.00  0.00    +0.395 N 
ATOM     23  H   UNL     1       2.618  -2.659  -0.335  0.00  0.00    -0.084 HD
ATOM     24  H   UNL     1       3.308  -2.668   1.324  0.00  0.00    -0.084 HD
BRANCH  22  25
ATOM     25  C   UNL     1       4.660  -3.170  -0.214  0.00  0.00    +0.016 C 
BRANCH  25  29
ATOM     26  C   UNL     1       5.024  -6.977  -0.388  0.00  0.00    +0.131 C 
ATOM     27  N   UNL     1       5.302  -5.542  -0.495  0.00  0.00    -0.309 N 
ATOM     28  C   UNL     1       6.587  -5.083  -1.027  0.00  0.00    +0.131 C 
ATOM     29  C   UNL     1       4.375  -4.646  -0.104  0.00  0.00    +0.198 C 
ATOM     30  O   UNL     1       3.311  -5.026   0.337  0.00  0.00    -0.278 OA
ENDBRANCH  25  29
ENDBRANCH  22  25
ENDBRANCH   1  22
TORSDOF 7
