REMARK  Name = ZINC15539643
REMARK  7 active torsions:
REMARK  status: ('A' for Active; 'I' for Inactive)
REMARK    1  A    between atoms: C_4  and  C_7
REMARK    2  A    between atoms: C_7  and  N_53
REMARK    3  A    between atoms: C_10  and  N_13
REMARK    4  A    between atoms: C_14  and  C_16
REMARK    5  A    between atoms: C_19  and  N_22
REMARK    6  A    between atoms: N_22  and  S_23
REMARK    7  A    between atoms: S_23  and  C_26
REMARK                            x       y       z     vdW  Elec       q    Type
REMARK                         _______ _______ _______ _____ _____    ______ ____
ROOT
ATOM      1  N   UNL     1       5.805   4.300  -0.177  0.00  0.00    -0.310 N 
ATOM      2  C   UNL     1       4.653   4.679  -0.766  0.00  0.00    +0.244 C 
ATOM      3  O   UNL     1       4.627   5.675  -1.463  0.00  0.00    -0.270 OA
ATOM      4  H   UNL     1       5.826   3.505   0.380  0.00  0.00    +0.149 HD
ENDROOT
BRANCH   1   7
ATOM      5  C   UNL     1       9.271   4.668  -1.177  0.00  0.00    -0.077 C 
ATOM      6  C   UNL     1       7.790   4.581  -1.622  0.00  0.00    +0.002 C 
ATOM      7  C   UNL     1       7.024   5.086  -0.378  0.00  0.00    +0.055 C 
ATOM      8  C   UNL     1       7.993   4.880   0.801  0.00  0.00    -0.056 C 
ATOM      9  N   UNL     1       9.200   4.268   0.233  0.00  0.00    +0.384 N 
ATOM     10  H   UNL     1       9.135   3.246   0.300  0.00  0.00    -0.081 HD
BRANCH   9  11
ATOM     11  C   UNL     1      10.412   4.732   0.973  0.00  0.00    -0.043 C 
BRANCH  11  15
ATOM     12  C   UNL     1      13.794   2.403  -0.203  0.00  0.00    +0.000 A 
ATOM     13  C   UNL     1      13.475   3.557  -0.895  0.00  0.00    +0.000 A 
ATOM     14  C   UNL     1      12.381   4.311  -0.514  0.00  0.00    +0.002 A 
ATOM     15  C   UNL     1      11.605   3.910   0.558  0.00  0.00    -0.064 A 
ATOM     16  C   UNL     1      11.927   2.759   1.252  0.00  0.00    +0.002 A 
ATOM     17  C   UNL     1      13.019   2.003   0.869  0.00  0.00    +0.000 A 
ENDBRANCH  11  15
ENDBRANCH   9  11
ENDBRANCH   1   7
BRANCH   2  18
ATOM     18  C   UNL     1       3.425   3.887  -0.563  0.00  0.00    +0.037 A 
ATOM     19  C   UNL     1       2.230   4.280  -1.173  0.00  0.00    +0.015 A 
ATOM     20  C   UNL     1       1.087   3.539  -0.983  0.00  0.00    +0.025 A 
ATOM     21  C   UNL     1       1.119   2.399  -0.185  0.00  0.00    +0.048 A 
ATOM     22  C   UNL     1       2.306   2.008   0.429  0.00  0.00    +0.025 A 
ATOM     23  C   UNL     1       3.454   2.742   0.238  0.00  0.00    +0.015 A 
BRANCH  21  24
ATOM     24  N   UNL     1      -0.038   1.651   0.005  0.00  0.00    -0.216 N 
ATOM     25  H   UNL     1      -0.878   2.098   0.199  0.00  0.00    +0.174 HD
BRANCH  24  26
ATOM     26  S   UNL     1       0.015   0.000  -0.106  0.00  0.00    +0.079 S 
ATOM     27  O   UNL     1       1.069  -0.431   0.744  0.00  0.00    -0.149 OA
ATOM     28  O   UNL     1      -1.321  -0.460   0.044  0.00  0.00    -0.149 OA
BRANCH  26  29
ATOM     29  C   UNL     1       0.501  -0.396  -1.752  0.00  0.00    +0.146 A 
ATOM     30  C   UNL     1       1.737  -0.677  -2.233  0.00  0.00    +0.036 A 
ATOM     31  C   UNL     1       1.885  -0.963  -3.577  0.00  0.00    +0.010 A 
ATOM     32  C   UNL     1       0.789  -0.954  -4.375  0.00  0.00    +0.047 A 
ATOM     33  S   UNL     1      -0.507  -0.539  -3.219  0.00  0.00    -0.077 S 
ENDBRANCH  26  29
ENDBRANCH  24  26
ENDBRANCH  21  24
ENDBRANCH   2  18
TORSDOF 7
