REMARK  Name = ZINC39607276
REMARK  6 active torsions:
REMARK  status: ('A' for Active; 'I' for Inactive)
REMARK    1  A    between atoms: C_1  and  C_2
REMARK    2  A    between atoms: C_5  and  C_9
REMARK    3  A    between atoms: C_6  and  C_8
REMARK    4  A    between atoms: C_9  and  N_10
REMARK    5  A    between atoms: C_11  and  C_13
REMARK    6  A    between atoms: C_24  and  C_26
REMARK                            x       y       z     vdW  Elec       q    Type
REMARK                         _______ _______ _______ _____ _____    ______ ____
ROOT
ATOM      1  C   UNL     1      -2.908  -6.638   0.511  0.00  0.00    +0.100 C 
ATOM      2  C   UNL     1      -3.352  -6.312   1.955  0.00  0.00    +0.121 C 
ATOM      3  N   UNL     1      -4.125  -7.502   2.386  0.00  0.00    -0.295 N 
ATOM      4  C   UNL     1      -3.375  -8.651   1.824  0.00  0.00    +0.115 C 
ATOM      5  C   UNL     1      -2.923  -8.173   0.429  0.00  0.00    -0.004 C 
ATOM      6  C   UNL     1      -1.525  -8.700   0.119  0.00  0.00    -0.010 C 
ATOM      7  C   UNL     1      -1.577 -10.224  -0.015  0.00  0.00    -0.082 C 
ATOM      8  N   UNL     1      -2.510 -10.591  -1.088  0.00  0.00    +0.379 N 
ATOM      9  C   UNL     1      -3.869 -10.163  -0.738  0.00  0.00    -0.082 C 
ATOM     10  C   UNL     1      -3.914  -8.636  -0.634  0.00  0.00    -0.010 C 
ATOM     11  C   UNL     1      -5.253  -7.532   3.121  0.00  0.00    +0.265 C 
ATOM     12  O   UNL     1      -5.726  -8.597   3.465  0.00  0.00    -0.268 OA
ATOM     13  H   UNL     1      -2.227 -10.142  -1.946  0.00  0.00    -0.086 HD
ATOM     14  H   UNL     1      -2.497 -11.592  -1.215  0.00  0.00    -0.086 HD
ENDROOT
BRANCH  11  15
ATOM     15  C   UNL     1      -5.918  -6.265   3.511  0.00  0.00    +0.126 A 
ATOM     16  C   UNL     1      -7.026  -6.309   4.371  0.00  0.00    +0.033 A 
ATOM     17  C   UNL     1      -7.647  -5.150   4.737  0.00  0.00    +0.012 A 
ATOM     18  C   UNL     1      -7.144  -3.936   4.232  0.00  0.00    +0.000 A 
ATOM     19  C   UNL     1      -7.733  -2.707   4.568  0.00  0.00    +0.010 A 
ATOM     20  C   UNL     1      -7.220  -1.553   4.060  0.00  0.00    +0.001 A 
ATOM     21  C   UNL     1      -6.115  -1.573   3.209  0.00  0.00    +0.002 A 
ATOM     22  C   UNL     1      -5.519  -2.745   2.861  0.00  0.00    +0.028 A 
ATOM     23  C   UNL     1      -6.020  -3.961   3.366  0.00  0.00    +0.072 A 
ATOM     24  N   UNL     1      -5.451  -5.123   3.046  0.00  0.00    -0.242 NA
ENDBRANCH  11  15
BRANCH   1  26
ATOM     25  N   UNL     1      -1.095  -5.904  -1.003  0.00  0.00    -0.311 N 
ATOM     26  C   UNL     1      -1.518  -6.113   0.260  0.00  0.00    +0.218 C 
ATOM     27  O   UNL     1      -0.780  -5.878   1.193  0.00  0.00    -0.275 OA
ATOM     28  H   UNL     1      -1.685  -6.091  -1.749  0.00  0.00    +0.149 HD
BRANCH  25  29
ATOM     29  C   UNL     1       0.257  -5.393  -1.247  0.00  0.00    +0.139 C 
BRANCH  29  34
ATOM     30  C   UNL     1       1.104  -4.844  -6.937  0.00  0.00    +0.044 C 
ATOM     31  C   UNL     1       0.883  -4.987  -5.453  0.00  0.00    -0.050 A 
ATOM     32  C   UNL     1       1.384  -6.088  -4.783  0.00  0.00    +0.004 A 
ATOM     33  C   UNL     1       1.182  -6.219  -3.422  0.00  0.00    +0.006 A 
ATOM     34  C   UNL     1       0.478  -5.250  -2.731  0.00  0.00    -0.027 A 
ATOM     35  C   UNL     1      -0.021  -4.149  -3.401  0.00  0.00    -0.046 A 
ATOM     36  C   UNL     1       0.185  -4.016  -4.762  0.00  0.00    +0.007 A 
ATOM     37  C   UNL     1      -0.788  -3.093  -2.648  0.00  0.00    +0.044 C 
ENDBRANCH  29  34
ENDBRANCH  25  29
ENDBRANCH   1  26
TORSDOF 4
