REMARK  Name = ZINC12570949
REMARK  11 active torsions:
REMARK  status: ('A' for Active; 'I' for Inactive)
REMARK    1  A    between atoms: C_1  and  C_2
REMARK    2  A    between atoms: C_3  and  C_9
REMARK    3  A    between atoms: C_4  and  C_8
REMARK    4  A    between atoms: N_5  and  C_7
REMARK    5  A    between atoms: C_9  and  C_11
REMARK    6  A    between atoms: C_9  and  N_67
REMARK    7  A    between atoms: C_12  and  N_67
REMARK    8  A    between atoms: C_13  and  C_14
REMARK    9  A    between atoms: C_13  and  N_67
REMARK   10  A    between atoms: C_17  and  C_22
REMARK   11  A    between atoms: N_24  and  C_25
REMARK                            x       y       z     vdW  Elec       q    Type
REMARK                         _______ _______ _______ _____ _____    ______ ____
ROOT
ATOM      1  C   UNL     1      -3.130   8.498  -4.486  0.00  0.00    +0.003 A 
ATOM      2  C   UNL     1      -3.901   8.387  -3.374  0.00  0.00    +0.020 A 
ATOM      3  C   UNL     1      -3.426   7.699  -2.258  0.00  0.00    +0.020 A 
ATOM      4  C   UNL     1      -2.151   7.139  -2.303  0.00  0.00    +0.101 A 
ATOM      5  C   UNL     1      -1.383   7.281  -3.488  0.00  0.00    +0.261 A 
ATOM      6  O   UNL     1      -0.267   6.796  -3.555  0.00  0.00    -0.267 OA
ATOM      7  N   UNL     1      -1.891   7.952  -4.538  0.00  0.00    -0.327 N 
ATOM      8  H   UNL     1      -1.363   8.046  -5.346  0.00  0.00    +0.169 HD
ENDROOT
BRANCH   4   9
ATOM      9  C   UNL     1      -1.612   6.408  -1.146  0.00  0.00    +0.250 C 
ATOM     10  O   UNL     1      -2.319   6.196  -0.178  0.00  0.00    -0.270 OA
ATOM     11  N   UNL     1      -0.336   5.975  -1.156  0.00  0.00    -0.300 N 
ATOM     12  H   UNL     1       0.205   6.080  -1.954  0.00  0.00    +0.150 HD
BRANCH  11  13
ATOM     13  C   UNL     1       0.233   5.344   0.037  0.00  0.00    +0.135 C 
ATOM     14  C   UNL     1      -0.034   3.859   0.018  0.00  0.00    -0.015 A 
ATOM     15  C   UNL     1      -1.203   3.129   0.007  0.00  0.00    +0.006 A 
ATOM     16  C   UNL     1      -1.156   1.746  -0.015  0.00  0.00    +0.000 A 
ATOM     17  C   UNL     1       0.063   1.094  -0.018  0.00  0.00    +0.001 A 
ATOM     18  C   UNL     1       1.238   1.816  -0.008  0.00  0.00    +0.009 A 
ATOM     19  C   UNL     1       1.199   3.212   0.010  0.00  0.00    -0.012 A 
ATOM     20  C   UNL     1       2.287   4.220   0.024  0.00  0.00    -0.012 A 
ATOM     21  C   UNL     1       1.734   5.498   0.040  0.00  0.00    -0.015 A 
ATOM     22  C   UNL     1       2.551   6.609   0.054  0.00  0.00    +0.006 A 
ATOM     23  C   UNL     1       3.926   6.457   0.053  0.00  0.00    +0.000 A 
ATOM     24  C   UNL     1       4.485   5.192   0.036  0.00  0.00    +0.001 A 
ATOM     25  C   UNL     1       3.675   4.075   0.022  0.00  0.00    +0.009 A 
ENDBRANCH  11  13
ENDBRANCH   4   9
BRANCH   1  26
ATOM     26  C   UNL     1      -3.662   9.241  -5.684  0.00  0.00    -0.024 C 
BRANCH  26  28
ATOM     27  C   UNL     1      -2.998  11.401  -4.815  0.00  0.00    -0.095 C 
ATOM     28  N   UNL     1      -2.821  10.434  -5.918  0.00  0.00    +0.386 N 
ATOM     29  H   UNL     1      -1.836  10.145  -5.952  0.00  0.00    -0.081 HD
BRANCH  28  30
ATOM     30  C   UNL     1      -3.183  11.063  -7.205  0.00  0.00    -0.037 C 
ATOM     31  C   UNL     1      -2.920  10.066  -8.335  0.00  0.00    -0.008 C 
BRANCH  30  34
ATOM     32  C   UNL     1      -0.066  11.272  -6.673  0.00  0.00    +0.068 C 
ATOM     33  C   UNL     1      -0.954  12.381  -7.174  0.00  0.00    +0.062 A 
ATOM     34  C   UNL     1      -2.329  12.288  -7.408  0.00  0.00    -0.018 A 
ATOM     35  C   UNL     1      -2.758  13.491  -7.856  0.00  0.00    +0.038 A 
ATOM     36  N   UNL     1      -1.693  14.319  -7.894  0.00  0.00    -0.271 N 
ATOM     37  N   UNL     1      -0.571  13.598  -7.465  0.00  0.00    -0.176 NA
ATOM     38  C   UNL     1      -1.706  15.722  -8.316  0.00  0.00    +0.172 C 
ATOM     39  C   UNL     1      -4.172  13.845  -8.238  0.00  0.00    +0.065 C 
ENDBRANCH  30  34
ENDBRANCH  28  30
ENDBRANCH  26  28
ENDBRANCH   1  26
TORSDOF 6
