REMARK  Name = ZINC26786945
REMARK  11 active torsions:
REMARK  status: ('A' for Active; 'I' for Inactive)
REMARK    1  A    between atoms: C_1  and  C_2
REMARK    2  A    between atoms: C_3  and  N_23
REMARK    3  A    between atoms: C_5  and  C_20
REMARK    4  A    between atoms: C_6  and  O_19
REMARK    5  A    between atoms: C_7  and  S_8
REMARK    6  A    between atoms: S_8  and  C_11
REMARK    7  A    between atoms: C_14  and  O_17
REMARK    8  A    between atoms: O_17  and  C_18
REMARK    9  A    between atoms: C_20  and  C_21
REMARK   10  A    between atoms: C_20  and  C_22
REMARK   11  A    between atoms: C_24  and  C_26
REMARK                            x       y       z     vdW  Elec       q    Type
REMARK                         _______ _______ _______ _____ _____    ______ ____
ROOT
ATOM      1  C   UNL     1      -0.013   1.084   0.018  0.00  0.00    +0.048 C 
ATOM      2  C   UNL     1      -0.724   1.562   1.258  0.00  0.00    -0.000 A 
ATOM      3  C   UNL     1      -2.095   1.782   1.231  0.00  0.00    +0.039 A 
ATOM      4  C   UNL     1      -2.750   2.218   2.375  0.00  0.00    +0.031 A 
ATOM      5  C   UNL     1      -2.036   2.443   3.536  0.00  0.00    +0.000 A 
ATOM      6  C   UNL     1      -0.666   2.228   3.560  0.00  0.00    +0.146 A 
ATOM      7  C   UNL     1      -0.011   1.788   2.419  0.00  0.00    +0.140 A 
ENDROOT
BRANCH   3   8
ATOM      8  N   UNL     1      -2.817   1.559   0.052  0.00  0.00    -0.281 N 
ATOM      9  C   UNL     1      -3.982   2.204  -0.156  0.00  0.00    +0.248 C 
ATOM     10  O   UNL     1      -4.356   3.053   0.630  0.00  0.00    -0.270 OA
ATOM     11  H   UNL     1      -2.434   0.858  -0.703  0.00  0.00    +0.155 HD
BRANCH   9  12
ATOM     12  C   UNL     1      -4.805   1.879  -1.340  0.00  0.00    +0.037 A 
ATOM     13  C   UNL     1      -4.375   0.909  -2.248  0.00  0.00    +0.014 A 
ATOM     14  C   UNL     1      -5.150   0.607  -3.347  0.00  0.00    +0.016 A 
ATOM     15  C   UNL     1      -6.346   1.271  -3.559  0.00  0.00    +0.018 A 
ATOM     16  C   UNL     1      -6.775   2.238  -2.666  0.00  0.00    +0.016 A 
ATOM     17  C   UNL     1      -6.012   2.546  -1.559  0.00  0.00    +0.014 A 
ATOM     18 BR   UNL     1      -7.399   0.855  -5.074  0.00  0.00    -0.050 Br
ENDBRANCH   9  12
ENDBRANCH   3   8
BRANCH   7  19
ATOM     19  S   UNL     1       1.729   1.515   2.451  0.00  0.00    +0.029 S 
ATOM     20  O   UNL     1       2.077   1.276   3.808  0.00  0.00    -0.164 OA
ATOM     21  O   UNL     1       2.014   0.584   1.416  0.00  0.00    -0.164 OA
BRANCH  19  22
ATOM     22  C   UNL     1       2.502   3.030   1.992  0.00  0.00    +0.094 A 
ATOM     23  C   UNL     1       2.780   3.288   0.663  0.00  0.00    +0.031 A 
ATOM     24  C   UNL     1       3.381   4.478   0.300  0.00  0.00    +0.047 A 
ATOM     25  C   UNL     1       3.717   5.409   1.272  0.00  0.00    +0.120 A 
ATOM     26  C   UNL     1       3.442   5.145   2.606  0.00  0.00    +0.047 A 
ATOM     27  C   UNL     1       2.836   3.957   2.963  0.00  0.00    +0.031 A 
BRANCH  25  28
ATOM     28  O   UNL     1       4.313   6.578   0.918  0.00  0.00    -0.495 OA
ATOM     29  C   UNL     1       4.565   6.782  -0.474  0.00  0.00    +0.277 C 
ENDBRANCH  25  28
ENDBRANCH  19  22
ENDBRANCH   7  19
BRANCH   5  30
ATOM     30  C   UNL     1      -2.746   2.921   4.776  0.00  0.00    +0.017 C 
ATOM     31  C   UNL     1      -3.421   4.264   4.491  0.00  0.00    +0.012 C 
ATOM     32  C   UNL     1      -3.804   1.895   5.186  0.00  0.00    +0.012 C 
ENDBRANCH   5  30
BRANCH   6  33
ATOM     33  O   UNL     1       0.036   2.450   4.703  0.00  0.00    -0.505 OA
ATOM     34  H   UNL     1       1.123   2.280   4.723  0.00  0.00    +0.292 HD
ENDBRANCH   6  33
TORSDOF 7
