REMARK  Name = ZINC39609187
REMARK  7 active torsions:
REMARK  status: ('A' for Active; 'I' for Inactive)
REMARK    1  A    between atoms: C_1  and  C_2
REMARK    2  A    between atoms: C_5  and  C_9
REMARK    3  A    between atoms: C_7  and  C_8
REMARK    4  A    between atoms: C_9  and  C_10
REMARK    5  A    between atoms: C_10  and  N_11
REMARK    6  A    between atoms: C_12  and  C_14
REMARK    7  A    between atoms: C_25  and  C_27
REMARK                            x       y       z     vdW  Elec       q    Type
REMARK                         _______ _______ _______ _____ _____    ______ ____
ROOT
ATOM      1  C   UNL     1       2.486  -9.007  -0.041  0.00  0.00    +0.100 C 
ATOM      2  C   UNL     1       1.770  -9.234  -1.391  0.00  0.00    +0.121 C 
ATOM      3  N   UNL     1       2.866  -9.401  -2.373  0.00  0.00    -0.296 N 
ATOM      4  C   UNL     1       3.886 -10.202  -1.655  0.00  0.00    +0.115 C 
ATOM      5  C   UNL     1       3.873  -9.647  -0.217  0.00  0.00    -0.004 C 
ATOM      6  C   UNL     1       4.065 -10.778   0.788  0.00  0.00    -0.010 C 
ATOM      7  C   UNL     1       5.473 -11.360   0.633  0.00  0.00    -0.082 C 
ATOM      8  N   UNL     1       6.468 -10.305   0.858  0.00  0.00    +0.379 N 
ATOM      9  C   UNL     1       6.337  -9.265  -0.171  0.00  0.00    -0.082 C 
ATOM     10  C   UNL     1       4.966  -8.595  -0.049  0.00  0.00    -0.010 C 
ATOM     11  C   UNL     1       2.923  -8.931  -3.635  0.00  0.00    +0.247 C 
ATOM     12  O   UNL     1       2.059  -8.180  -4.044  0.00  0.00    -0.270 OA
ATOM     13  H   UNL     1       6.323  -9.895   1.768  0.00  0.00    -0.086 HD
ATOM     14  H   UNL     1       7.394 -10.703   0.815  0.00  0.00    -0.086 HD
ENDROOT
BRANCH  11  15
ATOM     15  C   UNL     1       4.037  -9.328  -4.522  0.00  0.00    +0.037 A 
ATOM     16  C   UNL     1       4.761 -10.502  -4.250  0.00  0.00    +0.013 A 
ATOM     17  C   UNL     1       5.788 -10.888  -5.049  0.00  0.00    +0.009 A 
ATOM     18  C   UNL     1       6.141 -10.109  -6.167  0.00  0.00    -0.018 A 
ATOM     19  C   UNL     1       7.200 -10.488  -7.008  0.00  0.00    +0.008 A 
ATOM     20  C   UNL     1       7.518  -9.714  -8.083  0.00  0.00    +0.001 A 
ATOM     21  C   UNL     1       6.809  -8.548  -8.362  0.00  0.00    +0.001 A 
ATOM     22  C   UNL     1       5.777  -8.149  -7.570  0.00  0.00    +0.008 A 
ATOM     23  C   UNL     1       5.419  -8.922  -6.451  0.00  0.00    -0.017 A 
ATOM     24  C   UNL     1       4.356  -8.543  -5.617  0.00  0.00    +0.021 A 
ENDBRANCH  11  15
BRANCH   1  26
ATOM     25  N   UNL     1       2.752  -7.097   1.508  0.00  0.00    -0.315 N 
ATOM     26  C   UNL     1       2.620  -7.532   0.240  0.00  0.00    +0.218 C 
ATOM     27  O   UNL     1       2.610  -6.737  -0.676  0.00  0.00    -0.275 OA
ATOM     28  H   UNL     1       2.760  -7.732   2.241  0.00  0.00    +0.149 HD
BRANCH  25  29
ATOM     29  C   UNL     1       2.882  -5.663   1.781  0.00  0.00    +0.109 C 
BRANCH  29  30
ATOM     30  C   UNL     1       3.016  -5.441   3.289  0.00  0.00    +0.054 C 
BRANCH  30  35
ATOM     31  C   UNL     1       3.531   0.213   4.368  0.00  0.00    +0.044 C 
ATOM     32  C   UNL     1       3.397  -1.262   4.087  0.00  0.00    -0.048 A 
ATOM     33  C   UNL     1       2.145  -1.847   4.049  0.00  0.00    +0.004 A 
ATOM     34  C   UNL     1       2.022  -3.199   3.791  0.00  0.00    +0.004 A 
ATOM     35  C   UNL     1       3.151  -3.966   3.570  0.00  0.00    -0.046 A 
ATOM     36  C   UNL     1       4.402  -3.381   3.606  0.00  0.00    +0.007 A 
ATOM     37  C   UNL     1       4.525  -2.028   3.860  0.00  0.00    -0.047 A 
ATOM     38  C   UNL     1       5.889  -1.388   3.895  0.00  0.00    +0.044 C 
ENDBRANCH  30  35
ENDBRANCH  29  30
ENDBRANCH  25  29
ENDBRANCH   1  26
TORSDOF 5
