REMARK  Name = ZINC04742993
REMARK  5 active torsions:
REMARK  status: ('A' for Active; 'I' for Inactive)
REMARK    1  A    between atoms: C_1  and  C_2
REMARK    2  A    between atoms: C_6  and  N_9
REMARK    3  A    between atoms: C_7  and  C_8
REMARK    4  A    between atoms: C_13  and  C_14
REMARK    5  A    between atoms: C_15  and  C_19
REMARK                            x       y       z     vdW  Elec       q    Type
REMARK                         _______ _______ _______ _____ _____    ______ ____
ROOT
ATOM      1  N   UNL     1      -2.152   1.249  -0.389  0.00  0.00    -0.217 N 
ATOM      2  C   UNL     1      -3.025   0.220  -0.387  0.00  0.00    +0.262 C 
ATOM      3  O   UNL     1      -3.203  -0.446   0.616  0.00  0.00    -0.269 OA
ATOM      4  C   UNL     1      -3.759  -0.073  -1.630  0.00  0.00    +0.101 C 
ATOM      5  C   UNL     1      -4.678  -1.114  -1.701  0.00  0.00    +0.033 C 
ATOM      6  C   UNL     1      -3.474   0.782  -2.795  0.00  0.00    +0.255 C 
ATOM      7  O   UNL     1      -4.038   0.599  -3.858  0.00  0.00    -0.270 OA
ATOM      8  N   UNL     1      -2.571   1.774  -2.653  0.00  0.00    -0.263 N 
ATOM      9  C   UNL     1      -1.942   1.986  -1.489  0.00  0.00    +0.150 C 
ATOM     10  S   UNL     1      -0.810   3.268  -1.401  0.00  0.00    -0.018 S 
ATOM     11  H   UNL     1      -2.372   2.345  -3.411  0.00  0.00    +0.157 HD
ENDROOT
BRANCH   1  17
ATOM     12  C   UNL     1       1.814   0.602   2.446  0.00  0.00    +0.044 C 
ATOM     13  C   UNL     1       0.479   1.250   2.181  0.00  0.00    -0.046 A 
ATOM     14  C   UNL     1      -0.046   2.147   3.093  0.00  0.00    +0.004 A 
ATOM     15  C   UNL     1      -1.271   2.743   2.854  0.00  0.00    +0.002 A 
ATOM     16  C   UNL     1      -1.973   2.445   1.703  0.00  0.00    +0.024 A 
ATOM     17  C   UNL     1      -1.445   1.549   0.782  0.00  0.00    +0.046 A 
ATOM     18  C   UNL     1      -0.218   0.948   1.028  0.00  0.00    -0.026 A 
ATOM     19  C   UNL     1       0.356  -0.029   0.034  0.00  0.00    +0.046 C 
ENDBRANCH   1  17
BRANCH   5  20
ATOM     20  C   UNL     1      -5.486  -1.260  -2.840  0.00  0.00    +0.016 A 
ATOM     21  C   UNL     1      -5.763  -2.411  -3.581  0.00  0.00    -0.036 A 
ATOM     22  C   UNL     1      -6.595  -2.268  -4.658  0.00  0.00    +0.011 A 
ATOM     23  C   UNL     1      -7.102  -1.038  -4.951  0.00  0.00    +0.046 A 
ATOM     24  S   UNL     1      -6.434  -0.026  -3.712  0.00  0.00    -0.097 S 
ATOM     25  C   UNL     1      -5.174  -3.748  -3.212  0.00  0.00    +0.045 C 
ENDBRANCH   5  20
TORSDOF 2
