REMARK  Name = ZINC54649072
REMARK  5 active torsions:
REMARK  status: ('A' for Active; 'I' for Inactive)
REMARK    1  A    between atoms: C_6  and  C_7
REMARK    2  A    between atoms: N_9  and  N_10
REMARK    3  A    between atoms: N_13  and  C_14
REMARK    4  A    between atoms: C_14  and  C_15
REMARK    5  A    between atoms: N_17  and  C_18
REMARK                            x       y       z     vdW  Elec       q    Type
REMARK                         _______ _______ _______ _____ _____    ______ ____
ROOT
ATOM      1  N   UNL     1      -2.447  -2.831   0.017  0.00  0.00    -0.218 N 
ATOM      2  C   UNL     1      -2.425  -4.178   0.013  0.00  0.00    +0.316 C 
ATOM      3  O   UNL     1      -3.468  -4.803   0.029  0.00  0.00    -0.251 OA
ATOM      4  N   UNL     1      -1.248  -4.833  -0.009  0.00  0.00    -0.290 N 
ATOM      5  H   UNL     1      -3.295  -2.359   0.033  0.00  0.00    +0.174 HD
ATOM      6  H   UNL     1      -0.416  -4.335  -0.021  0.00  0.00    +0.151 HD
ENDROOT
BRANCH   1   9
ATOM      7  C   UNL     1      -1.267  -0.763   0.003  0.00  0.00    +0.260 C 
ATOM      8  O   UNL     1      -2.329  -0.172   0.022  0.00  0.00    -0.269 OA
ATOM      9  N   UNL     1      -1.245  -2.111  -0.001  0.00  0.00    -0.229 N 
ATOM     10  H   UNL     1      -0.398  -2.582  -0.017  0.00  0.00    +0.173 HD
BRANCH   7  16
ATOM     11  C   UNL     1      -0.018   1.392  -0.013  0.00  0.00    +0.014 A 
ATOM     12  C   UNL     1       1.168   2.095  -0.030  0.00  0.00    +0.021 A 
ATOM     13  C   UNL     1       2.377   1.419  -0.053  0.00  0.00    +0.041 A 
ATOM     14  C   UNL     1       2.402   0.034  -0.057  0.00  0.00    +0.021 A 
ATOM     15  C   UNL     1       1.222  -0.680  -0.039  0.00  0.00    +0.014 A 
ATOM     16  C   UNL     1       0.001  -0.004  -0.017  0.00  0.00    +0.038 A 
ATOM     17 CL   UNL     1       3.866   2.311  -0.075  0.00  0.00    -0.084 Cl
ENDBRANCH   7  16
ENDBRANCH   1   9
BRANCH   4  18
ATOM     18  C   UNL     1      -1.224  -6.298  -0.013  0.00  0.00    +0.202 C 
BRANCH  18  19
ATOM     19  C   UNL     1       0.204  -6.778  -0.038  0.00  0.00    +0.234 C 
ATOM     20  O   UNL     1       1.113  -5.975  -0.051  0.00  0.00    -0.274 OA
ATOM     21  N   UNL     1       0.471  -8.099  -0.046  0.00  0.00    -0.284 N 
ATOM     22  H   UNL     1      -0.252  -8.740   0.032  0.00  0.00    +0.155 HD
BRANCH  21  23
ATOM     23  C   UNL     1       1.793  -8.545  -0.167  0.00  0.00    +0.034 A 
ATOM     24  C   UNL     1       2.073  -9.704  -0.877  0.00  0.00    +0.025 A 
ATOM     25  C   UNL     1       3.377 -10.142  -0.996  0.00  0.00    +0.022 A 
ATOM     26  C   UNL     1       4.405  -9.426  -0.407  0.00  0.00    +0.041 A 
ATOM     27  C   UNL     1       4.128  -8.270   0.302  0.00  0.00    +0.022 A 
ATOM     28  C   UNL     1       2.826  -7.825   0.418  0.00  0.00    +0.025 A 
ATOM     29 CL   UNL     1       6.043  -9.980  -0.556  0.00  0.00    -0.084 Cl
ENDBRANCH  21  23
ENDBRANCH  18  19
ENDBRANCH   4  18
TORSDOF 5
