REMARK  Name = ZINC01937249
REMARK  10 active torsions:
REMARK  status: ('A' for Active; 'I' for Inactive)
REMARK    1  A    between atoms: C_1  and  C_2
REMARK    2  A    between atoms: C_2  and  O_3
REMARK    3  A    between atoms: O_3  and  C_4
REMARK    4  A    between atoms: C_4  and  C_6
REMARK    5  A    between atoms: C_7  and  C_33
REMARK    6  A    between atoms: C_8  and  C_24
REMARK    7  A    between atoms: C_10  and  N_11
REMARK    8  A    between atoms: C_12  and  C_14
REMARK    9  A    between atoms: C_15  and  C_16
REMARK   10  A    between atoms: N_26  and  C_27
REMARK                            x       y       z     vdW  Elec       q    Type
REMARK                         _______ _______ _______ _____ _____    ______ ____
ROOT
ATOM      1  C   UNL     1       1.217   3.543   0.010  0.00  0.00    +0.091 A 
ATOM      2  C   UNL     1       1.243   4.266  -1.173  0.00  0.00    -0.015 A 
ATOM      3  C   UNL     1       1.296   5.630  -1.084  0.00  0.00    +0.080 A 
ATOM      4  S   UNL     1       1.311   5.908   0.677  0.00  0.00    -0.068 S 
ATOM      5  C   UNL     1       1.242   4.261   1.211  0.00  0.00    +0.087 A 
ATOM      6  C   UNL     1       1.212   3.572  -2.511  0.00  0.00    +0.046 C 
ENDROOT
BRANCH   5   7
ATOM      7  N   UNL     1       1.219   3.776   2.502  0.00  0.00    -0.276 N 
ATOM      8  C   UNL     1       1.249   4.631   3.544  0.00  0.00    +0.241 C 
ATOM      9  O   UNL     1       1.297   5.831   3.345  0.00  0.00    -0.270 OA
ATOM     10  H   UNL     1       1.176   2.692   2.682  0.00  0.00    +0.156 HD
BRANCH   8  11
ATOM     11  C   UNL     1       1.225   4.117   4.913  0.00  0.00    +0.068 C 
ATOM     12  C   UNL     1       1.256   4.973   5.956  0.00  0.00    +0.013 C 
BRANCH  12  13
ATOM     13  C   UNL     1       1.231   4.457   7.333  0.00  0.00    -0.023 A 
ATOM     14  C   UNL     1       1.263   5.341   8.416  0.00  0.00    +0.009 A 
ATOM     15  C   UNL     1       1.240   4.851   9.704  0.00  0.00    +0.022 A 
ATOM     16  C   UNL     1       1.185   3.485   9.928  0.00  0.00    +0.059 A 
ATOM     17  C   UNL     1       1.154   2.601   8.860  0.00  0.00    +0.060 A 
ATOM     18  C   UNL     1       1.170   3.079   7.565  0.00  0.00    +0.029 A 
ATOM     19 CL   UNL     1       1.085   0.891   9.151  0.00  0.00    -0.082 Cl
ATOM     20 CL   UNL     1       1.157   2.876  11.553  0.00  0.00    -0.082 Cl
ENDBRANCH  12  13
ENDBRANCH   8  11
ENDBRANCH   5   7
BRANCH   3  21
ATOM     21  C   UNL     1       1.333   6.616  -2.165  0.00  0.00    +0.255 C 
ATOM     22  O   UNL     1       1.316   6.248  -3.326  0.00  0.00    -0.269 OA
ATOM     23  N   UNL     1       1.385   7.931  -1.876  0.00  0.00    -0.281 N 
ATOM     24  H   UNL     1       1.323   8.268  -0.831  0.00  0.00    +0.155 HD
BRANCH  23  25
ATOM     25  C   UNL     1       1.517   8.869  -2.905  0.00  0.00    +0.034 A 
ATOM     26  C   UNL     1       2.256  10.027  -2.701  0.00  0.00    +0.023 A 
ATOM     27  C   UNL     1       2.389  10.948  -3.722  0.00  0.00    +0.002 A 
ATOM     28  C   UNL     1       1.778  10.724  -4.942  0.00  0.00    +0.000 A 
ATOM     29  C   UNL     1       1.037   9.574  -5.147  0.00  0.00    +0.002 A 
ATOM     30  C   UNL     1       0.905   8.646  -4.132  0.00  0.00    +0.023 A 
ENDBRANCH  23  25
ENDBRANCH   3  21
BRANCH   1  31
ATOM     31  C   UNL     1       1.160   2.077   0.003  0.00  0.00    +0.342 C 
ATOM     32  O   UNL     1       2.189   1.429  -0.002  0.00  0.00    -0.245 OA
BRANCH  31  33
ATOM     33  O   UNL     1      -0.033   1.449   0.002  0.00  0.00    -0.461 OA
BRANCH  33  35
ATOM     34  C   UNL     1      -1.449  -0.532  -0.005  0.00  0.00    +0.048 C 
ATOM     35  C   UNL     1      -0.014  -0.003  -0.005  0.00  0.00    +0.229 C 
ENDBRANCH  33  35
ENDBRANCH  31  33
ENDBRANCH   1  31
TORSDOF 8
