REMARK  Name = ZINC36637315
REMARK  17 active torsions:
REMARK  status: ('A' for Active; 'I' for Inactive)
REMARK    1  A    between atoms: C_1  and  C_2
REMARK    2  A    between atoms: C_2  and  C_3
REMARK    3  A    between atoms: C_3  and  C_4
REMARK    4  A    between atoms: C_4  and  N_5
REMARK    5  A    between atoms: N_5  and  C_6
REMARK    6  A    between atoms: N_5  and  S_8
REMARK    7  A    between atoms: C_6  and  C_7
REMARK    8  A    between atoms: S_8  and  C_11
REMARK    9  A    between atoms: C_14  and  C_17
REMARK   10  A    between atoms: N_19  and  C_20
REMARK   11  A    between atoms: C_20  and  C_21
REMARK   12  A    between atoms: C_21  and  N_22
REMARK   13  A    between atoms: N_22  and  C_23
REMARK   14  A    between atoms: N_22  and  C_24
REMARK   15  A    between atoms: C_30  and  O_34
REMARK   16  A    between atoms: O_34  and  C_35
REMARK   17  A    between atoms: C_35  and  C_36
REMARK                            x       y       z     vdW  Elec       q    Type
REMARK                         _______ _______ _______ _____ _____    ______ ____
ROOT
ATOM      1  C   UNL     1      -6.057   1.633   3.309  0.00  0.00    +0.252 C 
ATOM      2  O   UNL     1      -5.338   2.190   4.116  0.00  0.00    -0.270 OA
ATOM      3  N   UNL     1      -7.320   2.064   3.122  0.00  0.00    -0.248 N 
ATOM      4  C   UNL     1      -7.761   3.213   3.757  0.00  0.00    +0.168 A 
ATOM      5  N   UNL     1      -8.943   3.781   3.704  0.00  0.00    -0.224 NA
ATOM      6  C   UNL     1      -9.237   4.912   4.383  0.00  0.00    +0.081 A 
ATOM      7  C   UNL     1     -10.461   5.619   4.411  0.00  0.00    +0.032 A 
ATOM      8  C   UNL     1     -10.595   6.760   5.157  0.00  0.00    +0.048 A 
ATOM      9  C   UNL     1      -9.539   7.264   5.910  0.00  0.00    +0.122 A 
ATOM     10  C   UNL     1      -8.324   6.595   5.904  0.00  0.00    +0.063 A 
ATOM     11  C   UNL     1      -8.185   5.450   5.159  0.00  0.00    +0.044 A 
ATOM     12  S   UNL     1      -6.867   4.297   4.862  0.00  0.00    -0.052 S 
ENDROOT
BRANCH   1  16
ATOM     13  C   UNL     1      -4.586  -1.670   1.081  0.00  0.00    +0.106 A 
ATOM     14  C   UNL     1      -3.809  -0.534   1.223  0.00  0.00    +0.029 A 
ATOM     15  C   UNL     1      -4.281   0.542   1.945  0.00  0.00    +0.015 A 
ATOM     16  C   UNL     1      -5.545   0.484   2.534  0.00  0.00    +0.037 A 
ATOM     17  C   UNL     1      -6.324  -0.665   2.387  0.00  0.00    +0.015 A 
ATOM     18  C   UNL     1      -5.843  -1.732   1.657  0.00  0.00    +0.029 A 
BRANCH  13  19
ATOM     19  S   UNL     1      -3.976  -3.041   0.158  0.00  0.00    +0.061 S 
ATOM     20  O   UNL     1      -4.671  -4.188   0.626  0.00  0.00    -0.153 OA
ATOM     21  O   UNL     1      -2.558  -2.947   0.180  0.00  0.00    -0.153 OA
BRANCH  19  22
ATOM     22  N   UNL     1      -4.440  -2.816  -1.416  0.00  0.00    -0.177 NA
BRANCH  22  23
ATOM     23  C   UNL     1      -5.722  -3.349  -1.885  0.00  0.00    +0.106 C 
ATOM     24  C   UNL     1      -5.500  -4.719  -2.529  0.00  0.00    +0.022 C 
ENDBRANCH  22  23
BRANCH  22  25
ATOM     25  C   UNL     1      -3.569  -2.085  -2.340  0.00  0.00    +0.109 C 
BRANCH  25  26
ATOM     26  C   UNL     1      -3.996  -0.616  -2.387  0.00  0.00    +0.017 C 
BRANCH  26  28
ATOM     27  C   UNL     1      -3.513   1.617  -3.399  0.00  0.00    +0.004 C 
ATOM     28  C   UNL     1      -3.086   0.148  -3.352  0.00  0.00    -0.002 C 
ENDBRANCH  26  28
ENDBRANCH  25  26
ENDBRANCH  22  25
ENDBRANCH  19  22
ENDBRANCH  13  19
ENDBRANCH   1  16
BRANCH   3  29
ATOM     29  C   UNL     1      -8.227   1.317   2.247  0.00  0.00    +0.097 C 
BRANCH  29  30
ATOM     30  C   UNL     1      -9.123   0.412   3.095  0.00  0.00    -0.060 C 
BRANCH  30  31
ATOM     31  N   UNL     1      -9.940  -0.433   2.213  0.00  0.00    +0.377 N 
ATOM     32  C   UNL     1     -10.711  -1.384   3.024  0.00  0.00    -0.097 C 
ATOM     33  C   UNL     1     -10.860   0.412   1.441  0.00  0.00    -0.097 C 
ATOM     34  H   UNL     1      -9.338  -0.940   1.581  0.00  0.00    -0.083 HD
ENDBRANCH  30  31
ENDBRANCH  29  30
ENDBRANCH   3  29
BRANCH   9  35
ATOM     35  O   UNL     1      -9.696   8.399   6.642  0.00  0.00    -0.492 OA
BRANCH  35  36
ATOM     36  C   UNL     1     -10.977   9.030   6.595  0.00  0.00    +0.225 C 
ATOM     37  C   UNL     1     -10.962  10.282   7.474  0.00  0.00    +0.048 C 
ENDBRANCH  35  36
ENDBRANCH   9  35
TORSDOF 12
