REMARK  Name = ZINC09583940
REMARK  7 active torsions:
REMARK  status: ('A' for Active; 'I' for Inactive)
REMARK    1  A    between atoms: C_3  and  C_9
REMARK    2  A    between atoms: C_9  and  N_10
REMARK    3  A    between atoms: C_11  and  C_13
REMARK    4  A    between atoms: C_13  and  O_14
REMARK    5  A    between atoms: O_14  and  C_15
REMARK    6  A    between atoms: C_15  and  C_17
REMARK    7  A    between atoms: C_19  and  N_24
REMARK                            x       y       z     vdW  Elec       q    Type
REMARK                         _______ _______ _______ _____ _____    ______ ____
ROOT
ATOM      1  O   UNL     1      -4.221   4.625   2.992  0.00  0.00    -0.451 OA
ENDROOT
BRANCH   1   2
ATOM      2  C   UNL     1      -4.598   5.188   4.156  0.00  0.00    +0.358 C 
ATOM      3  O   UNL     1      -3.887   5.090   5.136  0.00  0.00    -0.243 OA
BRANCH   2   4
ATOM      4  C   UNL     1      -5.877   5.926   4.241  0.00  0.00    +0.146 A 
ATOM      5  C   UNL     1      -6.263   6.501   5.449  0.00  0.00    +0.093 A 
ATOM      6  C   UNL     1      -7.470   7.198   5.510  0.00  0.00    +0.067 A 
ATOM      7  C   UNL     1      -8.247   7.280   4.356  0.00  0.00    +0.098 A 
ATOM      8  C   UNL     1      -7.797   6.676   3.192  0.00  0.00    +0.128 A 
ATOM      9 CL   UNL     1      -8.759   6.774   1.751  0.00  0.00    -0.062 Cl
ATOM     10 CL   UNL     1      -9.761   8.129   4.376  0.00  0.00    -0.079 Cl
ATOM     11 CL   UNL     1      -5.254   6.358   6.854  0.00  0.00    -0.079 Cl
ATOM     12  N   UNL     1      -6.627   5.996   3.095  0.00  0.00    -0.338 N 
ATOM     13  H   UNL     1      -6.321   5.559   2.217  0.00  0.00    +0.167 HD
BRANCH   6  14
ATOM     14  N   UNL     1      -7.891   7.793   6.698  0.00  0.00    -0.356 N 
ATOM     15  H   UNL     1      -8.734   8.272   6.729  0.00  0.00    +0.142 HD
ATOM     16  H   UNL     1      -7.341   7.729   7.494  0.00  0.00    +0.142 HD
ENDBRANCH   6  14
ENDBRANCH   2   4
ENDBRANCH   1   2
BRANCH   1  17
ATOM     17  C   UNL     1      -2.954   3.916   2.982  0.00  0.00    +0.328 C 
BRANCH  17  19
ATOM     18  N   UNL     1      -1.577   2.656   1.358  0.00  0.00    -0.308 N 
ATOM     19  C   UNL     1      -2.702   3.357   1.605  0.00  0.00    +0.251 C 
ATOM     20  O   UNL     1      -3.510   3.539   0.720  0.00  0.00    -0.272 OA
ATOM     21  H   UNL     1      -0.931   2.511   2.067  0.00  0.00    +0.149 HD
BRANCH  18  22
ATOM     22  C   UNL     1      -1.332   2.113   0.020  0.00  0.00    +0.141 C 
BRANCH  22  25
ATOM     23  C   UNL     1       1.208  -0.679  -0.013  0.00  0.00    +0.020 A 
ATOM     24  C   UNL     1       0.002  -0.004   0.002  0.00  0.00    +0.008 A 
ATOM     25  C   UNL     1      -0.017   1.378   0.010  0.00  0.00    -0.012 A 
ATOM     26  C   UNL     1       1.172   2.086   0.002  0.00  0.00    +0.047 A 
ATOM     27  C   UNL     1       2.379   1.411  -0.013  0.00  0.00    +0.040 A 
ATOM     28  C   UNL     1       2.397   0.028  -0.021  0.00  0.00    +0.042 A 
ATOM     29 CL   UNL     1       3.912  -0.821  -0.039  0.00  0.00    -0.083 Cl
ATOM     30 CL   UNL     1       1.148   3.822   0.011  0.00  0.00    -0.083 Cl
ENDBRANCH  22  25
ENDBRANCH  18  22
ENDBRANCH  17  19
ENDBRANCH   1  17
TORSDOF 7
