REMARK  Name = ZINC39658371
REMARK  11 active torsions:
REMARK  status: ('A' for Active; 'I' for Inactive)
REMARK    1  A    between atoms: C_1  and  O_2
REMARK    2  A    between atoms: O_2  and  C_3
REMARK    3  A    between atoms: C_6  and  C_11
REMARK    4  A    between atoms: C_8  and  O_9
REMARK    5  A    between atoms: O_9  and  C_10
REMARK    6  A    between atoms: C_15  and  C_24
REMARK    7  A    between atoms: N_26  and  C_27
REMARK    8  A    between atoms: C_27  and  C_28
REMARK    9  A    between atoms: C_28  and  S_29
REMARK   10  A    between atoms: S_29  and  C_30
REMARK   11  A    between atoms: C_30  and  C_31
REMARK                            x       y       z     vdW  Elec       q    Type
REMARK                         _______ _______ _______ _____ _____    ______ ____
ROOT
ATOM      1  C   UNL     1      -4.960  -2.611   0.035  0.00  0.00    +0.247 C 
ATOM      2  O   UNL     1      -5.013  -3.821  -0.075  0.00  0.00    -0.270 OA
ATOM      3  N   UNL     1      -6.096  -1.894   0.147  0.00  0.00    -0.296 N 
ATOM      4  C   UNL     1      -6.241  -0.420   0.161  0.00  0.00    +0.121 C 
ATOM      5  C   UNL     1      -7.518  -0.145  -0.665  0.00  0.00    +0.100 C 
ATOM      6  C   UNL     1      -8.329  -1.450  -0.578  0.00  0.00    -0.004 C 
ATOM      7  C   UNL     1      -7.482  -2.403   0.278  0.00  0.00    +0.115 C 
ATOM      8  C   UNL     1      -8.531  -2.040  -1.970  0.00  0.00    -0.010 C 
ATOM      9  C   UNL     1      -9.388  -3.304  -1.864  0.00  0.00    -0.082 C 
ATOM     10  N   UNL     1     -10.683  -2.971  -1.259  0.00  0.00    +0.379 N 
ATOM     11  C   UNL     1     -10.486  -2.491   0.114  0.00  0.00    -0.082 C 
ATOM     12  C   UNL     1      -9.675  -1.192   0.091  0.00  0.00    -0.010 C 
ATOM     13  H   UNL     1     -11.132  -2.250  -1.805  0.00  0.00    -0.086 HD
ATOM     14  H   UNL     1     -11.268  -3.793  -1.246  0.00  0.00    -0.086 HD
ENDROOT
BRANCH   1  18
ATOM     15  C   UNL     1      -1.195  -0.640   0.068  0.00  0.00    +0.162 A 
ATOM     16  C   UNL     1      -2.296  -0.045   0.669  0.00  0.00    +0.050 A 
ATOM     17  C   UNL     1      -3.518  -0.681   0.660  0.00  0.00    +0.017 A 
ATOM     18  C   UNL     1      -3.652  -1.928   0.045  0.00  0.00    +0.041 A 
ATOM     19  C   UNL     1      -2.544  -2.527  -0.561  0.00  0.00    +0.062 A 
ATOM     20  C   UNL     1      -1.323  -1.882  -0.553  0.00  0.00    +0.162 A 
BRANCH  15  22
ATOM     21  C   UNL     1       0.067   1.260   0.732  0.00  0.00    +0.277 C 
ATOM     22  O   UNL     1       0.007  -0.009   0.079  0.00  0.00    -0.491 OA
ENDBRANCH  15  22
BRANCH  20  23
ATOM     23  O   UNL     1      -0.244  -2.460  -1.146  0.00  0.00    -0.491 OA
ATOM     24  C   UNL     1      -0.448  -3.733  -1.763  0.00  0.00    +0.277 C 
ENDBRANCH  20  23
ENDBRANCH   1  18
BRANCH   5  25
ATOM     25  C   UNL     1      -8.295   0.999  -0.065  0.00  0.00    +0.218 C 
ATOM     26  O   UNL     1      -8.177   1.260   1.113  0.00  0.00    -0.275 OA
ATOM     27  N   UNL     1      -9.121   1.731  -0.839  0.00  0.00    -0.314 N 
ATOM     28  H   UNL     1      -9.216   1.521  -1.781  0.00  0.00    +0.149 HD
BRANCH  27  29
ATOM     29  C   UNL     1      -9.876   2.843  -0.256  0.00  0.00    +0.115 C 
BRANCH  29  30
ATOM     30  C   UNL     1     -10.731   3.502  -1.340  0.00  0.00    +0.088 C 
BRANCH  30  31
ATOM     31  S   UNL     1     -11.665   4.880  -0.618  0.00  0.00    -0.155 S 
BRANCH  31  32
ATOM     32  C   UNL     1     -12.614   5.545  -2.014  0.00  0.00    +0.104 C 
BRANCH  32  33
ATOM     33  C   UNL     1     -13.446   6.711  -1.546  0.00  0.00    -0.038 A 
ATOM     34  C   UNL     1     -14.726   6.500  -1.069  0.00  0.00    +0.004 A 
ATOM     35  C   UNL     1     -15.489   7.569  -0.639  0.00  0.00    +0.000 A 
ATOM     36  C   UNL     1     -14.972   8.850  -0.686  0.00  0.00    +0.000 A 
ATOM     37  C   UNL     1     -13.691   9.062  -1.161  0.00  0.00    +0.000 A 
ATOM     38  C   UNL     1     -12.926   7.992  -1.587  0.00  0.00    +0.004 A 
ENDBRANCH  32  33
ENDBRANCH  31  32
ENDBRANCH  30  31
ENDBRANCH  29  30
ENDBRANCH  27  29
ENDBRANCH   5  25
TORSDOF 9
