REMARK  Name = ZINC61795477
REMARK  7 active torsions:
REMARK  status: ('A' for Active; 'I' for Inactive)
REMARK    1  A    between atoms: C_1  and  C_2
REMARK    2  A    between atoms: C_2  and  C_3
REMARK    3  A    between atoms: C_2  and  C_4
REMARK    4  A    between atoms: C_2  and  N_17
REMARK    5  A    between atoms: C_4  and  N_5
REMARK    6  A    between atoms: N_8  and  N_9
REMARK    7  A    between atoms: C_10  and  C_12
REMARK                            x       y       z     vdW  Elec       q    Type
REMARK                         _______ _______ _______ _____ _____    ______ ____
ROOT
ATOM      1  N   UNL     1      -2.188   0.185  -1.045  0.00  0.00    -0.300 N 
ATOM      2  C   UNL     1      -3.530   0.081  -1.117  0.00  0.00    +0.316 C 
ATOM      3  O   UNL     1      -4.146  -0.468  -0.224  0.00  0.00    -0.251 OA
ATOM      4  N   UNL     1      -4.188   0.584  -2.179  0.00  0.00    -0.218 N 
ATOM      5  H   UNL     1      -1.696   0.623  -1.757  0.00  0.00    +0.150 HD
ATOM      6  H   UNL     1      -5.154   0.509  -2.232  0.00  0.00    +0.174 HD
ENDROOT
BRANCH   4   7
ATOM      7  N   UNL     1      -3.478   1.217  -3.209  0.00  0.00    -0.229 N 
ATOM      8  C   UNL     1      -4.137   1.720  -4.271  0.00  0.00    +0.263 C 
ATOM      9  O   UNL     1      -5.348   1.626  -4.336  0.00  0.00    -0.269 OA
ATOM     10  H   UNL     1      -2.513   1.292  -3.156  0.00  0.00    +0.173 HD
BRANCH   8  11
ATOM     11  C   UNL     1      -3.390   2.385  -5.354  0.00  0.00    +0.076 A 
ATOM     12  C   UNL     1      -3.944   2.992  -6.573  0.00  0.00    +0.054 A 
ATOM     13  C   UNL     1      -2.893   3.471  -7.256  0.00  0.00    +0.195 A 
ATOM     14  O   UNL     1      -1.768   3.213  -6.571  0.00  0.00    -0.470 OA
ATOM     15  C   UNL     1      -2.041   2.572  -5.431  0.00  0.00    +0.208 A 
ENDBRANCH   8  11
ENDBRANCH   4   7
BRANCH   1  16
ATOM     16  C   UNL     1      -1.472  -0.363   0.110  0.00  0.00    +0.093 C 
BRANCH  16  18
ATOM     17  C   UNL     1       0.192   1.501   0.106  0.00  0.00    -0.008 C 
ATOM     18  C   UNL     1       0.014  -0.015   0.001  0.00  0.00    -0.055 C 
ATOM     19  C   UNL     1       0.783  -0.699   1.133  0.00  0.00    -0.008 C 
BRANCH  18  20
ATOM     20  N   UNL     1       0.532  -0.480  -1.293  0.00  0.00    +0.384 N 
ATOM     21  C   UNL     1       0.318  -1.927  -1.412  0.00  0.00    -0.078 C 
ATOM     22  C   UNL     1       0.782  -2.403  -2.791  0.00  0.00    -0.019 C 
ATOM     23  C   UNL     1       2.272  -2.090  -2.958  0.00  0.00    -0.004 C 
ATOM     24  C   UNL     1       2.494  -0.588  -2.758  0.00  0.00    -0.019 C 
ATOM     25  C   UNL     1       1.966  -0.179  -1.381  0.00  0.00    -0.078 C 
ATOM     26  H   UNL     1       0.044  -0.007  -2.039  0.00  0.00    -0.081 HD
ENDBRANCH  18  20
ENDBRANCH  16  18
ENDBRANCH   1  16
TORSDOF 5
