REMARK  Name = ZINC36155100
REMARK  13 active torsions:
REMARK  status: ('A' for Active; 'I' for Inactive)
REMARK    1  A    between atoms: C_1  and  C_2
REMARK    2  A    between atoms: C_7  and  O_8
REMARK    3  A    between atoms: O_8  and  C_9
REMARK    4  A    between atoms: C_9  and  C_10
REMARK    5  A    between atoms: C_10  and  C_12
REMARK    6  A    between atoms: C_10  and  O_37
REMARK    7  A    between atoms: C_12  and  N_13
REMARK    8  A    between atoms: N_13  and  C_14
REMARK    9  A    between atoms: C_14  and  C_16
REMARK   10  A    between atoms: C_14  and  C_23
REMARK   11  A    between atoms: C_16  and  C_17
REMARK   12  A    between atoms: C_25  and  C_28
REMARK   13  A    between atoms: C_31  and  N_34
REMARK                            x       y       z     vdW  Elec       q    Type
REMARK                         _______ _______ _______ _____ _____    ______ ____
ROOT
ATOM      1  C   UNL     1      -0.396  -0.655   8.437  0.00  0.00    +0.023 C 
ENDROOT
BRANCH   1   2
ATOM      2  C   UNL     1      -0.832   0.166   9.623  0.00  0.00    +0.214 A 
ATOM      3  N   UNL     1      -1.821  -0.117  10.422  0.00  0.00    -0.193 NA
ATOM      4  C   UNL     1      -1.931   0.829  11.372  0.00  0.00    +0.202 A 
ATOM      5  N   UNL     1      -0.999   1.729  11.177  0.00  0.00    -0.056 NA
ATOM      6  O   UNL     1      -0.265   1.307  10.036  0.00  0.00    -0.339 OA
BRANCH   4   7
ATOM      7  C   UNL     1      -2.940   0.850  12.460  0.00  0.00    +0.023 A 
ATOM      8  C   UNL     1      -3.879  -0.173  12.562  0.00  0.00    +0.014 A 
ATOM      9  C   UNL     1      -4.815  -0.149  13.576  0.00  0.00    +0.033 A 
ATOM     10  C   UNL     1      -4.822   0.890  14.490  0.00  0.00    +0.126 A 
ATOM     11  C   UNL     1      -3.892   1.909  14.393  0.00  0.00    +0.033 A 
ATOM     12  C   UNL     1      -2.948   1.891  13.386  0.00  0.00    +0.014 A 
BRANCH  10  13
ATOM     13  N   UNL     1      -5.828   0.910  15.575  0.00  0.00    +0.056 N 
ATOM     14  O   UNL     1      -6.642   0.021  15.662  0.00  0.00    -0.126 OA
ATOM     15  O   UNL     1      -5.836   1.817  16.375  0.00  0.00    -0.126 OA
ENDBRANCH  10  13
ENDBRANCH   4   7
ENDBRANCH   1   2
BRANCH   1  16
ATOM     16  N   UNL     1      -0.145   0.232   7.293  0.00  0.00    +0.389 N 
ATOM     17  H   UNL     1       0.645   0.826   7.494  0.00  0.00    -0.085 HD
ATOM     18  H   UNL     1      -0.960   0.803   7.125  0.00  0.00    -0.085 HD
BRANCH  16  19
ATOM     19  C   UNL     1       0.141  -0.576   6.100  0.00  0.00    -0.046 C 
BRANCH  19  20
ATOM     20  C   UNL     1       0.271   0.341   4.882  0.00  0.00    +0.135 C 
BRANCH  20  21
ATOM     21  O   UNL     1       1.408   1.190   5.044  0.00  0.00    -0.390 OA
ATOM     22  H   UNL     1       2.245   0.715   5.134  0.00  0.00    +0.210 HD
ENDBRANCH  20  21
BRANCH  20  23
ATOM     23  C   UNL     1       0.444  -0.508   3.621  0.00  0.00    +0.258 C 
BRANCH  23  24
ATOM     24  O   UNL     1       0.449   0.341   2.472  0.00  0.00    -0.489 OA
BRANCH  24  31
ATOM     25  C   UNL     1       0.460   2.002   0.187  0.00  0.00    +0.047 C 
ATOM     26  C   UNL     1       0.608   0.505   0.104  0.00  0.00    -0.009 A 
ATOM     27  C   UNL     1       0.763  -0.107  -1.125  0.00  0.00    +0.007 A 
ATOM     28  C   UNL     1       0.899  -1.481  -1.202  0.00  0.00    +0.000 A 
ATOM     29  C   UNL     1       0.881  -2.246  -0.050  0.00  0.00    +0.004 A 
ATOM     30  C   UNL     1       0.726  -1.638   1.181  0.00  0.00    +0.046 A 
ATOM     31  C   UNL     1       0.595  -0.259   1.261  0.00  0.00    +0.124 A 
ENDBRANCH  24  31
ENDBRANCH  23  24
ENDBRANCH  20  23
ENDBRANCH  19  20
ENDBRANCH  16  19
ENDBRANCH   1  16
BRANCH   1  32
ATOM     32  C   UNL     1       0.887  -1.412   8.785  0.00  0.00    +0.029 C 
BRANCH  32  33
ATOM     33  C   UNL     1       0.597  -2.417   9.870  0.00  0.00    -0.048 A 
ATOM     34  C   UNL     1       0.824  -2.090  11.194  0.00  0.00    +0.003 A 
ATOM     35  C   UNL     1       0.558  -3.011  12.190  0.00  0.00    +0.000 A 
ATOM     36  C   UNL     1       0.066  -4.261  11.861  0.00  0.00    +0.000 A 
ATOM     37  C   UNL     1      -0.161  -4.588  10.537  0.00  0.00    +0.000 A 
ATOM     38  C   UNL     1       0.100  -3.665   9.543  0.00  0.00    +0.003 A 
ENDBRANCH  32  33
ENDBRANCH   1  32
TORSDOF 12
