REMARK  Name = ZINC35450629
REMARK  10 active torsions:
REMARK  status: ('A' for Active; 'I' for Inactive)
REMARK    1  A    between atoms: C_1  and  C_2
REMARK    2  A    between atoms: C_2  and  C_3
REMARK    3  A    between atoms: C_2  and  C_4
REMARK    4  A    between atoms: C_4  and  C_5
REMARK    5  A    between atoms: C_5  and  S_6
REMARK    6  A    between atoms: S_6  and  C_7
REMARK    7  A    between atoms: C_17  and  C_19
REMARK    8  A    between atoms: C_24  and  N_25
REMARK    9  A    between atoms: C_31  and  C_33
REMARK   10  A    between atoms: C_31  and  C_34
REMARK                            x       y       z     vdW  Elec       q    Type
REMARK                         _______ _______ _______ _____ _____    ______ ____
ROOT
ATOM      1  C   UNL     1       3.228   3.050  -1.020  0.00  0.00    +0.171 A 
ATOM      2  N   UNL     1       4.134   3.444  -0.149  0.00  0.00    -0.185 NA
ATOM      3  C   UNL     1       5.419   3.081  -0.276  0.00  0.00    +0.280 A 
ATOM      4  O   UNL     1       6.247   3.454   0.542  0.00  0.00    -0.265 OA
ATOM      5  C   UNL     1       5.810   2.265  -1.361  0.00  0.00    +0.069 A 
ATOM      6  C   UNL     1       4.865   1.861  -2.251  0.00  0.00    +0.111 A 
ATOM      7  N   UNL     1       3.564   2.255  -2.075  0.00  0.00    -0.322 N 
ATOM      8  N   UNL     1       5.212   1.058  -3.312  0.00  0.00    -0.304 N 
ATOM      9  C   UNL     1       6.381   0.347  -3.297  0.00  0.00    +0.017 C 
ATOM     10  C   UNL     1       7.381   0.684  -2.455  0.00  0.00    +0.024 C 
ATOM     11  C   UNL     1       7.245   1.860  -1.522  0.00  0.00    +0.095 C 
ATOM     12  C   UNL     1       8.579  -0.051  -2.423  0.00  0.00    +0.162 C 
ATOM     13  O   UNL     1       9.462   0.283  -1.658  0.00  0.00    -0.292 OA
ATOM     14  C   UNL     1       8.788  -1.243  -3.316  0.00  0.00    +0.086 C 
ATOM     15  C   UNL     1       7.429  -1.882  -3.621  0.00  0.00    -0.023 C 
ATOM     16  C   UNL     1       6.523  -0.819  -4.245  0.00  0.00    +0.058 C 
ATOM     17  C   UNL     1       6.800  -2.397  -2.325  0.00  0.00    +0.011 C 
ATOM     18  C   UNL     1       7.615  -3.040  -4.604  0.00  0.00    +0.011 C 
ATOM     19  H   UNL     1       4.622   0.996  -4.080  0.00  0.00    +0.153 HD
ATOM     20  H   UNL     1       2.882   1.970  -2.703  0.00  0.00    +0.169 HD
ENDROOT
BRANCH  11  21
ATOM     21  C   UNL     1       8.027   3.024  -2.075  0.00  0.00    -0.005 A 
ATOM     22  C   UNL     1       7.773   3.481  -3.355  0.00  0.00    +0.007 A 
ATOM     23  C   UNL     1       8.490   4.548  -3.863  0.00  0.00    +0.000 A 
ATOM     24  C   UNL     1       9.461   5.158  -3.091  0.00  0.00    +0.002 A 
ATOM     25  C   UNL     1       9.714   4.702  -1.811  0.00  0.00    +0.033 A 
ATOM     26  C   UNL     1       8.994   3.637  -1.302  0.00  0.00    +0.130 A 
BRANCH  26  27
ATOM     27  N   UNL     1       9.262   3.152   0.071  0.00  0.00    +0.057 N 
ATOM     28  O   UNL     1       9.427   3.942   0.970  0.00  0.00    -0.126 OA
ATOM     29  O   UNL     1       9.316   1.964   0.292  0.00  0.00    -0.126 OA
ENDBRANCH  26  27
ENDBRANCH  11  21
BRANCH   1  30
ATOM     30  S   UNL     1       1.552   3.553  -0.814  0.00  0.00    -0.088 S 
BRANCH  30  31
ATOM     31  C   UNL     1       1.581   4.574   0.685  0.00  0.00    +0.077 C 
BRANCH  31  32
ATOM     32  C   UNL     1       0.170   5.082   0.983  0.00  0.00    +0.014 C 
BRANCH  32  34
ATOM     33  C   UNL     1       1.032   7.199   1.994  0.00  0.00    +0.007 C 
ATOM     34  C   UNL     1       0.194   5.944   2.247  0.00  0.00    -0.016 C 
ATOM     35  C   UNL     1      -1.234   6.349   2.616  0.00  0.00    +0.007 C 
ENDBRANCH  32  34
ENDBRANCH  31  32
ENDBRANCH  30  31
ENDBRANCH   1  30
TORSDOF 6
