REMARK  Name = ZINC12572127
REMARK  9 active torsions:
REMARK  status: ('A' for Active; 'I' for Inactive)
REMARK    1  A    between atoms: C_3  and  N_24
REMARK    2  A    between atoms: C_6  and  C_7
REMARK    3  A    between atoms: C_10  and  N_13
REMARK    4  A    between atoms: N_13  and  C_14
REMARK    5  A    between atoms: C_14  and  N_16
REMARK    6  A    between atoms: N_16  and  C_17
REMARK    7  A    between atoms: N_24  and  C_25
REMARK    8  A    between atoms: C_25  and  N_27
REMARK    9  A    between atoms: N_27  and  C_28
REMARK                            x       y       z     vdW  Elec       q    Type
REMARK                         _______ _______ _______ _____ _____    ______ ____
ROOT
ATOM      1  C   UNL     1      -6.788   0.563   0.017  0.00  0.00    +0.010 A 
ATOM      2  C   UNL     1      -8.068   0.822  -0.424  0.00  0.00    +0.024 A 
ATOM      3  C   UNL     1      -8.602   2.099  -0.299  0.00  0.00    +0.033 A 
ATOM      4  C   UNL     1      -7.849   3.116   0.276  0.00  0.00    +0.024 A 
ATOM      5  C   UNL     1      -6.571   2.860   0.724  0.00  0.00    +0.010 A 
ATOM      6  C   UNL     1      -6.033   1.580   0.599  0.00  0.00    -0.018 A 
ENDROOT
BRANCH   6   7
ATOM      7  C   UNL     1      -4.658   1.302   1.081  0.00  0.00    -0.018 A 
ATOM      8  C   UNL     1      -4.120   0.022   0.957  0.00  0.00    +0.010 A 
ATOM      9  C   UNL     1      -2.842  -0.234   1.405  0.00  0.00    +0.024 A 
ATOM     10  C   UNL     1      -2.089   0.783   1.981  0.00  0.00    +0.033 A 
ATOM     11  C   UNL     1      -2.625   2.058   2.111  0.00  0.00    +0.024 A 
ATOM     12  C   UNL     1      -3.901   2.321   1.658  0.00  0.00    +0.010 A 
BRANCH  10  13
ATOM     13  N   UNL     1      -0.793   0.520   2.435  0.00  0.00    -0.297 N 
ATOM     14  H   UNL     1      -0.599  -0.314   2.890  0.00  0.00    +0.154 HD
BRANCH  13  15
ATOM     15  C   UNL     1       0.186   1.425   2.237  0.00  0.00    +0.139 C 
ATOM     16  S   UNL     1      -0.120   2.827   1.304  0.00  0.00    -0.018 S 
BRANCH  15  17
ATOM     17  N   UNL     1       1.407   1.224   2.772  0.00  0.00    -0.297 N 
ATOM     18  H   UNL     1       1.600   0.400   3.245  0.00  0.00    +0.154 HD
BRANCH  17  19
ATOM     19  C   UNL     1       2.396   2.207   2.647  0.00  0.00    +0.033 A 
ATOM     20  C   UNL     1       2.648   2.786   1.410  0.00  0.00    +0.026 A 
ATOM     21  C   UNL     1       3.620   3.760   1.290  0.00  0.00    +0.040 A 
ATOM     22  C   UNL     1       4.351   4.150   2.399  0.00  0.00    +0.124 A 
ATOM     23  C   UNL     1       4.105   3.570   3.632  0.00  0.00    +0.040 A 
ATOM     24  C   UNL     1       3.130   2.601   3.758  0.00  0.00    +0.026 A 
ATOM     25  F   UNL     1       5.305   5.099   2.278  0.00  0.00    -0.205 F 
ENDBRANCH  17  19
ENDBRANCH  15  17
ENDBRANCH  13  15
ENDBRANCH  10  13
ENDBRANCH   6   7
BRANCH   3  26
ATOM     26  N   UNL     1      -9.898   2.361  -0.753  0.00  0.00    -0.297 N 
ATOM     27  H   UNL     1     -10.194   2.006  -1.606  0.00  0.00    +0.154 HD
BRANCH  26  28
ATOM     28  C   UNL     1     -10.735   3.108  -0.007  0.00  0.00    +0.139 C 
ATOM     29  S   UNL     1     -10.180   3.823   1.446  0.00  0.00    -0.018 S 
BRANCH  28  30
ATOM     30  N   UNL     1     -12.010   3.292  -0.404  0.00  0.00    -0.297 N 
ATOM     31  H   UNL     1     -12.342   2.838  -1.195  0.00  0.00    +0.154 HD
BRANCH  30  32
ATOM     32  C   UNL     1     -12.855   4.137   0.325  0.00  0.00    +0.033 A 
ATOM     33  C   UNL     1     -12.859   4.088   1.713  0.00  0.00    +0.026 A 
ATOM     34  C   UNL     1     -13.689   4.928   2.430  0.00  0.00    +0.040 A 
ATOM     35  C   UNL     1     -14.526   5.808   1.766  0.00  0.00    +0.124 A 
ATOM     36  C   UNL     1     -14.529   5.854   0.382  0.00  0.00    +0.040 A 
ATOM     37  C   UNL     1     -13.696   5.021  -0.339  0.00  0.00    +0.026 A 
ATOM     38  F   UNL     1     -15.342   6.624   2.469  0.00  0.00    -0.205 F 
ENDBRANCH  30  32
ENDBRANCH  28  30
ENDBRANCH  26  28
ENDBRANCH   3  26
TORSDOF 9
