REMARK  Name = ZINC12533908
REMARK  8 active torsions:
REMARK  status: ('A' for Active; 'I' for Inactive)
REMARK    1  A    between atoms: C_4  and  C_7
REMARK    2  A    between atoms: C_7  and  C_9
REMARK    3  A    between atoms: C_12  and  N_18
REMARK    4  A    between atoms: C_13  and  N_15
REMARK    5  A    between atoms: N_18  and  C_19
REMARK    6  A    between atoms: C_24  and  C_25
REMARK    7  A    between atoms: C_24  and  N_60
REMARK    8  A    between atoms: N_27  and  C_28
REMARK                            x       y       z     vdW  Elec       q    Type
REMARK                         _______ _______ _______ _____ _____    ______ ____
ROOT
ATOM      1  N   UNL     1      -3.080   0.558  -0.679  0.00  0.00    -0.339 N 
ATOM      2  H   UNL     1      -3.227   1.517  -0.695  0.00  0.00    +0.146 HD
ENDROOT
BRANCH   1   3
ATOM      3  C   UNL     1      -4.210  -0.354  -0.485  0.00  0.00    +0.067 C 
ATOM      4  C   UNL     1      -4.729  -0.822  -1.848  0.00  0.00    +0.003 C 
ATOM      5  C   UNL     1      -5.948  -1.724  -1.642  0.00  0.00    -0.076 C 
ATOM      6  C   UNL     1      -6.534  -0.563   0.404  0.00  0.00    -0.076 C 
ATOM      7  C   UNL     1      -5.334   0.374   0.258  0.00  0.00    +0.003 C 
ATOM      8  N   UNL     1      -7.001  -0.957  -0.943  0.00  0.00    +0.386 N 
ATOM      9  H   UNL     1      -7.210  -0.110  -1.484  0.00  0.00    -0.081 HD
BRANCH   8  10
ATOM     10  C   UNL     1      -8.229  -1.771  -0.833  0.00  0.00    +0.019 C 
BRANCH  10  11
ATOM     11  C   UNL     1      -9.349  -0.894  -0.333  0.00  0.00    +0.201 C 
ATOM     12  O   UNL     1      -9.167   0.295  -0.184  0.00  0.00    -0.278 OA
ATOM     13  N   UNL     1     -10.553  -1.433  -0.053  0.00  0.00    -0.287 N 
ATOM     14  H   UNL     1     -10.680  -2.393  -0.111  0.00  0.00    +0.155 HD
BRANCH  13  15
ATOM     15  C   UNL     1     -11.618  -0.607   0.321  0.00  0.00    +0.033 A 
ATOM     16  C   UNL     1     -11.385   0.523   1.094  0.00  0.00    +0.023 A 
ATOM     17  C   UNL     1     -12.438   1.339   1.457  0.00  0.00    +0.002 A 
ATOM     18  C   UNL     1     -13.726   1.026   1.061  0.00  0.00    +0.000 A 
ATOM     19  C   UNL     1     -13.962  -0.102   0.297  0.00  0.00    +0.002 A 
ATOM     20  C   UNL     1     -12.912  -0.919  -0.074  0.00  0.00    +0.023 A 
ENDBRANCH  13  15
ENDBRANCH  10  11
ENDBRANCH   8  10
ENDBRANCH   1   3
BRANCH   1  24
ATOM     21  C   UNL     1       0.753  -0.962  -1.160  0.00  0.00    +0.025 A 
ATOM     22  C   UNL     1      -0.343  -1.829  -1.104  0.00  0.00    +0.013 A 
ATOM     23  C   UNL     1      -1.603  -1.326  -0.946  0.00  0.00    +0.026 A 
ATOM     24  C   UNL     1      -1.797   0.049  -0.840  0.00  0.00    +0.058 A 
ATOM     25  C   UNL     1      -0.708   0.916  -0.894  0.00  0.00    +0.148 A 
ATOM     26  C   UNL     1       0.554   0.419  -1.058  0.00  0.00    +0.046 A 
BRANCH  25  27
ATOM     27  N   UNL     1      -0.919   2.376  -0.781  0.00  0.00    +0.058 N 
ATOM     28  O   UNL     1       0.038   3.128  -0.726  0.00  0.00    -0.126 OA
ATOM     29  O   UNL     1      -2.050   2.827  -0.747  0.00  0.00    -0.126 OA
ENDBRANCH  25  27
BRANCH  21  30
ATOM     30  C   UNL     1       2.115  -1.501  -1.331  0.00  0.00    +0.193 C 
ATOM     31  O   UNL     1       2.943  -0.872  -1.959  0.00  0.00    -0.287 OA
BRANCH  30  35
ATOM     32  C   UNL     1       3.141  -5.254   0.373  0.00  0.00    +0.000 A 
ATOM     33  C   UNL     1       4.035  -4.611  -0.465  0.00  0.00    +0.001 A 
ATOM     34  C   UNL     1       3.708  -3.392  -1.021  0.00  0.00    +0.012 A 
ATOM     35  C   UNL     1       2.472  -2.807  -0.738  0.00  0.00    +0.022 A 
ATOM     36  C   UNL     1       1.577  -3.459   0.113  0.00  0.00    +0.012 A 
ATOM     37  C   UNL     1       1.914  -4.680   0.658  0.00  0.00    +0.001 A 
ENDBRANCH  30  35
ENDBRANCH  21  30
ENDBRANCH   1  24
TORSDOF 8
