REMARK  Name = ZINC39337750
REMARK  14 active torsions:
REMARK  status: ('A' for Active; 'I' for Inactive)
REMARK    1  A    between atoms: C_1  and  C_2
REMARK    2  A    between atoms: C_2  and  C_4
REMARK    3  A    between atoms: C_2  and  N_15
REMARK    4  A    between atoms: C_4  and  C_5
REMARK    5  A    between atoms: C_5  and  C_6
REMARK    6  A    between atoms: N_15  and  C_16
REMARK    7  A    between atoms: N_22  and  C_37
REMARK    8  A    between atoms: C_23  and  C_33
REMARK    9  A    between atoms: C_25  and  N_27
REMARK   10  A    between atoms: C_28  and  C_30
REMARK   11  A    between atoms: C_30  and  O_31
REMARK   12  A    between atoms: O_31  and  C_32
REMARK   13  A    between atoms: C_33  and  O_35
REMARK   14  A    between atoms: O_35  and  C_36
REMARK                            x       y       z     vdW  Elec       q    Type
REMARK                         _______ _______ _______ _____ _____    ______ ____
ROOT
ATOM      1  C   UNL     1       2.106  -0.604   1.173  0.00  0.00    +0.044 A 
ATOM      2  C   UNL     1       2.793  -1.070   2.293  0.00  0.00    +0.033 A 
ATOM      3  C   UNL     1       4.170  -1.165   2.229  0.00  0.00    +0.015 A 
ATOM      4  C   UNL     1       4.839  -0.802   1.068  0.00  0.00    +0.104 A 
ATOM      5  N   UNL     1       4.143  -0.361   0.020  0.00  0.00    -0.348 N 
ATOM      6  C   UNL     1       2.830  -0.262   0.041  0.00  0.00    +0.107 A 
ATOM      7  N   UNL     1       6.216  -0.968   1.199  0.00  0.00    -0.305 N 
ATOM      8  C   UNL     1       6.540  -1.480   2.533  0.00  0.00    +0.208 C 
ATOM      9  C   UNL     1       5.186  -1.623   3.249  0.00  0.00    +0.138 C 
ATOM     10  C   UNL     1       7.198  -0.674   0.152  0.00  0.00    +0.131 C 
ATOM     11  H   UNL     1       4.619  -0.110  -0.787  0.00  0.00    +0.167 HD
ENDROOT
BRANCH   9  12
ATOM     12  N   UNL     1       4.948  -3.021   3.617  0.00  0.00    -0.304 N 
ATOM     13  C   UNL     1       4.076  -3.319   4.601  0.00  0.00    +0.239 C 
ATOM     14  O   UNL     1       3.488  -2.430   5.180  0.00  0.00    -0.273 OA
ATOM     15  H   UNL     1       5.417  -3.732   3.153  0.00  0.00    +0.149 HD
BRANCH  13  16
ATOM     16  C   UNL     1       3.830  -4.757   4.979  0.00  0.00    +0.255 C 
BRANCH  16  17
ATOM     17  O   UNL     1       2.873  -4.814   6.038  0.00  0.00    -0.374 OA
ATOM     18  C   UNL     1       2.567  -6.139   6.475  0.00  0.00    +0.194 C 
ENDBRANCH  16  17
ENDBRANCH  13  16
ENDBRANCH   9  12
BRANCH   1  19
ATOM     19  N   UNL     1       0.711  -0.489   1.189  0.00  0.00    -0.340 N 
ATOM     20  H   UNL     1       0.213  -0.731   1.986  0.00  0.00    +0.146 HD
BRANCH  19  22
ATOM     21  C   UNL     1      -0.019   1.526   0.010  0.00  0.00    +0.028 C 
ATOM     22  C   UNL     1       0.002  -0.004   0.002  0.00  0.00    +0.068 C 
BRANCH  22  23
ATOM     23  C   UNL     1      -1.433  -0.534   0.013  0.00  0.00    +0.026 C 
BRANCH  23  24
ATOM     24  C   UNL     1      -1.416  -2.058  -0.121  0.00  0.00    +0.039 C 
BRANCH  24  25
ATOM     25  C   UNL     1      -2.829  -2.579  -0.111  0.00  0.00    -0.022 A 
ATOM     26  C   UNL     1      -3.729  -2.683  -1.262  0.00  0.00    +0.003 A 
ATOM     27  C   UNL     1      -3.609  -2.372  -2.618  0.00  0.00    +0.010 A 
ATOM     28  C   UNL     1      -4.662  -2.594  -3.460  0.00  0.00    +0.001 A 
ATOM     29  C   UNL     1      -5.851  -3.125  -2.979  0.00  0.00    +0.002 A 
ATOM     30  C   UNL     1      -5.990  -3.438  -1.644  0.00  0.00    +0.026 A 
ATOM     31  C   UNL     1      -4.931  -3.222  -0.769  0.00  0.00    +0.047 A 
ATOM     32  N   UNL     1      -4.761  -3.425   0.582  0.00  0.00    -0.360 N 
ATOM     33  C   UNL     1      -3.502  -3.043   0.955  0.00  0.00    +0.087 A 
ATOM     34  H   UNL     1      -5.433  -3.790   1.179  0.00  0.00    +0.165 HD
ENDBRANCH  24  25
ENDBRANCH  23  24
ENDBRANCH  22  23
ENDBRANCH  19  22
ENDBRANCH   1  19
BRANCH   8  35
ATOM     35  C   UNL     1       7.222  -2.820   2.427  0.00  0.00    +0.330 C 
ATOM     36  O   UNL     1       7.132  -3.465   1.409  0.00  0.00    -0.249 OA
BRANCH  35  37
ATOM     37  O   UNL     1       7.929  -3.296   3.463  0.00  0.00    -0.467 OA
ATOM     38  C   UNL     1       8.550  -4.572   3.294  0.00  0.00    +0.280 C 
ENDBRANCH  35  37
ENDBRANCH   8  35
TORSDOF 10
