REMARK  Name = ZINC28252170
REMARK  12 active torsions:
REMARK  status: ('A' for Active; 'I' for Inactive)
REMARK    1  A    between atoms: C_1  and  C_2
REMARK    2  A    between atoms: C_2  and  C_3
REMARK    3  A    between atoms: C_3  and  C_4
REMARK    4  A    between atoms: C_4  and  O_5
REMARK    5  A    between atoms: O_5  and  C_6
REMARK    6  A    between atoms: C_9  and  S_16
REMARK    7  A    between atoms: S_16  and  N_19
REMARK    8  A    between atoms: N_19  and  C_20
REMARK    9  A    between atoms: C_22  and  C_28
REMARK   10  A    between atoms: C_22  and  C_29
REMARK   11  A    between atoms: C_24  and  C_26
REMARK   12  A    between atoms: C_24  and  C_27
REMARK                            x       y       z     vdW  Elec       q    Type
REMARK                         _______ _______ _______ _____ _____    ______ ____
ROOT
ATOM      1  S   UNL     1      -0.209   4.801  -2.567  0.00  0.00    +0.059 S 
ATOM      2  O   UNL     1      -0.102   6.216  -2.502  0.00  0.00    -0.153 OA
ATOM      3  O   UNL     1       0.571   4.019  -3.461  0.00  0.00    -0.153 OA
ENDROOT
BRANCH   1   7
ATOM      4  C   UNL     1      -4.582   3.904  -3.491  0.00  0.00    +0.128 A 
ATOM      5  C   UNL     1      -4.124   5.188  -3.397  0.00  0.00    +0.048 A 
ATOM      6  C   UNL     1      -2.787   5.452  -3.115  0.00  0.00    +0.033 A 
ATOM      7  C   UNL     1      -1.897   4.439  -2.923  0.00  0.00    +0.113 A 
ATOM      8  C   UNL     1      -2.327   3.105  -3.017  0.00  0.00    +0.012 A 
ATOM      9  C   UNL     1      -3.688   2.831  -3.300  0.00  0.00    +0.026 A 
ATOM     10  C   UNL     1      -4.120   1.498  -3.387  0.00  0.00    +0.012 A 
ATOM     11  C   UNL     1      -3.228   0.487  -3.195  0.00  0.00    +0.001 A 
ATOM     12  C   UNL     1      -1.890   0.755  -2.913  0.00  0.00    +0.001 A 
ATOM     13  C   UNL     1      -1.436   2.035  -2.819  0.00  0.00    +0.010 A 
BRANCH   4  14
ATOM     14  O   UNL     1      -5.890   3.663  -3.769  0.00  0.00    -0.491 OA
BRANCH  14  15
ATOM     15  C   UNL     1      -6.735   4.801  -3.951  0.00  0.00    +0.229 C 
BRANCH  15  16
ATOM     16  C   UNL     1      -8.160   4.335  -4.253  0.00  0.00    +0.041 C 
BRANCH  16  18
ATOM     17  C   UNL     1     -10.490   5.088  -4.749  0.00  0.00    +0.004 C 
ATOM     18  C   UNL     1      -9.065   5.554  -4.448  0.00  0.00    -0.000 C 
ENDBRANCH  16  18
ENDBRANCH  15  16
ENDBRANCH  14  15
ENDBRANCH   4  14
ENDBRANCH   1   7
BRANCH   1  19
ATOM     19  N   UNL     1       0.102   4.231  -1.044  0.00  0.00    -0.187 NA
ATOM     20  H   UNL     1       0.944   3.540  -0.890  0.00  0.00    +0.148 HD
BRANCH  19  21
ATOM     21  C   UNL     1      -0.593   4.811   0.113  0.00  0.00    +0.074 C 
ATOM     22  C   UNL     1      -0.870   3.710   1.136  0.00  0.00    +0.007 C 
ATOM     23  C   UNL     1      -1.575   4.288   2.361  0.00  0.00    -0.072 C 
ATOM     24  N   UNL     1      -0.919   5.468   2.885  0.00  0.00    +0.386 N 
ATOM     25  C   UNL     1      -0.385   6.468   1.985  0.00  0.00    -0.072 C 
ATOM     26  C   UNL     1       0.303   5.864   0.763  0.00  0.00    +0.007 C 
ATOM     27  C   UNL     1      -1.478   7.441   1.528  0.00  0.00    -0.010 C 
ATOM     28  C   UNL     1       0.670   7.294   2.753  0.00  0.00    -0.010 C 
ATOM     29  C   UNL     1      -1.567   3.202   3.459  0.00  0.00    -0.010 C 
ATOM     30  C   UNL     1      -3.042   4.576   2.018  0.00  0.00    -0.010 C 
ATOM     31  H   UNL     1      -1.625   6.030   3.514  0.00  0.00    -0.084 HD
ATOM     32  H   UNL     1      -0.050   5.166   3.488  0.00  0.00    -0.084 HD
ENDBRANCH  19  21
ENDBRANCH   1  19
TORSDOF 7
