REMARK  Name = ZINC39672111
REMARK  4 active torsions:
REMARK  status: ('A' for Active; 'I' for Inactive)
REMARK    1  A    between atoms: C_6  and  C_10
REMARK    2  A    between atoms: C_10  and  N_11
REMARK    3  A    between atoms: C_12  and  C_14
REMARK    4  A    between atoms: C_25  and  C_27
REMARK                            x       y       z     vdW  Elec       q    Type
REMARK                         _______ _______ _______ _____ _____    ______ ____
ROOT
ATOM      1  C   UNL     1       4.615  -5.543   2.959  0.00  0.00    +0.100 C 
ATOM      2  C   UNL     1       3.234  -5.727   3.626  0.00  0.00    +0.121 C 
ATOM      3  N   UNL     1       2.905  -7.157   3.417  0.00  0.00    -0.296 N 
ATOM      4  C   UNL     1       4.193  -7.864   3.615  0.00  0.00    +0.115 C 
ATOM      5  C   UNL     1       5.243  -6.947   2.957  0.00  0.00    -0.004 C 
ATOM      6  C   UNL     1       6.532  -6.951   3.773  0.00  0.00    -0.010 C 
ATOM      7  C   UNL     1       7.168  -8.342   3.708  0.00  0.00    -0.082 C 
ATOM      8  N   UNL     1       7.450  -8.688   2.309  0.00  0.00    +0.379 N 
ATOM      9  C   UNL     1       6.195  -8.774   1.553  0.00  0.00    -0.082 C 
ATOM     10  C   UNL     1       5.518  -7.401   1.527  0.00  0.00    -0.010 C 
ATOM     11  C   UNL     1       1.706  -7.694   3.116  0.00  0.00    +0.252 C 
ATOM     12  O   UNL     1       1.596  -8.896   2.975  0.00  0.00    -0.270 OA
ATOM     13  H   UNL     1       8.040  -7.979   1.901  0.00  0.00    -0.086 HD
ATOM     14  H   UNL     1       7.924  -9.578   2.274  0.00  0.00    -0.086 HD
ENDROOT
BRANCH  11  15
ATOM     15  C   UNL     1       0.526  -6.821   2.957  0.00  0.00    +0.108 A 
ATOM     16  C   UNL     1       0.205  -6.295   1.701  0.00  0.00    +0.138 A 
ATOM     17  C   UNL     1      -0.902  -5.479   1.560  0.00  0.00    +0.041 A 
ATOM     18  C   UNL     1      -1.691  -5.182   2.657  0.00  0.00    +0.026 A 
ATOM     19  C   UNL     1      -1.381  -5.698   3.903  0.00  0.00    +0.077 A 
ATOM     20  C   UNL     1      -0.280  -6.521   4.060  0.00  0.00    +0.156 A 
ATOM     21  F   UNL     1       0.018  -7.029   5.275  0.00  0.00    -0.203 F 
ATOM     22 CL   UNL     1      -2.380  -5.317   5.271  0.00  0.00    -0.081 Cl
ATOM     23  F   UNL     1       0.975  -6.582   0.629  0.00  0.00    -0.205 F 
ENDBRANCH  11  15
BRANCH   1  25
ATOM     24  N   UNL     1       5.423  -4.289   0.986  0.00  0.00    -0.309 N 
ATOM     25  C   UNL     1       4.454  -5.038   1.549  0.00  0.00    +0.219 C 
ATOM     26  O   UNL     1       3.453  -5.306   0.919  0.00  0.00    -0.275 OA
ATOM     27  H   UNL     1       6.225  -4.075   1.489  0.00  0.00    +0.149 HD
BRANCH  24  28
ATOM     28  C   UNL     1       5.267  -3.799  -0.385  0.00  0.00    +0.161 C 
BRANCH  28  34
ATOM     29  C   UNL     1       9.746   0.000  -1.590  0.00  0.00    +0.005 A 
ATOM     30  C   UNL     1      10.316  -1.137  -2.187  0.00  0.00    +0.018 A 
ATOM     31  C   UNL     1       9.655  -2.314  -2.177  0.00  0.00    +0.092 A 
ATOM     32  N   UNL     1       8.427  -2.417  -1.590  0.00  0.00    -0.306 N 
ATOM     33  C   UNL     1       7.557  -3.463  -1.440  0.00  0.00    +0.117 A 
ATOM     34  C   UNL     1       6.481  -2.994  -0.772  0.00  0.00    +0.077 A 
ATOM     35  N   UNL     1       6.671  -1.698  -0.513  0.00  0.00    -0.231 NA
ATOM     36  C   UNL     1       7.846  -1.325  -1.000  0.00  0.00    +0.138 A 
ATOM     37  C   UNL     1       8.524  -0.089  -1.001  0.00  0.00    +0.047 A 
ENDBRANCH  28  34
ENDBRANCH  24  28
ENDBRANCH   1  25
TORSDOF 4
