REMARK  Name = ZINC12490235
REMARK  11 active torsions:
REMARK  status: ('A' for Active; 'I' for Inactive)
REMARK    1  A    between atoms: C_1  and  C_2
REMARK    2  A    between atoms: C_4  and  O_12
REMARK    3  A    between atoms: C_5  and  C_9
REMARK    4  A    between atoms: C_9  and  C_10
REMARK    5  A    between atoms: C_9  and  C_11
REMARK    6  A    between atoms: O_12  and  C_13
REMARK    7  A    between atoms: C_13  and  C_14
REMARK    8  A    between atoms: N_16  and  N_17
REMARK    9  A    between atoms: C_18  and  C_20
REMARK   10  A    between atoms: C_23  and  N_26
REMARK   11  A    between atoms: C_27  and  C_29
REMARK                            x       y       z     vdW  Elec       q    Type
REMARK                         _______ _______ _______ _____ _____    ______ ____
ROOT
ATOM      1  C   UNL     1      -0.040  -2.909  -4.768  0.00  0.00    +0.267 C 
ATOM      2  O   UNL     1      -0.026  -4.112  -4.619  0.00  0.00    -0.271 OA
ATOM      3  N   UNL     1      -0.043  -2.384  -6.009  0.00  0.00    -0.231 N 
ATOM      4  H   UNL     1      -0.054  -1.421  -6.129  0.00  0.00    +0.173 HD
ENDROOT
BRANCH   3   5
ATOM      5  N   UNL     1      -0.030  -3.228  -7.127  0.00  0.00    -0.230 N 
ATOM      6  C   UNL     1      -0.033  -2.703  -8.368  0.00  0.00    +0.260 C 
ATOM      7  O   UNL     1      -0.047  -1.497  -8.518  0.00  0.00    -0.269 OA
ATOM      8  H   UNL     1      -0.018  -4.191  -7.008  0.00  0.00    +0.173 HD
BRANCH   6   9
ATOM      9  C   UNL     1      -0.019  -3.593  -9.546  0.00  0.00    +0.038 A 
ATOM     10  C   UNL     1      -0.008  -4.980  -9.376  0.00  0.00    +0.015 A 
ATOM     11  C   UNL     1       0.004  -5.807 -10.476  0.00  0.00    +0.024 A 
ATOM     12  C   UNL     1       0.006  -5.263 -11.757  0.00  0.00    +0.033 A 
ATOM     13  C   UNL     1      -0.004  -3.883 -11.930  0.00  0.00    +0.024 A 
ATOM     14  C   UNL     1      -0.022  -3.050 -10.834  0.00  0.00    +0.015 A 
BRANCH  12  15
ATOM     15  N   UNL     1       0.019  -6.104 -12.869  0.00  0.00    -0.286 N 
ATOM     16  C   UNL     1       0.700  -7.266 -12.828  0.00  0.00    +0.214 C 
ATOM     17  O   UNL     1       1.233  -7.621 -11.798  0.00  0.00    -0.276 OA
ATOM     18  C   UNL     1       0.800  -8.125 -14.062  0.00  0.00    +0.109 C 
ATOM     19  H   UNL     1      -0.463  -5.852 -13.673  0.00  0.00    +0.155 HD
ENDBRANCH  12  15
ENDBRANCH   6   9
ENDBRANCH   3   5
BRANCH   1  20
ATOM     20  C   UNL     1      -0.054  -2.000  -3.566  0.00  0.00    +0.326 C 
BRANCH  20  21
ATOM     21  O   UNL     1      -0.048  -2.788  -2.373  0.00  0.00    -0.482 OA
BRANCH  21  25
ATOM     22  C   UNL     1      -0.105   1.455   0.038  0.00  0.00    +0.045 C 
ATOM     23  C   UNL     1      -0.087  -0.051   0.024  0.00  0.00    -0.033 A 
ATOM     24  C   UNL     1      -0.076  -0.731  -1.179  0.00  0.00    +0.050 A 
ATOM     25  C   UNL     1      -0.059  -2.118  -1.191  0.00  0.00    +0.125 A 
ATOM     26  C   UNL     1      -0.054  -2.820   0.005  0.00  0.00    -0.002 A 
ATOM     27  C   UNL     1      -0.066  -2.137   1.206  0.00  0.00    +0.023 A 
ATOM     28  C   UNL     1      -0.077  -0.753   1.216  0.00  0.00    +0.021 A 
ATOM     29 BR   UNL     1      -0.086   0.179   2.861  0.00  0.00    -0.050 Br
BRANCH  26  30
ATOM     30  C   UNL     1      -0.036  -4.327  -0.005  0.00  0.00    +0.016 C 
ATOM     31  C   UNL     1       1.217  -4.827   0.717  0.00  0.00    +0.012 C 
ATOM     32  C   UNL     1      -1.281  -4.856   0.710  0.00  0.00    +0.012 C 
ENDBRANCH  26  30
ENDBRANCH  21  25
ENDBRANCH  20  21
ENDBRANCH   1  20
TORSDOF 7
