REMARK  Name = ZINC36266626
REMARK  5 active torsions:
REMARK  status: ('A' for Active; 'I' for Inactive)
REMARK    1  A    between atoms: C_4  and  S_8
REMARK    2  A    between atoms: S_8  and  N_11
REMARK    3  A    between atoms: N_11  and  C_12
REMARK    4  A    between atoms: C_12  and  C_13
REMARK    5  A    between atoms: C_13  and  N_19
REMARK                            x       y       z     vdW  Elec       q    Type
REMARK                         _______ _______ _______ _____ _____    ______ ____
ROOT
ATOM      1  N   UNL     1       4.610  -0.591  -1.533  0.00  0.00    -0.191 NA
ATOM      2  H   UNL     1       4.588  -1.303  -2.192  0.00  0.00    +0.148 HD
ENDROOT
BRANCH   1   3
ATOM      3  S   UNL     1       4.073  -0.872   0.008  0.00  0.00    +0.059 S 
ATOM      4  O   UNL     1       5.092  -0.410   0.884  0.00  0.00    -0.153 OA
ATOM      5  O   UNL     1       3.595  -2.210   0.033  0.00  0.00    -0.153 OA
BRANCH   3   9
ATOM      6  C   UNL     1       0.478   1.798   0.680  0.00  0.00    +0.016 A 
ATOM      7  C   UNL     1       0.428   0.800  -0.275  0.00  0.00    +0.018 A 
ATOM      8  C   UNL     1       1.526  -0.016  -0.480  0.00  0.00    +0.044 A 
ATOM      9  C   UNL     1       2.675   0.168   0.269  0.00  0.00    +0.120 A 
ATOM     10  C   UNL     1       2.725   1.166   1.223  0.00  0.00    +0.045 A 
ATOM     11  C   UNL     1       1.626   1.982   1.429  0.00  0.00    +0.020 A 
ATOM     12 BR   UNL     1       1.695   3.348   2.735  0.00  0.00    -0.050 Br
ATOM     13 BR   UNL     1       1.458  -1.382  -1.786  0.00  0.00    -0.048 Br
ENDBRANCH   3   9
ENDBRANCH   1   3
BRANCH   1  14
ATOM     14  C   UNL     1       5.119   0.732  -1.902  0.00  0.00    +0.093 C 
BRANCH  14  15
ATOM     15  C   UNL     1       5.906   0.630  -3.210  0.00  0.00    -0.057 C 
ATOM     16  C   UNL     1       7.080  -0.334  -3.025  0.00  0.00    -0.012 C 
ATOM     17  C   UNL     1       7.997   0.186  -1.917  0.00  0.00    -0.001 C 
ATOM     18  C   UNL     1       8.529   1.569  -2.302  0.00  0.00    -0.000 C 
ATOM     19  C   UNL     1       7.355   2.533  -2.487  0.00  0.00    -0.001 C 
ATOM     20  C   UNL     1       6.437   2.012  -3.595  0.00  0.00    -0.012 C 
BRANCH  15  21
ATOM     21  N   UNL     1       5.025   0.130  -4.274  0.00  0.00    +0.383 N 
ATOM     22  H   UNL     1       4.251   0.766  -4.396  0.00  0.00    -0.089 HD
ATOM     23  H   UNL     1       5.544   0.063  -5.136  0.00  0.00    -0.089 HD
ATOM     24  H   UNL     1       4.674  -0.781  -4.020  0.00  0.00    -0.089 HD
ENDBRANCH  15  21
ENDBRANCH  14  15
ENDBRANCH   1  14
TORSDOF 5
