REMARK  Name = ZINC12575148
REMARK  7 active torsions:
REMARK  status: ('A' for Active; 'I' for Inactive)
REMARK    1  A    between atoms: C_5  and  C_13
REMARK    2  A    between atoms: N_14  and  N_15
REMARK    3  A    between atoms: C_16  and  C_18
REMARK    4  A    between atoms: C_18  and  C_19
REMARK    5  A    between atoms: C_19  and  C_20
REMARK    6  A    between atoms: N_22  and  N_23
REMARK    7  A    between atoms: C_24  and  C_25
REMARK                            x       y       z     vdW  Elec       q    Type
REMARK                         _______ _______ _______ _____ _____    ______ ____
ROOT
ATOM      1  C   UNL     1       6.007  -6.359  -0.239  0.00  0.00    +0.107 C 
ENDROOT
BRANCH   1   3
ATOM      2  N   UNL     1       4.810  -4.199  -0.100  0.00  0.00    -0.207 N 
ATOM      3  C   UNL     1       5.981  -4.852  -0.232  0.00  0.00    +0.233 C 
ATOM      4  O   UNL     1       7.015  -4.228  -0.344  0.00  0.00    -0.274 OA
ATOM      5  H   UNL     1       3.983  -4.699  -0.009  0.00  0.00    +0.177 HD
BRANCH   2   7
ATOM      6  C   UNL     1       3.654  -2.168   0.035  0.00  0.00    +0.139 C 
ATOM      7  N   UNL     1       4.786  -2.798  -0.093  0.00  0.00    -0.188 NA
BRANCH   6  12
ATOM      8  C   UNL     1       7.193   1.513   0.017  0.00  0.00    +0.001 A 
ATOM      9  C   UNL     1       6.022   2.202   0.031  0.00  0.00    +0.008 A 
ATOM     10  C   UNL     1       4.800   1.496   0.040  0.00  0.00    -0.017 A 
ATOM     11  C   UNL     1       4.833   0.032   0.033  0.00  0.00    -0.009 A 
ATOM     12  C   UNL     1       3.629  -0.702   0.042  0.00  0.00    +0.010 A 
ATOM     13  C   UNL     1       2.401  -0.010   0.057  0.00  0.00    -0.009 A 
ATOM     14  C   UNL     1       2.384   1.455   0.064  0.00  0.00    -0.017 A 
ATOM     15  C   UNL     1       3.580   2.173   0.055  0.00  0.00    +0.017 A 
ATOM     16  C   UNL     1       1.138   2.118   0.080  0.00  0.00    +0.008 A 
ATOM     17  C   UNL     1      -0.009   1.389   0.089  0.00  0.00    +0.001 A 
ATOM     18  C   UNL     1       0.010  -0.004   0.083  0.00  0.00    +0.001 A 
ATOM     19  C   UNL     1       1.177  -0.702   0.067  0.00  0.00    +0.009 A 
ATOM     20  C   UNL     1       6.079  -0.618   0.018  0.00  0.00    +0.009 A 
ATOM     21  C   UNL     1       7.222   0.120   0.011  0.00  0.00    +0.001 A 
ENDBRANCH   6  12
ENDBRANCH   2   7
ENDBRANCH   1   3
BRANCH   1  22
ATOM     22  C   UNL     1       7.449  -6.844  -0.401  0.00  0.00    +0.107 C 
BRANCH  22  23
ATOM     23  C   UNL     1       7.475  -8.351  -0.408  0.00  0.00    +0.233 C 
ATOM     24  O   UNL     1       6.441  -8.975  -0.295  0.00  0.00    -0.274 OA
ATOM     25  N   UNL     1       8.647  -9.004  -0.540  0.00  0.00    -0.207 N 
ATOM     26  H   UNL     1       9.473  -8.504  -0.630  0.00  0.00    +0.177 HD
BRANCH  25  27
ATOM     27  N   UNL     1       8.671 -10.405  -0.547  0.00  0.00    -0.188 NA
ATOM     28  C   UNL     1       9.802 -11.035  -0.674  0.00  0.00    +0.139 C 
BRANCH  28  29
ATOM     29  C   UNL     1       9.827 -12.501  -0.681  0.00  0.00    +0.010 A 
ATOM     30  C   UNL     1      11.056 -13.193  -0.691  0.00  0.00    -0.009 A 
ATOM     31  C   UNL     1      11.073 -14.658  -0.698  0.00  0.00    -0.017 A 
ATOM     32  C   UNL     1       9.877 -15.376  -0.695  0.00  0.00    +0.017 A 
ATOM     33  C   UNL     1       8.656 -14.699  -0.685  0.00  0.00    -0.017 A 
ATOM     34  C   UNL     1       8.623 -13.235  -0.673  0.00  0.00    -0.009 A 
ATOM     35  C   UNL     1       7.377 -12.585  -0.658  0.00  0.00    +0.009 A 
ATOM     36  C   UNL     1       6.234 -13.322  -0.650  0.00  0.00    +0.001 A 
ATOM     37  C   UNL     1       6.263 -14.715  -0.656  0.00  0.00    +0.001 A 
ATOM     38  C   UNL     1       7.434 -15.404  -0.681  0.00  0.00    +0.008 A 
ATOM     39  C   UNL     1      12.319 -15.320  -0.708  0.00  0.00    +0.008 A 
ATOM     40  C   UNL     1      13.465 -14.591  -0.710  0.00  0.00    +0.001 A 
ATOM     41  C   UNL     1      13.446 -13.198  -0.704  0.00  0.00    +0.001 A 
ATOM     42  C   UNL     1      12.278 -12.500  -0.695  0.00  0.00    +0.009 A 
ENDBRANCH  28  29
ENDBRANCH  25  27
ENDBRANCH  22  23
ENDBRANCH   1  22
TORSDOF 7
