REMARK  Name = ZINC09516216
REMARK  8 active torsions:
REMARK  status: ('A' for Active; 'I' for Inactive)
REMARK    1  A    between atoms: C_1  and  C_2
REMARK    2  A    between atoms: C_2  and  C_4
REMARK    3  A    between atoms: C_2  and  O_14
REMARK    4  A    between atoms: N_10  and  C_11
REMARK    5  A    between atoms: N_10  and  C_12
REMARK    6  A    between atoms: O_14  and  C_15
REMARK    7  A    between atoms: C_15  and  C_17
REMARK    8  A    between atoms: C_30  and  C_31
REMARK                            x       y       z     vdW  Elec       q    Type
REMARK                         _______ _______ _______ _____ _____    ______ ____
ROOT
ATOM      1  C   UNL     1       2.388  -0.065   0.616  0.00  0.00    +0.073 A 
ATOM      2  C   UNL     1       2.379   1.372   0.346  0.00  0.00    +0.015 A 
ATOM      3  C   UNL     1       3.553   2.131   0.373  0.00  0.00    +0.011 A 
ATOM      4  C   UNL     1       3.497   3.469   0.114  0.00  0.00    +0.001 A 
ATOM      5  C   UNL     1       2.284   4.088  -0.177  0.00  0.00    +0.002 A 
ATOM      6  C   UNL     1       1.123   3.380  -0.211  0.00  0.00    +0.028 A 
ATOM      7  C   UNL     1       1.141   1.996   0.051  0.00  0.00    +0.072 A 
ATOM      8  N   UNL     1       0.021   1.277   0.024  0.00  0.00    -0.247 NA
ATOM      9  C   UNL     1      -0.004  -0.030   0.265  0.00  0.00    +0.072 A 
ATOM     10  C   UNL     1       1.173  -0.735   0.567  0.00  0.00    -0.007 A 
ATOM     11  C   UNL     1       0.852  -2.191   0.793  0.00  0.00    +0.043 C 
ATOM     12  C   UNL     1      -0.664  -2.333   0.601  0.00  0.00    +0.042 C 
ATOM     13  C   UNL     1      -1.160  -0.947   0.270  0.00  0.00    -0.021 C 
ATOM     14  C   UNL     1      -2.437  -0.606   0.023  0.00  0.00    +0.013 C 
ENDROOT
BRANCH  14  15
ATOM     15  C   UNL     1      -3.470  -1.651  -0.085  0.00  0.00    -0.025 A 
ATOM     16  C   UNL     1      -3.178  -2.867  -0.709  0.00  0.00    +0.008 A 
ATOM     17  C   UNL     1      -4.149  -3.842  -0.799  0.00  0.00    +0.001 A 
ATOM     18  C   UNL     1      -5.414  -3.614  -0.286  0.00  0.00    +0.000 A 
ATOM     19  C   UNL     1      -5.712  -2.410   0.329  0.00  0.00    +0.001 A 
ATOM     20  C   UNL     1      -4.750  -1.428   0.432  0.00  0.00    +0.008 A 
ENDBRANCH  14  15
BRANCH   1  21
ATOM     21  C   UNL     1       3.644  -0.778   0.930  0.00  0.00    +0.341 C 
ATOM     22  O   UNL     1       4.307  -1.263   0.036  0.00  0.00    -0.245 OA
BRANCH  21  23
ATOM     23  O   UNL     1       4.052  -0.891   2.209  0.00  0.00    -0.450 OA
BRANCH  23  25
ATOM     24  C   UNL     1       4.998  -3.091   2.651  0.00  0.00    +0.060 C 
ATOM     25  C   UNL     1       5.295  -1.605   2.443  0.00  0.00    +0.241 C 
BRANCH  25  26
ATOM     26  C   UNL     1       5.969  -1.051   3.672  0.00  0.00    +0.176 A 
ATOM     27  N   UNL     1       5.261  -0.819   4.764  0.00  0.00    -0.196 NA
ATOM     28  C   UNL     1       5.852  -0.330   5.851  0.00  0.00    +0.217 A 
ATOM     29  N   UNL     1       7.156  -0.075   5.838  0.00  0.00    -0.181 NA
ATOM     30  C   UNL     1       7.864  -0.309   4.739  0.00  0.00    +0.222 A 
ATOM     31  N   UNL     1       7.267  -0.803   3.657  0.00  0.00    -0.195 NA
ATOM     32  N   UNL     1       9.219  -0.046   4.721  0.00  0.00    -0.306 N 
ATOM     33  C   UNL     1       9.877   0.492   5.915  0.00  0.00    +0.132 C 
ATOM     34  C   UNL     1       9.999  -0.305   3.509  0.00  0.00    +0.132 C 
ATOM     35  N   UNL     1       5.112  -0.087   6.990  0.00  0.00    -0.327 N 
ATOM     36  H   UNL     1       4.160  -0.273   6.999  0.00  0.00    +0.145 HD
ATOM     37  H   UNL     1       5.543   0.269   7.782  0.00  0.00    +0.145 HD
ENDBRANCH  25  26
ENDBRANCH  23  25
ENDBRANCH  21  23
ENDBRANCH   1  21
TORSDOF 5
