REMARK  Name = ZINC40545701
REMARK  7 active torsions:
REMARK  status: ('A' for Active; 'I' for Inactive)
REMARK    1  A    between atoms: CE_1  and  SD_2
REMARK    2  A    between atoms: SD_2  and  CG_3
REMARK    3  A    between atoms: CG_3  and  CB_4
REMARK    4  A    between atoms: CB_4  and  CA_5
REMARK    5  A    between atoms: CA_5  and  C_7
REMARK    6  A    between atoms: CA_5  and  N_10
REMARK    7  A    between atoms: N_13  and  C_14
REMARK                            x       y       z     vdW  Elec       q    Type
REMARK                         _______ _______ _______ _____ _____    ______ ____
ROOT
ATOM      1  N   MET A   1       0.175  -0.705  -4.138  0.00  0.00    -0.286 N 
ATOM      2  C   UNK A   0       0.871  -0.393  -5.249  0.00  0.00    +0.305 C 
ATOM      3  O   UNK A   0       1.579   0.596  -5.266  0.00  0.00    -0.252 OA
ATOM      4  N   UNK A   0       0.782  -1.176  -6.342  0.00  0.00    -0.267 N 
ATOM      5  H   MET A   1      -0.389  -1.494  -4.125  0.00  0.00    +0.151 HD
ATOM      6  H   UNK A   0       0.276  -2.003  -6.306  0.00  0.00    +0.156 HD
ENDROOT
BRANCH   4   7
ATOM      7  C   UNK A   0       1.421  -0.796  -7.530  0.00  0.00    +0.072 A 
ATOM      8  C   UNK A   0       2.719  -1.218  -7.788  0.00  0.00    +0.065 A 
ATOM      9  C   UNK A   0       3.346  -0.842  -8.961  0.00  0.00    +0.037 A 
ATOM     10  C   UNK A   0       2.683  -0.045  -9.877  0.00  0.00    +0.021 A 
ATOM     11  C   UNK A   0       1.390   0.377  -9.623  0.00  0.00    +0.037 A 
ATOM     12  C   UNK A   0       0.755  -0.001  -8.455  0.00  0.00    +0.065 A 
ATOM     13 CL   UNK A   0      -0.870   0.523  -8.140  0.00  0.00    -0.082 Cl
ATOM     14 BR   UNK A   0       3.545   0.468 -11.480  0.00  0.00    -0.050 Br
ATOM     15 CL   UNK A   0       3.553  -2.217  -6.639  0.00  0.00    -0.082 Cl
ENDBRANCH   4   7
BRANCH   1  16
ATOM     16  CA  MET A   1       0.272   0.147  -2.950  0.00  0.00    +0.188 C 
BRANCH  16  17
ATOM     17  C   MET A   1       1.474  -0.260  -2.137  0.00  0.00    +0.376 C 
ATOM     18  O   MET A   1       1.857  -1.417  -2.151  0.00  0.00    -0.244 OA
ATOM     19  OXT MET A   1       2.064   0.570  -1.465  0.00  0.00    -0.244 OA
ENDBRANCH  16  17
BRANCH  16  20
ATOM     20  CB  MET A   1      -0.993  -0.013  -2.104  0.00  0.00    +0.044 C 
BRANCH  20  21
ATOM     21  CG  MET A   1      -2.198   0.516  -2.884  0.00  0.00    +0.071 C 
BRANCH  21  23
ATOM     22  CE  MET A   1      -5.017   0.992  -2.935  0.00  0.00    +0.084 C 
ATOM     23  SD  MET A   1      -3.698   0.328  -1.881  0.00  0.00    -0.164 S 
ENDBRANCH  21  23
ENDBRANCH  20  21
ENDBRANCH  16  20
ENDBRANCH   1  16
TORSDOF 6
