REMARK  Name = ZINC03335652
REMARK  9 active torsions:
REMARK  status: ('A' for Active; 'I' for Inactive)
REMARK    1  A    between atoms: C_1  and  C_2
REMARK    2  A    between atoms: C_5  and  C_8
REMARK    3  A    between atoms: C_9  and  C_31
REMARK    4  A    between atoms: C_12  and  S_14
REMARK    5  A    between atoms: S_14  and  C_15
REMARK    6  A    between atoms: C_15  and  C_16
REMARK    7  A    between atoms: C_28  and  C_29
REMARK    8  A    between atoms: C_28  and  C_30
REMARK    9  A    between atoms: C_34  and  C_37
REMARK                            x       y       z     vdW  Elec       q    Type
REMARK                         _______ _______ _______ _____ _____    ______ ____
ROOT
ATOM      1  C   UNL     1      -0.562  -3.642   4.813  0.00  0.00    +0.102 A 
ATOM      2  C   UNL     1      -1.685  -2.807   4.650  0.00  0.00    +0.119 A 
ATOM      3  N   UNL     1      -1.597  -1.760   3.836  0.00  0.00    -0.145 NA
ATOM      4  N   UNL     1      -0.500  -1.512   3.211  0.00  0.00    -0.122 NA
ATOM      5  C   UNL     1       0.570  -2.288   3.345  0.00  0.00    +0.210 A 
ATOM      6  N   UNL     1       0.549  -3.349   4.141  0.00  0.00    -0.218 NA
ENDROOT
BRANCH   1  11
ATOM      7  C   UNL     1      -0.773  -8.216   8.302  0.00  0.00    +0.044 C 
ATOM      8  C   UNL     1      -0.718  -7.019   7.389  0.00  0.00    -0.050 A 
ATOM      9  C   UNL     1       0.026  -7.075   6.224  0.00  0.00    +0.004 A 
ATOM     10  C   UNL     1       0.081  -5.982   5.383  0.00  0.00    +0.010 A 
ATOM     11  C   UNL     1      -0.617  -4.819   5.710  0.00  0.00    +0.003 A 
ATOM     12  C   UNL     1      -1.361  -4.767   6.889  0.00  0.00    +0.010 A 
ATOM     13  C   UNL     1      -1.411  -5.868   7.719  0.00  0.00    +0.004 A 
ENDBRANCH   1  11
BRANCH   2  14
ATOM     14  C   UNL     1      -2.946  -3.091   5.376  0.00  0.00    +0.004 A 
ATOM     15  C   UNL     1      -3.341  -4.409   5.603  0.00  0.00    +0.010 A 
ATOM     16  C   UNL     1      -4.513  -4.668   6.283  0.00  0.00    +0.004 A 
ATOM     17  C   UNL     1      -5.301  -3.623   6.730  0.00  0.00    -0.050 A 
ATOM     18  C   UNL     1      -4.918  -2.313   6.503  0.00  0.00    +0.004 A 
ATOM     19  C   UNL     1      -3.745  -2.042   5.829  0.00  0.00    +0.010 A 
ATOM     20  C   UNL     1      -6.584  -3.912   7.467  0.00  0.00    +0.044 C 
ENDBRANCH   2  14
BRANCH   5  21
ATOM     21  S   UNL     1       2.040  -1.899   2.455  0.00  0.00    -0.075 S 
BRANCH  21  22
ATOM     22  C   UNL     1       1.493  -0.415   1.576  0.00  0.00    +0.173 C 
BRANCH  22  23
ATOM     23  C   UNL     1       2.621   0.110   0.726  0.00  0.00    +0.231 C 
ATOM     24  O   UNL     1       3.536  -0.622   0.413  0.00  0.00    -0.274 OA
ATOM     25  N   UNL     1       2.612   1.392   0.311  0.00  0.00    -0.255 N 
ATOM     26  C   UNL     1       1.506   2.223   0.549  0.00  0.00    +0.059 A 
ATOM     27  C   UNL     1       0.227   1.702   0.638  0.00  0.00    +0.025 A 
ATOM     28  C   UNL     1      -0.844   2.548   0.862  0.00  0.00    +0.002 A 
ATOM     29  C   UNL     1      -0.638   3.908   1.007  0.00  0.00    +0.002 A 
ATOM     30  C   UNL     1       0.637   4.434   0.921  0.00  0.00    +0.025 A 
ATOM     31  C   UNL     1       1.716   3.595   0.693  0.00  0.00    +0.055 A 
ATOM     32  N   UNL     1       3.016   4.107   0.610  0.00  0.00    -0.282 N 
ATOM     33  C   UNL     1       4.020   3.357   0.118  0.00  0.00    +0.241 C 
ATOM     34  O   UNL     1       5.147   3.805   0.095  0.00  0.00    -0.273 OA
ATOM     35  C   UNL     1       3.762   1.966  -0.404  0.00  0.00    +0.113 C 
ATOM     36  C   UNL     1       4.997   1.094  -0.171  0.00  0.00    +0.042 C 
ATOM     37  C   UNL     1       3.454   2.029  -1.901  0.00  0.00    +0.042 C 
ATOM     38  H   UNL     1       3.195   5.012   0.908  0.00  0.00    +0.155 HD
ENDBRANCH  22  23
ENDBRANCH  21  22
ENDBRANCH   5  21
TORSDOF 5
