REMARK  Name = ZINC66702384
REMARK  7 active torsions:
REMARK  status: ('A' for Active; 'I' for Inactive)
REMARK    1  A    between atoms: C_1  and  C_2
REMARK    2  A    between atoms: C_11  and  C_12
REMARK    3  A    between atoms: C_12  and  C_13
REMARK    4  A    between atoms: C_13  and  N_14
REMARK    5  A    between atoms: N_17  and  C_18
REMARK    6  A    between atoms: C_18  and  C_19
REMARK    7  A    between atoms: C_23  and  C_25
REMARK                            x       y       z     vdW  Elec       q    Type
REMARK                         _______ _______ _______ _____ _____    ______ ____
ROOT
ATOM      1  N   UNL     1       1.518  -6.746  -2.068  0.00  0.00    -0.299 N 
ATOM      2  C   UNL     1       2.684  -7.178  -2.588  0.00  0.00    +0.300 C 
ATOM      3  O   UNL     1       3.728  -6.641  -2.270  0.00  0.00    -0.253 OA
ATOM      4  N   UNL     1       2.693  -8.204  -3.462  0.00  0.00    -0.292 N 
ATOM      5  H   UNL     1       0.686  -7.173  -2.322  0.00  0.00    +0.150 HD
ATOM      6  H   UNL     1       1.860  -8.631  -3.716  0.00  0.00    +0.151 HD
ENDROOT
BRANCH   1   7
ATOM      7  C   UNL     1       1.509  -5.630  -1.118  0.00  0.00    +0.110 C 
BRANCH   7   8
ATOM      8  C   UNL     1       0.070  -5.342  -0.684  0.00  0.00    +0.056 C 
BRANCH   8  19
ATOM      9  C   UNL     1      -0.018   1.503   0.010  0.00  0.00    +0.044 C 
ATOM     10  C   UNL     1       0.002  -0.004   0.002  0.00  0.00    -0.048 A 
ATOM     11  C   UNL     1       0.006  -0.685  -1.208  0.00  0.00    +0.004 A 
ATOM     12  C   UNL     1       0.024  -2.050  -1.236  0.00  0.00    +0.010 A 
ATOM     13  C   UNL     1       0.040  -2.768  -0.038  0.00  0.00    +0.003 A 
ATOM     14  C   UNL     1       0.037  -2.083   1.190  0.00  0.00    +0.047 A 
ATOM     15  C   UNL     1       0.023  -0.692   1.195  0.00  0.00    +0.029 A 
ATOM     16  N   UNL     1       0.054  -3.035   2.186  0.00  0.00    -0.360 N 
ATOM     17  H   UNL     1       0.057  -2.846   3.137  0.00  0.00    +0.165 HD
ATOM     18  C   UNL     1       0.068  -4.286   1.632  0.00  0.00    +0.087 A 
ATOM     19  C   UNL     1       0.060  -4.195   0.293  0.00  0.00    -0.021 A 
ENDBRANCH   8  19
ENDBRANCH   7   8
ENDBRANCH   1   7
BRANCH   4  20
ATOM     20  C   UNL     1       3.960  -8.673  -4.028  0.00  0.00    +0.181 C 
BRANCH  20  21
ATOM     21  C   UNL     1       3.695  -9.820  -4.969  0.00  0.00    +0.143 A 
ATOM     22  N   UNL     1       3.547  -9.727  -6.302  0.00  0.00    -0.261 N 
ATOM     23  H   UNL     1       3.590  -8.918  -6.835  0.00  0.00    +0.190 HD
ATOM     24  N   UNL     1       3.319 -11.031  -6.772  0.00  0.00    -0.152 NA
ATOM     25  C   UNL     1       3.342 -11.821  -5.719  0.00  0.00    +0.188 A 
ATOM     26  N   UNL     1       3.576 -11.076  -4.629  0.00  0.00    -0.209 NA
BRANCH  25  27
ATOM     27  C   UNL     1       3.147 -13.287  -5.737  0.00  0.00    +0.058 A 
ATOM     28  C   UNL     1       2.917 -14.114  -6.803  0.00  0.00    +0.019 A 
ATOM     29  C   UNL     1       2.765 -15.464  -6.574  0.00  0.00    +0.008 A 
ATOM     30  C   UNL     1       2.849 -15.932  -5.303  0.00  0.00    +0.046 A 
ATOM     31  S   UNL     1       3.160 -14.440  -4.374  0.00  0.00    -0.093 S 
ENDBRANCH  25  27
ENDBRANCH  20  21
ENDBRANCH   4  20
TORSDOF 6
