REMARK  Name = ZINC07204094
REMARK  7 active torsions:
REMARK  status: ('A' for Active; 'I' for Inactive)
REMARK    1  A    between atoms: C_1  and  C_2
REMARK    2  A    between atoms: C_5  and  C_8
REMARK    3  A    between atoms: C_8  and  N_9
REMARK    4  A    between atoms: C_10  and  C_12
REMARK    5  A    between atoms: C_12  and  C_14
REMARK    6  A    between atoms: C_12  and  S_15
REMARK    7  A    between atoms: S_15  and  C_16
REMARK                            x       y       z     vdW  Elec       q    Type
REMARK                         _______ _______ _______ _____ _____    ______ ____
ROOT
ATOM      1  C   UNL     1       2.752   5.767  -1.207  0.00  0.00    +0.192 A 
ATOM      2  N   UNL     1       1.449   5.535  -1.264  0.00  0.00    -0.207 NA
ATOM      3  C   UNL     1       0.873   4.426  -0.806  0.00  0.00    +0.129 A 
ATOM      4  C   UNL     1       1.748   3.460  -0.230  0.00  0.00    +0.051 A 
ATOM      5  C   UNL     1       1.379   2.173   0.339  0.00  0.00    -0.025 A 
ATOM      6  C   UNL     1       2.386   1.416   0.831  0.00  0.00    -0.004 A 
ATOM      7  S   UNL     1       3.860   2.369   0.565  0.00  0.00    -0.073 S 
ATOM      8  C   UNL     1       3.129   3.778  -0.204  0.00  0.00    +0.115 A 
ATOM      9  N   UNL     1       3.623   4.903  -0.681  0.00  0.00    -0.214 NA
ATOM     10  C   UNL     1       2.277   0.064   1.465  0.00  0.00    +0.043 C 
ATOM     11  C   UNL     1       0.805  -0.194   1.815  0.00  0.00    +0.005 C 
ATOM     12  C   UNL     1      -0.056   0.160   0.599  0.00  0.00    +0.005 C 
ATOM     13  C   UNL     1      -0.063   1.675   0.392  0.00  0.00    +0.037 C 
ATOM     14  N   UNL     1      -0.493   4.224  -0.884  0.00  0.00    -0.343 N 
ATOM     15  H   UNL     1      -0.914   3.541  -0.339  0.00  0.00    +0.144 HD
ATOM     16  H   UNL     1      -1.030   4.765  -1.484  0.00  0.00    +0.144 HD
ENDROOT
BRANCH   1  17
ATOM     17  S   UNL     1       3.364   7.286  -1.858  0.00  0.00    -0.073 S 
BRANCH  17  18
ATOM     18  C   UNL     1       1.814   8.035  -2.417  0.00  0.00    +0.137 C 
ATOM     19  C   UNL     1       0.919   8.319  -1.209  0.00  0.00    +0.029 C 
BRANCH  18  21
ATOM     20  N   UNL     1       1.199   9.852  -3.978  0.00  0.00    -0.310 N 
ATOM     21  C   UNL     1       2.111   9.325  -3.137  0.00  0.00    +0.226 C 
ATOM     22  O   UNL     1       3.170   9.889  -2.959  0.00  0.00    -0.275 OA
ATOM     23  H   UNL     1       0.352   9.402  -4.120  0.00  0.00    +0.149 HD
BRANCH  20  24
ATOM     24  C   UNL     1       1.488  11.107  -4.678  0.00  0.00    +0.139 C 
BRANCH  24  29
ATOM     25  C   UNL     1      -3.006  12.525  -8.022  0.00  0.00    +0.044 C 
ATOM     26  C   UNL     1      -1.834  12.156  -7.150  0.00  0.00    -0.050 A 
ATOM     27  C   UNL     1      -1.778  12.602  -5.843  0.00  0.00    +0.003 A 
ATOM     28  C   UNL     1      -0.702  12.263  -5.043  0.00  0.00    +0.005 A 
ATOM     29  C   UNL     1       0.316  11.477  -5.550  0.00  0.00    -0.030 A 
ATOM     30  C   UNL     1       0.261  11.035  -6.859  0.00  0.00    +0.005 A 
ATOM     31  C   UNL     1      -0.816  11.370  -7.657  0.00  0.00    +0.003 A 
ENDBRANCH  24  29
ENDBRANCH  20  24
ENDBRANCH  18  21
ENDBRANCH  17  18
ENDBRANCH   1  17
TORSDOF 5
