REMARK  Name = ZINC36610372
REMARK  12 active torsions:
REMARK  status: ('A' for Active; 'I' for Inactive)
REMARK    1  A    between atoms: C_1  and  C_2
REMARK    2  A    between atoms: C_2  and  C_3
REMARK    3  A    between atoms: C_3  and  C_4
REMARK    4  A    between atoms: C_4  and  N_5
REMARK    5  A    between atoms: C_6  and  C_8
REMARK    6  A    between atoms: C_8  and  C_10
REMARK    7  A    between atoms: C_8  and  N_20
REMARK    8  A    between atoms: C_12  and  N_17
REMARK    9  A    between atoms: N_20  and  C_21
REMARK   10  A    between atoms: C_27  and  C_29
REMARK   11  A    between atoms: C_33  and  O_36
REMARK   12  A    between atoms: C_34  and  O_35
REMARK                            x       y       z     vdW  Elec       q    Type
REMARK                         _______ _______ _______ _____ _____    ______ ____
ROOT
ATOM      1  C   UNL     1      -3.821  -4.400   0.707  0.00  0.00    +0.199 C 
ENDROOT
BRANCH   1   2
ATOM      2  C   UNL     1      -3.784  -3.985  -0.741  0.00  0.00    +0.003 A 
ATOM      3  C   UNL     1      -2.587  -3.609  -1.322  0.00  0.00    +0.040 A 
ATOM      4  C   UNL     1      -2.552  -3.228  -2.650  0.00  0.00    +0.127 A 
ATOM      5  C   UNL     1      -3.715  -3.221  -3.398  0.00  0.00    +0.034 A 
ATOM      6  C   UNL     1      -4.912  -3.596  -2.819  0.00  0.00    +0.022 A 
ATOM      7  C   UNL     1      -4.946  -3.984  -1.491  0.00  0.00    +0.047 A 
ATOM      8 CL   UNL     1      -6.448  -4.463  -0.765  0.00  0.00    -0.083 Cl
BRANCH   4   9
ATOM      9  N   UNL     1      -1.270  -2.825  -3.271  0.00  0.00    +0.056 N 
ATOM     10  O   UNL     1      -0.254  -2.830  -2.616  0.00  0.00    -0.126 OA
ATOM     11  O   UNL     1      -1.240  -2.491  -4.432  0.00  0.00    -0.126 OA
ENDBRANCH   4   9
ENDBRANCH   1   2
BRANCH   1  13
ATOM     12  N   UNL     1      -2.321  -2.662   1.626  0.00  0.00    -0.313 N 
ATOM     13  C   UNL     1      -2.547  -3.969   1.386  0.00  0.00    +0.239 C 
ATOM     14  O   UNL     1      -1.726  -4.798   1.717  0.00  0.00    -0.273 OA
ATOM     15  H   UNL     1      -2.942  -1.994   1.297  0.00  0.00    +0.149 HD
BRANCH  12  16
ATOM     16  C   UNL     1      -1.136  -2.252   2.385  0.00  0.00    +0.104 C 
BRANCH  16  17
ATOM     17  C   UNL     1      -1.117  -0.727   2.514  0.00  0.00    +0.018 C 
BRANCH  17  19
ATOM     18  C   UNL     1       0.139   1.226   3.436  0.00  0.00    +0.004 C 
ATOM     19  C   UNL     1       0.120  -0.298   3.306  0.00  0.00    -0.002 C 
ENDBRANCH  17  19
ENDBRANCH  16  17
ENDBRANCH  12  16
ENDBRANCH   1  13
BRANCH   1  20
ATOM     20  N   UNL     1      -3.952  -5.857   0.793  0.00  0.00    -0.251 N 
ATOM     21  C   UNL     1      -5.011  -6.402   1.424  0.00  0.00    +0.255 C 
ATOM     22  O   UNL     1      -5.911  -5.691   1.827  0.00  0.00    -0.269 OA
BRANCH  20  23
ATOM     23  C   UNL     1      -2.978  -6.682   0.222  0.00  0.00    +0.038 A 
ATOM     24  C   UNL     1      -2.663  -6.556  -1.125  0.00  0.00    +0.023 A 
ATOM     25  C   UNL     1      -1.700  -7.372  -1.686  0.00  0.00    +0.002 A 
ATOM     26  C   UNL     1      -1.050  -8.314  -0.908  0.00  0.00    +0.000 A 
ATOM     27  C   UNL     1      -1.362  -8.441   0.433  0.00  0.00    +0.002 A 
ATOM     28  C   UNL     1      -2.320  -7.624   1.002  0.00  0.00    +0.023 A 
ENDBRANCH  20  23
BRANCH  21  29
ATOM     29  C   UNL     1      -5.079  -7.862   1.624  0.00  0.00    +0.082 A 
ATOM     30  C   UNL     1      -4.566  -8.729   0.655  0.00  0.00    +0.017 A 
ATOM     31  C   UNL     1      -4.631 -10.092   0.845  0.00  0.00    +0.005 A 
ATOM     32  C   UNL     1      -5.204 -10.611   1.995  0.00  0.00    +0.049 A 
ATOM     33  C   UNL     1      -5.716  -9.765   2.964  0.00  0.00    +0.159 A 
ATOM     34  C   UNL     1      -5.652  -8.386   2.789  0.00  0.00    +0.171 A 
BRANCH  34  35
ATOM     35  O   UNL     1      -6.148  -7.554   3.740  0.00  0.00    -0.503 OA
ATOM     36  H   UNL     1      -7.081  -7.330   3.619  0.00  0.00    +0.292 HD
ENDBRANCH  34  35
BRANCH  33  37
ATOM     37  O   UNL     1      -6.277 -10.283   4.090  0.00  0.00    -0.503 OA
ATOM     38  H   UNL     1      -5.652 -10.414   4.816  0.00  0.00    +0.292 HD
ENDBRANCH  33  37
ENDBRANCH  21  29
ENDBRANCH   1  20
TORSDOF 11
