REMARK  Name = ZINC11341087
REMARK  12 active torsions:
REMARK  status: ('A' for Active; 'I' for Inactive)
REMARK    1  A    between atoms: C_1  and  C_2
REMARK    2  A    between atoms: C_3  and  C_22
REMARK    3  A    between atoms: C_4  and  N_10
REMARK    4  A    between atoms: C_6  and  C_7
REMARK    5  A    between atoms: C_11  and  C_13
REMARK    6  A    between atoms: C_13  and  S_14
REMARK    7  A    between atoms: S_14  and  C_15
REMARK    8  A    between atoms: C_22  and  O_24
REMARK    9  A    between atoms: O_24  and  C_25
REMARK   10  A    between atoms: C_25  and  C_26
REMARK   11  A    between atoms: C_26  and  O_27
REMARK   12  A    between atoms: O_27  and  C_28
REMARK                            x       y       z     vdW  Elec       q    Type
REMARK                         _______ _______ _______ _____ _____    ______ ____
ROOT
ATOM      1  C   UNL     1       1.893   4.645   0.009  0.00  0.00    +0.046 C 
ATOM      2  C   UNL     1       0.786   3.622   0.013  0.00  0.00    -0.015 A 
ATOM      3  C   UNL     1       1.065   2.264   0.004  0.00  0.00    +0.091 A 
ATOM      4  C   UNL     1      -0.017   1.377   0.010  0.00  0.00    +0.087 A 
ATOM      5  S   UNL     1      -1.387   2.439   0.021  0.00  0.00    -0.068 S 
ATOM      6  C   UNL     1      -0.528   4.001   0.028  0.00  0.00    +0.079 A 
ENDROOT
BRANCH   6   7
ATOM      7  C   UNL     1      -1.090   5.353   0.040  0.00  0.00    +0.248 C 
ATOM      8  O   UNL     1      -0.350   6.320   0.038  0.00  0.00    -0.270 OA
ATOM      9  N   UNL     1      -2.426   5.527   0.053  0.00  0.00    -0.325 N 
ATOM     10  H   UNL     1      -3.016   4.757   0.055  0.00  0.00    +0.145 HD
ATOM     11  H   UNL     1      -2.799   6.423   0.061  0.00  0.00    +0.145 HD
ENDBRANCH   6   7
BRANCH   4  12
ATOM     12  N   UNL     1       0.002  -0.004   0.002  0.00  0.00    -0.279 N 
ATOM     13  C   UNL     1      -1.156  -0.694   0.009  0.00  0.00    +0.228 C 
ATOM     14  O   UNL     1      -2.214  -0.102   0.023  0.00  0.00    -0.275 OA
ATOM     15  H   UNL     1       0.849  -0.478  -0.009  0.00  0.00    +0.155 HD
BRANCH  13  16
ATOM     16  C   UNL     1      -1.135  -2.201   0.001  0.00  0.00    +0.170 C 
BRANCH  16  17
ATOM     17  S   UNL     1      -2.837  -2.829   0.014  0.00  0.00    -0.116 S 
BRANCH  17  18
ATOM     18  C   UNL     1      -2.645  -4.580   0.003  0.00  0.00    +0.008 A 
ATOM     19  C   UNL     1      -1.374  -5.141  -0.018  0.00  0.00    +0.016 A 
ATOM     20  C   UNL     1      -1.227  -6.514  -0.022  0.00  0.00    +0.016 A 
ATOM     21  C   UNL     1      -2.344  -7.331  -0.016  0.00  0.00    +0.018 A 
ATOM     22  C   UNL     1      -3.611  -6.775  -0.000  0.00  0.00    +0.016 A 
ATOM     23  C   UNL     1      -3.765  -5.403   0.009  0.00  0.00    +0.016 A 
ATOM     24 BR   UNL     1      -2.139  -9.211  -0.029  0.00  0.00    -0.050 Br
ENDBRANCH  17  18
ENDBRANCH  16  17
ENDBRANCH  13  16
ENDBRANCH   4  12
BRANCH   3  25
ATOM     25  C   UNL     1       2.448   1.773  -0.011  0.00  0.00    +0.342 C 
ATOM     26  O   UNL     1       3.012   1.575  -1.070  0.00  0.00    -0.245 OA
BRANCH  25  27
ATOM     27  O   UNL     1       3.094   1.542   1.150  0.00  0.00    -0.459 OA
BRANCH  27  28
ATOM     28  C   UNL     1       4.460   1.057   1.059  0.00  0.00    +0.260 C 
BRANCH  28  29
ATOM     29  C   UNL     1       5.023   0.854   2.467  0.00  0.00    +0.200 C 
BRANCH  29  30
ATOM     30  O   UNL     1       4.297  -0.185   3.126  0.00  0.00    -0.380 OA
ATOM     31  C   UNL     1       4.746  -0.456   4.455  0.00  0.00    +0.194 C 
ENDBRANCH  29  30
ENDBRANCH  28  29
ENDBRANCH  27  28
ENDBRANCH  25  27
ENDBRANCH   3  25
TORSDOF 10
