REMARK  Name = ZINC20616918
REMARK  8 active torsions:
REMARK  status: ('A' for Active; 'I' for Inactive)
REMARK    1  A    between atoms: C_1  and  C_2
REMARK    2  A    between atoms: C_6  and  C_17
REMARK    3  A    between atoms: N_8  and  C_9
REMARK    4  A    between atoms: N_19  and  C_20
REMARK    5  A    between atoms: C_23  and  O_26
REMARK    6  A    between atoms: O_26  and  C_27
REMARK    7  A    between atoms: C_28  and  C_31
REMARK    8  A    between atoms: C_31  and  O_32
REMARK                            x       y       z     vdW  Elec       q    Type
REMARK                         _______ _______ _______ _____ _____    ______ ____
ROOT
ATOM      1  C   UNL     1       5.584   1.781   1.004  0.00  0.00    +0.069 C 
ATOM      2  C   UNL     1       5.423   3.172   1.560  0.00  0.00    +0.081 A 
ATOM      3  C   UNL     1       4.411   3.993   1.083  0.00  0.00    +0.159 A 
ATOM      4  C   UNL     1       4.279   5.288   1.621  0.00  0.00    +0.027 A 
ATOM      5  C   UNL     1       3.214   6.168   1.135  0.00  0.00    +0.030 A 
ATOM      6  C   UNL     1       2.226   5.598   0.363  0.00  0.00    +0.098 A 
ATOM      7  C   UNL     1       2.327   4.149   0.097  0.00  0.00    +0.212 A 
ATOM      8  N   UNL     1       1.254   3.432  -0.152  0.00  0.00    -0.325 N 
ATOM      9  O   UNL     1       3.558   3.576   0.123  0.00  0.00    -0.437 OA
ATOM     10  C   UNL     1       5.177   5.696   2.614  0.00  0.00    +0.007 A 
ATOM     11  C   UNL     1       6.152   4.810   3.023  0.00  0.00    +0.117 A 
ATOM     12  N   UNL     1       6.244   3.603   2.497  0.00  0.00    -0.256 NA
ATOM     13  H   UNL     1       0.275   3.923  -0.253  0.00  0.00    +0.169 HD
ENDROOT
BRANCH   8  14
ATOM     14  C   UNL     1       1.354   2.074  -0.286  0.00  0.00    +0.042 A 
ATOM     15  C   UNL     1       1.311   1.252   0.843  0.00  0.00    +0.027 A 
ATOM     16  C   UNL     1       1.412  -0.116   0.700  0.00  0.00    +0.022 A 
ATOM     17  C   UNL     1       1.557  -0.675  -0.559  0.00  0.00    +0.041 A 
ATOM     18  C   UNL     1       1.600   0.134  -1.682  0.00  0.00    +0.022 A 
ATOM     19  C   UNL     1       1.500   1.504  -1.553  0.00  0.00    +0.027 A 
ATOM     20 CL   UNL     1       1.685  -2.398  -0.729  0.00  0.00    -0.084 Cl
ENDBRANCH   8  14
BRANCH   6  21
ATOM     21  C   UNL     1       1.113   6.401  -0.175  0.00  0.00    +0.253 C 
ATOM     22  O   UNL     1       1.055   7.593   0.059  0.00  0.00    -0.270 OA
ATOM     23  N   UNL     1       0.161   5.815  -0.927  0.00  0.00    -0.281 N 
ATOM     24  H   UNL     1       0.167   4.724  -1.070  0.00  0.00    +0.155 HD
BRANCH  23  25
ATOM     25  C   UNL     1      -0.836   6.594  -1.527  0.00  0.00    +0.034 A 
ATOM     26  C   UNL     1      -2.114   6.077  -1.696  0.00  0.00    +0.027 A 
ATOM     27  C   UNL     1      -3.098   6.848  -2.284  0.00  0.00    +0.047 A 
ATOM     28  C   UNL     1      -2.807   8.134  -2.714  0.00  0.00    +0.120 A 
ATOM     29  C   UNL     1      -1.529   8.649  -2.550  0.00  0.00    +0.047 A 
ATOM     30  C   UNL     1      -0.546   7.882  -1.959  0.00  0.00    +0.027 A 
BRANCH  28  31
ATOM     31  O   UNL     1      -3.775   8.891  -3.296  0.00  0.00    -0.495 OA
ATOM     32  C   UNL     1      -5.068   8.297  -3.433  0.00  0.00    +0.277 C 
ENDBRANCH  28  31
ENDBRANCH  23  25
ENDBRANCH   6  21
BRANCH  10  33
ATOM     33  C   UNL     1       5.081   7.072   3.222  0.00  0.00    +0.193 C 
BRANCH  33  34
ATOM     34  O   UNL     1       6.108   7.232   4.202  0.00  0.00    -0.390 OA
ATOM     35  H   UNL     1       6.197   8.178   4.756  0.00  0.00    +0.210 HD
ENDBRANCH  33  34
ENDBRANCH  10  33
TORSDOF 6
