REMARK  Name = ZINC59393679
REMARK  18 active torsions:
REMARK  status: ('A' for Active; 'I' for Inactive)
REMARK    1  A    between atoms: C_1  and  C_2
REMARK    2  A    between atoms: C_2  and  C_3
REMARK    3  A    between atoms: C_3  and  C_4
REMARK    4  A    between atoms: C_4  and  N_5
REMARK    5  A    between atoms: N_5  and  C_6
REMARK    6  A    between atoms: C_7  and  N_18
REMARK    7  A    between atoms: N_8  and  C_15
REMARK    8  A    between atoms: C_15  and  C_16
REMARK    9  A    between atoms: C_16  and  C_17
REMARK   10  A    between atoms: C_19  and  C_21
REMARK   11  A    between atoms: C_21  and  N_22
REMARK   12  A    between atoms: N_22  and  C_23
REMARK   13  A    between atoms: N_22  and  C_24
REMARK   14  A    between atoms: C_24  and  C_25
REMARK   15  A    between atoms: C_25  and  C_26
REMARK   16  A    between atoms: C_26  and  O_27
REMARK   17  A    between atoms: O_27  and  C_28
REMARK   18  A    between atoms: C_33  and  C_34
REMARK                            x       y       z     vdW  Elec       q    Type
REMARK                         _______ _______ _______ _____ _____    ______ ____
ROOT
ATOM      1  N   UNL     1       1.420  -2.502  -2.465  0.00  0.00    -0.266 N 
ATOM      2  C   UNL     1       0.627  -2.825  -3.508  0.00  0.00    +0.203 C 
ATOM      3  O   UNL     1       1.109  -3.319  -4.506  0.00  0.00    -0.277 OA
ENDROOT
BRANCH   1   4
ATOM      4  C   UNL     1       2.820  -2.633  -2.576  0.00  0.00    +0.140 A 
ATOM      5  C   UNL     1       3.501  -3.555  -1.808  0.00  0.00    +0.127 A 
ATOM      6  N   UNL     1       4.867  -3.660  -1.938  0.00  0.00    -0.280 N 
ATOM      7  C   UNL     1       5.530  -2.873  -2.804  0.00  0.00    +0.331 A 
ATOM      8  O   UNL     1       6.737  -2.980  -2.904  0.00  0.00    -0.246 OA
ATOM      9  N   UNL     1       4.883  -1.969  -3.561  0.00  0.00    -0.273 N 
ATOM     10  H   UNL     1       5.384  -1.413  -4.178  0.00  0.00    +0.173 HD
ATOM     11  C   UNL     1       3.546  -1.830  -3.476  0.00  0.00    +0.277 A 
ATOM     12  O   UNL     1       2.968  -1.011  -4.170  0.00  0.00    -0.266 OA
BRANCH   5  13
ATOM     13  N   UNL     1       2.824  -4.359  -0.922  0.00  0.00    -0.343 N 
ATOM     14  H   UNL     1       1.872  -4.231  -0.782  0.00  0.00    +0.144 HD
ATOM     15  H   UNL     1       3.297  -5.053  -0.438  0.00  0.00    +0.144 HD
ENDBRANCH   5  13
BRANCH   6  16
ATOM     16  C   UNL     1       5.603  -4.635  -1.129  0.00  0.00    +0.128 C 
BRANCH  16  17
ATOM     17  C   UNL     1       5.684  -5.964  -1.881  0.00  0.00    +0.018 C 
ATOM     18  C   UNL     1       6.453  -6.982  -1.036  0.00  0.00    +0.005 C 
ENDBRANCH  16  17
ENDBRANCH   6  16
ENDBRANCH   1   4
BRANCH   1  19
ATOM     19  C   UNL     1       0.826  -2.014  -1.217  0.00  0.00    +0.114 C 
BRANCH  19  20
ATOM     20  C   UNL     1       0.816  -0.484  -1.221  0.00  0.00    +0.019 C 
BRANCH  20  22
ATOM     21  C   UNL     1       0.186   1.555   0.078  0.00  0.00    +0.004 C 
ATOM     22  C   UNL     1       0.196   0.025   0.082  0.00  0.00    -0.002 C 
ENDBRANCH  20  22
ENDBRANCH  19  20
ENDBRANCH   1  19
BRANCH   2  23
ATOM     23  C   UNL     1      -0.857  -2.572  -3.434  0.00  0.00    +0.019 C 
BRANCH  23  24
ATOM     24  N   UNL     1      -1.491  -3.007  -4.685  0.00  0.00    +0.384 N 
ATOM     25  C   UNL     1      -1.351  -4.463  -4.825  0.00  0.00    -0.096 C 
ATOM     26  H   UNL     1      -1.044  -2.550  -5.466  0.00  0.00    -0.082 HD
BRANCH  24  27
ATOM     27  C   UNL     1      -2.916  -2.652  -4.661  0.00  0.00    -0.075 C 
BRANCH  27  28
ATOM     28  C   UNL     1      -3.549  -2.992  -6.012  0.00  0.00    +0.022 C 
BRANCH  28  29
ATOM     29  C   UNL     1      -5.034  -2.622  -5.987  0.00  0.00    +0.227 C 
BRANCH  29  30
ATOM     30  O   UNL     1      -5.625  -2.939  -7.249  0.00  0.00    -0.492 OA
BRANCH  30  31
ATOM     31  C   UNL     1      -6.949  -2.671  -7.394  0.00  0.00    +0.123 A 
ATOM     32  C   UNL     1      -7.664  -2.108  -6.346  0.00  0.00    +0.046 A 
ATOM     33  C   UNL     1      -9.009  -1.835  -6.497  0.00  0.00    +0.004 A 
ATOM     34  C   UNL     1      -9.645  -2.123  -7.691  0.00  0.00    +0.000 A 
ATOM     35  C   UNL     1      -8.935  -2.684  -8.737  0.00  0.00    +0.007 A 
ATOM     36  C   UNL     1      -7.588  -2.953  -8.593  0.00  0.00    -0.009 A 
ATOM     37  C   UNL     1      -6.814  -3.559  -9.735  0.00  0.00    +0.047 C 
ENDBRANCH  30  31
ENDBRANCH  29  30
ENDBRANCH  28  29
ENDBRANCH  27  28
ENDBRANCH  24  27
ENDBRANCH  23  24
ENDBRANCH   2  23
TORSDOF 14
