REMARK  Name = ZINC09234862
REMARK  19 active torsions:
REMARK  status: ('A' for Active; 'I' for Inactive)
REMARK    1  A    between atoms: C_1  and  C_2
REMARK    2  A    between atoms: C_2  and  C_3
REMARK    3  A    between atoms: C_3  and  O_4
REMARK    4  A    between atoms: O_4  and  C_5
REMARK    5  A    between atoms: C_8  and  C_13
REMARK    6  A    between atoms: C_10  and  O_11
REMARK    7  A    between atoms: O_11  and  C_12
REMARK    8  A    between atoms: C_16  and  C_17
REMARK    9  A    between atoms: C_16  and  O_26
REMARK   10  A    between atoms: C_20  and  O_23
REMARK   11  A    between atoms: O_23  and  C_24
REMARK   12  A    between atoms: C_24  and  C_25
REMARK   13  A    between atoms: N_31  and  C_32
REMARK   14  A    between atoms: C_32  and  C_33
REMARK   15  A    between atoms: C_33  and  N_75
REMARK   16  A    between atoms: C_34  and  C_35
REMARK   17  A    between atoms: C_34  and  N_75
REMARK   18  A    between atoms: C_36  and  C_37
REMARK   19  A    between atoms: C_36  and  N_75
REMARK                            x       y       z     vdW  Elec       q    Type
REMARK                         _______ _______ _______ _____ _____    ______ ____
ROOT
ATOM      1  C   UNL     1      -0.276  -0.235  -2.306  0.00  0.00    +0.144 C 
ATOM      2  C   UNL     1       0.725  -0.861  -3.249  0.00  0.00    +0.071 C 
ATOM      3  C   UNL     1       0.620  -0.960  -4.623  0.00  0.00    +0.133 C 
ATOM      4  C   UNL     1       1.778  -1.327  -2.449  0.00  0.00    +0.249 C 
ATOM      5  O   UNL     1       2.778  -1.898  -2.845  0.00  0.00    -0.282 OA
ATOM      6  C   UNL     1       1.463  -1.001  -1.032  0.00  0.00    +0.288 C 
ATOM      7  O   UNL     1       2.172  -1.267  -0.082  0.00  0.00    -0.266 OA
ATOM      8  N   UNL     1       0.280  -0.369  -0.956  0.00  0.00    -0.285 N 
ENDROOT
BRANCH   1  12
ATOM      9  C   UNL     1      -4.019  -2.288  -2.553  0.00  0.00    +0.162 A 
ATOM     10  C   UNL     1      -2.965  -2.846  -1.847  0.00  0.00    +0.050 A 
ATOM     11  C   UNL     1      -1.756  -2.180  -1.769  0.00  0.00    +0.009 A 
ATOM     12  C   UNL     1      -1.596  -0.957  -2.394  0.00  0.00    -0.019 A 
ATOM     13  C   UNL     1      -2.645  -0.393  -3.095  0.00  0.00    +0.055 A 
ATOM     14  C   UNL     1      -3.857  -1.057  -3.182  0.00  0.00    +0.162 A 
BRANCH  14  15
ATOM     15  O   UNL     1      -4.889  -0.506  -3.876  0.00  0.00    -0.491 OA
ATOM     16  C   UNL     1      -4.651   0.759  -4.496  0.00  0.00    +0.277 C 
ENDBRANCH  14  15
BRANCH   9  17
ATOM     17  O   UNL     1      -5.210  -2.941  -2.630  0.00  0.00    -0.488 OA
BRANCH  17  18
ATOM     18  C   UNL     1      -5.303  -4.200  -1.959  0.00  0.00    +0.229 C 
BRANCH  18  20
ATOM     19  C   UNL     1      -6.806  -6.127  -1.438  0.00  0.00    +0.007 C 
ATOM     20  C   UNL     1      -6.705  -4.779  -2.156  0.00  0.00    +0.038 C 
ENDBRANCH  18  20
ENDBRANCH  17  18
ENDBRANCH   9  17
ENDBRANCH   1  12
BRANCH   3  21
ATOM     21  C   UNL     1       1.751  -1.474  -5.412  0.00  0.00    +0.017 A 
ATOM     22  C   UNL     1       3.016  -0.886  -5.292  0.00  0.00    +0.015 A 
ATOM     23  C   UNL     1       4.072  -1.375  -6.027  0.00  0.00    +0.046 A 
ATOM     24  C   UNL     1       3.881  -2.442  -6.897  0.00  0.00    +0.121 A 
ATOM     25  C   UNL     1       2.624  -3.026  -7.025  0.00  0.00    +0.046 A 
ATOM     26  C   UNL     1       1.564  -2.549  -6.290  0.00  0.00    +0.015 A 
BRANCH  24  27
ATOM     27  O   UNL     1       4.923  -2.917  -7.625  0.00  0.00    -0.492 OA
BRANCH  27  28
ATOM     28  C   UNL     1       6.186  -2.272  -7.446  0.00  0.00    +0.225 C 
ATOM     29  C   UNL     1       7.231  -2.939  -8.342  0.00  0.00    +0.048 C 
ENDBRANCH  27  28
ENDBRANCH  24  27
ENDBRANCH   3  21
BRANCH   3  30
ATOM     30  O   UNL     1      -0.519  -0.585  -5.243  0.00  0.00    -0.506 OA
ATOM     31  H   UNL     1      -0.424  -0.721  -6.229  0.00  0.00    +0.292 HD
ENDBRANCH   3  30
BRANCH   8  32
ATOM     32  C   UNL     1      -0.355   0.104   0.277  0.00  0.00    +0.090 C 
BRANCH  32  33
ATOM     33  C   UNL     1       0.093   1.539   0.563  0.00  0.00    -0.060 C 
BRANCH  33  34
ATOM     34  N   UNL     1      -0.664   2.049   1.725  0.00  0.00    +0.380 N 
ATOM     35  H   UNL     1      -1.645   1.756   1.639  0.00  0.00    -0.082 HD
BRANCH  34  36
ATOM     36  C   UNL     1      -0.105   1.493   2.975  0.00  0.00    -0.082 C 
ATOM     37  C   UNL     1      -1.036   1.853   4.135  0.00  0.00    -0.017 C 
ENDBRANCH  34  36
BRANCH  34  38
ATOM     38  C   UNL     1      -0.606   3.526   1.758  0.00  0.00    -0.082 C 
ATOM     39  C   UNL     1      -1.582   4.078   0.718  0.00  0.00    -0.017 C 
ENDBRANCH  34  38
ENDBRANCH  33  34
ENDBRANCH  32  33
ENDBRANCH   8  32
TORSDOF 14
