REMARK  Name = ZINC39696126
REMARK  10 active torsions:
REMARK  status: ('A' for Active; 'I' for Inactive)
REMARK    1  A    between atoms: C_1  and  C_2
REMARK    2  A    between atoms: C_2  and  C_3
REMARK    3  A    between atoms: C_6  and  C_9
REMARK    4  A    between atoms: C_9  and  C_11
REMARK    5  A    between atoms: C_9  and  N_12
REMARK    6  A    between atoms: C_13  and  C_15
REMARK    7  A    between atoms: C_26  and  C_28
REMARK    8  A    between atoms: C_32  and  N_34
REMARK    9  A    between atoms: N_34  and  C_35
REMARK   10  A    between atoms: N_34  and  C_36
REMARK                            x       y       z     vdW  Elec       q    Type
REMARK                         _______ _______ _______ _____ _____    ______ ____
ROOT
ATOM      1  C   UNL     1       2.051  -4.409   7.188  0.00  0.00    +0.100 C 
ATOM      2  C   UNL     1       0.901  -4.009   8.140  0.00  0.00    +0.121 C 
ATOM      3  N   UNL     1       0.904  -5.055   9.190  0.00  0.00    -0.296 N 
ATOM      4  C   UNL     1       2.341  -5.320   9.442  0.00  0.00    +0.115 C 
ATOM      5  C   UNL     1       2.994  -5.269   8.046  0.00  0.00    -0.004 C 
ATOM      6  C   UNL     1       3.105  -6.674   7.464  0.00  0.00    -0.010 C 
ATOM      7  C   UNL     1       4.091  -7.492   8.302  0.00  0.00    -0.082 C 
ATOM      8  N   UNL     1       5.403  -6.834   8.298  0.00  0.00    +0.379 N 
ATOM      9  C   UNL     1       5.306  -5.520   8.944  0.00  0.00    -0.082 C 
ATOM     10  C   UNL     1       4.371  -4.618   8.133  0.00  0.00    -0.010 C 
ATOM     11  C   UNL     1      -0.159  -5.634   9.782  0.00  0.00    +0.247 C 
ATOM     12  O   UNL     1      -1.282  -5.403   9.376  0.00  0.00    -0.270 OA
ATOM     13  H   UNL     1       6.066  -7.406   8.799  0.00  0.00    -0.086 HD
ATOM     14  H   UNL     1       5.716  -6.717   7.346  0.00  0.00    -0.086 HD
ENDROOT
BRANCH  11  15
ATOM     15  C   UNL     1       0.039  -6.549  10.926  0.00  0.00    +0.039 A 
ATOM     16  C   UNL     1       1.224  -6.503  11.662  0.00  0.00    +0.013 A 
ATOM     17  C   UNL     1       1.408  -7.359  12.729  0.00  0.00    +0.003 A 
ATOM     18  C   UNL     1       0.421  -8.264  13.073  0.00  0.00    +0.023 A 
ATOM     19  C   UNL     1      -0.763  -8.318  12.347  0.00  0.00    +0.030 A 
ATOM     20  C   UNL     1      -0.959  -7.458  11.277  0.00  0.00    +0.036 A 
BRANCH  19  21
ATOM     21  N   UNL     1      -1.757  -9.234  12.698  0.00  0.00    -0.336 N 
ATOM     22  C   UNL     1      -1.499 -10.232  13.738  0.00  0.00    +0.129 C 
ATOM     23  C   UNL     1      -3.058  -9.197  12.026  0.00  0.00    +0.129 C 
ENDBRANCH  19  21
ENDBRANCH  11  15
BRANCH   1  25
ATOM     24  N   UNL     1       3.476  -3.235   5.542  0.00  0.00    -0.308 N 
ATOM     25  C   UNL     1       2.769  -3.182   6.688  0.00  0.00    +0.219 C 
ATOM     26  O   UNL     1       2.710  -2.147   7.317  0.00  0.00    -0.275 OA
ATOM     27  H   UNL     1       3.523  -4.062   5.039  0.00  0.00    +0.149 HD
BRANCH  24  28
ATOM     28  C   UNL     1       4.174  -2.042   5.056  0.00  0.00    +0.100 C 
ATOM     29  C   UNL     1       3.205  -1.178   4.247  0.00  0.00    +0.033 C 
BRANCH  28  33
ATOM     30  C   UNL     1       7.447  -3.219   2.577  0.00  0.00    -0.048 A 
ATOM     31  C   UNL     1       7.592  -2.165   3.459  0.00  0.00    +0.004 A 
ATOM     32  C   UNL     1       6.533  -1.784   4.261  0.00  0.00    +0.006 A 
ATOM     33  C   UNL     1       5.328  -2.457   4.181  0.00  0.00    -0.027 A 
ATOM     34  C   UNL     1       5.182  -3.510   3.298  0.00  0.00    +0.006 A 
ATOM     35  C   UNL     1       6.240  -3.888   2.492  0.00  0.00    +0.004 A 
BRANCH  30  37
ATOM     36  C   UNL     1       8.552  -2.854   0.387  0.00  0.00    +0.009 C 
ATOM     37  C   UNL     1       8.601  -3.635   1.702  0.00  0.00    +0.032 C 
ENDBRANCH  30  37
ENDBRANCH  28  33
ENDBRANCH  24  28
ENDBRANCH   1  25
TORSDOF 6
