REMARK  Name = ZINC39217773
REMARK  6 active torsions:
REMARK  status: ('A' for Active; 'I' for Inactive)
REMARK    1  A    between atoms: C_1  and  C_2
REMARK    2  A    between atoms: C_7  and  C_8
REMARK    3  A    between atoms: N_10  and  N_11
REMARK    4  A    between atoms: C_12  and  C_14
REMARK    5  A    between atoms: C_14  and  S_15
REMARK    6  A    between atoms: S_15  and  C_16
REMARK                            x       y       z     vdW  Elec       q    Type
REMARK                         _______ _______ _______ _____ _____    ______ ____
ROOT
ATOM      1  C   UNL     1       0.910   0.101   7.288  0.00  0.00    +0.174 C 
ENDROOT
BRANCH   1   3
ATOM      2  N   UNL     1       0.572   0.035   4.839  0.00  0.00    -0.233 N 
ATOM      3  C   UNL     1       0.795  -0.642   5.982  0.00  0.00    +0.239 C 
ATOM      4  O   UNL     1       0.902  -1.850   5.961  0.00  0.00    -0.273 OA
ATOM      5  H   UNL     1       0.486   1.001   4.856  0.00  0.00    +0.173 HD
BRANCH   2   8
ATOM      6  C   UNL     1       0.242   0.021   2.481  0.00  0.00    +0.260 C 
ATOM      7  O   UNL     1       0.134   1.232   2.503  0.00  0.00    -0.269 OA
ATOM      8  N   UNL     1       0.465  -0.656   3.625  0.00  0.00    -0.230 N 
ATOM      9  H   UNL     1       0.550  -1.622   3.607  0.00  0.00    +0.173 HD
BRANCH   6  16
ATOM     10  C   UNL     1      -0.512   1.452   0.082  0.00  0.00    +0.044 C 
ATOM     11  C   UNL     1      -0.235  -0.028   0.036  0.00  0.00    -0.038 A 
ATOM     12  C   UNL     1      -0.334  -0.714  -1.157  0.00  0.00    +0.004 A 
ATOM     13  C   UNL     1      -0.080  -2.073  -1.200  0.00  0.00    +0.000 A 
ATOM     14  C   UNL     1       0.275  -2.754  -0.049  0.00  0.00    +0.001 A 
ATOM     15  C   UNL     1       0.378  -2.080   1.150  0.00  0.00    +0.013 A 
ATOM     16  C   UNL     1       0.128  -0.708   1.200  0.00  0.00    +0.041 A 
ENDBRANCH   6  16
ENDBRANCH   2   8
ENDBRANCH   1   3
BRANCH   1  17
ATOM     17  S   UNL     1       1.208  -1.080   8.632  0.00  0.00    -0.075 S 
BRANCH  17  18
ATOM     18  C   UNL     1       1.318  -0.070  10.071  0.00  0.00    +0.208 C 
ATOM     19  N   UNL     1       1.174   1.226   9.929  0.00  0.00    -0.227 NA
ATOM     20  C   UNL     1       1.344   2.063  11.114  0.00  0.00    +0.252 C 
ATOM     21  C   UNL     1       0.955   1.202  12.307  0.00  0.00    +0.117 C 
ATOM     22  C   UNL     1       0.095   1.961  13.040  0.00  0.00    +0.025 A 
ATOM     23  C   UNL     1      -0.518   1.755  14.301  0.00  0.00    +0.012 A 
ATOM     24  C   UNL     1      -1.357   2.724  14.755  0.00  0.00    +0.001 A 
ATOM     25  C   UNL     1      -1.649   3.900  14.058  0.00  0.00    +0.002 A 
ATOM     26  C   UNL     1      -1.115   4.206  12.846  0.00  0.00    +0.026 A 
ATOM     27  C   UNL     1      -0.186   3.216  12.277  0.00  0.00    +0.046 A 
ATOM     28  N   UNL     1       0.484   3.237  11.165  0.00  0.00    -0.358 N 
ATOM     29  N   UNL     1       1.341  -0.075  12.395  0.00  0.00    -0.147 NA
ATOM     30  N   UNL     1       1.541  -0.677  11.263  0.00  0.00    -0.122 NA
ATOM     31  H   UNL     1       0.422   3.922  10.481  0.00  0.00    +0.162 HD
ENDBRANCH  17  18
ENDBRANCH   1  17
TORSDOF 5
