REMARK  Name = ZINC13121837
REMARK  8 active torsions:
REMARK  status: ('A' for Active; 'I' for Inactive)
REMARK    1  A    between atoms: C_3  and  S_26
REMARK    2  A    between atoms: C_6  and  C_7
REMARK    3  A    between atoms: C_7  and  C_8
REMARK    4  A    between atoms: C_8  and  N_9
REMARK    5  A    between atoms: C_10  and  C_12
REMARK    6  A    between atoms: C_14  and  C_18
REMARK    7  A    between atoms: C_23  and  O_24
REMARK    8  A    between atoms: S_26  and  N_29
REMARK                            x       y       z     vdW  Elec       q    Type
REMARK                         _______ _______ _______ _____ _____    ______ ____
ROOT
ATOM      1  N   UNL     1      -3.004  -1.778  -1.420  0.00  0.00    -0.310 N 
ATOM      2  C   UNL     1      -3.594  -2.117  -2.584  0.00  0.00    +0.262 C 
ATOM      3  O   UNL     1      -3.082  -1.800  -3.640  0.00  0.00    -0.269 OA
ATOM      4  H   UNL     1      -3.412  -2.031  -0.578  0.00  0.00    +0.149 HD
ENDROOT
BRANCH   2   5
ATOM      5  C   UNL     1      -4.859  -2.870  -2.575  0.00  0.00    +0.121 A 
ATOM      6  C   UNL     1      -5.577  -3.292  -3.677  0.00  0.00    +0.062 A 
ATOM      7  C   UNL     1      -6.699  -3.963  -3.155  0.00  0.00    +0.097 A 
ATOM      8  N   UNL     1      -6.612  -3.918  -1.842  0.00  0.00    -0.173 NA
ATOM      9  N   UNL     1      -5.551  -3.295  -1.476  0.00  0.00    -0.272 N 
ATOM     10  H   UNL     1      -5.281  -3.145  -0.556  0.00  0.00    +0.189 HD
BRANCH   7  11
ATOM     11  C   UNL     1      -7.782  -4.603  -3.941  0.00  0.00    +0.045 A 
ATOM     12  C   UNL     1      -7.744  -4.580  -5.333  0.00  0.00    +0.033 A 
ATOM     13  C   UNL     1      -8.755  -5.178  -6.060  0.00  0.00    +0.042 A 
ATOM     14  C   UNL     1      -9.806  -5.801  -5.409  0.00  0.00    +0.023 A 
ATOM     15  C   UNL     1      -9.853  -5.830  -4.028  0.00  0.00    +0.047 A 
ATOM     16  C   UNL     1      -8.842  -5.238  -3.287  0.00  0.00    +0.126 A 
ATOM     17 CL   UNL     1      -8.707  -5.147  -7.795  0.00  0.00    -0.084 Cl
BRANCH  16  18
ATOM     18  O   UNL     1      -8.884  -5.271  -1.929  0.00  0.00    -0.506 OA
ATOM     19  H   UNL     1      -9.348  -4.521  -1.532  0.00  0.00    +0.292 HD
ENDBRANCH  16  18
ENDBRANCH   7  11
ENDBRANCH   2   5
BRANCH   1  20
ATOM     20  C   UNL     1      -1.745  -1.028  -1.429  0.00  0.00    +0.109 C 
BRANCH  20  21
ATOM     21  C   UNL     1      -1.293  -0.775   0.011  0.00  0.00    +0.054 C 
BRANCH  21  27
ATOM     22  C   UNL     1      -0.017   1.378   0.010  0.00  0.00    +0.005 A 
ATOM     23  C   UNL     1       1.171   2.086   0.002  0.00  0.00    +0.029 A 
ATOM     24  C   UNL     1       2.377   1.411  -0.013  0.00  0.00    +0.105 A 
ATOM     25  C   UNL     1       2.396   0.029  -0.020  0.00  0.00    +0.029 A 
ATOM     26  C   UNL     1       1.208  -0.679  -0.012  0.00  0.00    +0.005 A 
ATOM     27  C   UNL     1       0.002  -0.004   0.002  0.00  0.00    -0.046 A 
BRANCH  24  28
ATOM     28  S   UNL     1       3.891   2.312  -0.024  0.00  0.00    +0.056 S 
ATOM     29  O   UNL     1       4.872   1.453  -0.588  0.00  0.00    -0.153 OA
ATOM     30  O   UNL     1       3.597   3.593  -0.566  0.00  0.00    -0.153 OA
BRANCH  28  31
ATOM     31  N   UNL     1       4.327   2.556   1.555  0.00  0.00    -0.204 NA
ATOM     32  H   UNL     1       5.265   2.623   1.794  0.00  0.00    +0.144 HD
ATOM     33  H   UNL     1       3.645   2.631   2.241  0.00  0.00    +0.144 HD
ENDBRANCH  28  31
ENDBRANCH  24  28
ENDBRANCH  21  27
ENDBRANCH  20  21
ENDBRANCH   1  20
TORSDOF 8
