REMARK  Name = ZINC06135456
REMARK  17 active torsions:
REMARK  status: ('A' for Active; 'I' for Inactive)
REMARK    1  A    between atoms: C_1  and  C_2
REMARK    2  A    between atoms: C_2  and  C_3
REMARK    3  A    between atoms: C_8  and  N_9
REMARK    4  A    between atoms: N_9  and  C_10
REMARK    5  A    between atoms: C_10  and  N_12
REMARK    6  A    between atoms: N_12  and  C_13
REMARK    7  A    between atoms: N_12  and  C_20
REMARK    8  A    between atoms: C_13  and  C_14
REMARK    9  A    between atoms: C_14  and  C_15
REMARK   10  A    between atoms: C_15  and  N_72
REMARK   11  A    between atoms: C_16  and  C_17
REMARK   12  A    between atoms: C_16  and  N_72
REMARK   13  A    between atoms: C_18  and  C_19
REMARK   14  A    between atoms: C_18  and  N_72
REMARK   15  A    between atoms: C_20  and  C_21
REMARK   16  A    between atoms: C_24  and  C_34
REMARK   17  A    between atoms: C_26  and  C_33
REMARK                            x       y       z     vdW  Elec       q    Type
REMARK                         _______ _______ _______ _____ _____    ______ ____
ROOT
ATOM      1  N   UNL     1       5.156   4.513  -1.281  0.00  0.00    -0.308 N 
ENDROOT
BRANCH   1   2
ATOM      2  C   UNL     1       4.706   5.744  -1.597  0.00  0.00    +0.137 C 
ATOM      3  S   UNL     1       4.902   6.344  -3.188  0.00  0.00    -0.018 S 
BRANCH   2   4
ATOM      4  N   UNL     1       4.102   6.502  -0.660  0.00  0.00    -0.297 N 
ATOM      5  H   UNL     1       4.599   7.202  -0.209  0.00  0.00    +0.154 HD
BRANCH   4  11
ATOM      6  C   UNL     1       2.103   7.130   0.540  0.00  0.00    -0.026 A 
ATOM      7  C   UNL     1       0.777   6.907   0.856  0.00  0.00    +0.005 A 
ATOM      8  C   UNL     1       0.103   5.836   0.298  0.00  0.00    +0.000 A 
ATOM      9  C   UNL     1       0.754   4.986  -0.578  0.00  0.00    +0.002 A 
ATOM     10  C   UNL     1       2.078   5.207  -0.901  0.00  0.00    +0.023 A 
ATOM     11  C   UNL     1       2.760   6.278  -0.338  0.00  0.00    +0.036 A 
BRANCH   6  13
ATOM     12  C   UNL     1       2.787   9.487   0.189  0.00  0.00    +0.009 C 
ATOM     13  C   UNL     1       2.837   8.297   1.149  0.00  0.00    +0.033 C 
ENDBRANCH   6  13
ENDBRANCH   4  11
ENDBRANCH   2   4
ENDBRANCH   1   2
BRANCH   1  14
ATOM     14  C   UNL     1       5.906   3.732  -2.268  0.00  0.00    +0.105 C 
BRANCH  14  15
ATOM     15  C   UNL     1       4.934   2.886  -3.094  0.00  0.00    +0.000 C 
BRANCH  15  16
ATOM     16  C   UNL     1       5.718   2.070  -4.124  0.00  0.00    -0.077 C 
BRANCH  16  17
ATOM     17  N   UNL     1       4.769   1.243  -4.899  0.00  0.00    +0.379 N 
ATOM     18  H   UNL     1       4.176   0.717  -4.246  0.00  0.00    -0.082 HD
BRANCH  17  19
ATOM     19  C   UNL     1       3.912   2.108  -5.736  0.00  0.00    -0.082 C 
ATOM     20  C   UNL     1       4.751   2.843  -6.783  0.00  0.00    -0.017 C 
ENDBRANCH  17  19
BRANCH  17  21
ATOM     21  C   UNL     1       5.509   0.289  -5.751  0.00  0.00    -0.082 C 
ATOM     22  C   UNL     1       4.508  -0.653  -6.423  0.00  0.00    -0.017 C 
ENDBRANCH  17  21
ENDBRANCH  16  17
ENDBRANCH  15  16
ENDBRANCH  14  15
ENDBRANCH   1  14
BRANCH   1  23
ATOM     23  C   UNL     1       4.894   3.956   0.049  0.00  0.00    +0.147 C 
BRANCH  23  24
ATOM     24  C   UNL     1       6.007   4.350   0.985  0.00  0.00    +0.035 A 
ATOM     25  C   UNL     1       5.867   5.439   1.781  0.00  0.00    +0.020 A 
ATOM     26  C   UNL     1       6.967   5.794   2.680  0.00  0.00    +0.002 A 
ATOM     27  C   UNL     1       6.881   6.907   3.523  0.00  0.00    -0.041 A 
ATOM     28  C   UNL     1       7.925   7.212   4.350  0.00  0.00    +0.007 A 
ATOM     29  C   UNL     1       9.071   6.428   4.360  0.00  0.00    -0.048 A 
ATOM     30  C   UNL     1       9.178   5.327   3.537  0.00  0.00    +0.029 A 
ATOM     31  C   UNL     1       8.127   4.997   2.687  0.00  0.00    +0.050 A 
ATOM     32  N   UNL     1       8.207   3.902   1.853  0.00  0.00    -0.322 N 
ATOM     33  H   UNL     1       9.031   3.336   1.860  0.00  0.00    +0.169 HD
ATOM     34  C   UNL     1       7.191   3.583   1.031  0.00  0.00    +0.254 A 
ATOM     35  O   UNL     1       7.296   2.608   0.308  0.00  0.00    -0.268 OA
ATOM     36  C   UNL     1      10.210   6.784   5.280  0.00  0.00    +0.044 C 
ATOM     37  C   UNL     1       5.642   7.764   3.521  0.00  0.00    +0.044 C 
ENDBRANCH  23  24
ENDBRANCH   1  23
TORSDOF 12
