REMARK  Name = ZINC01868530
REMARK  11 active torsions:
REMARK  status: ('A' for Active; 'I' for Inactive)
REMARK    1  A    between atoms: C_1  and  C_2
REMARK    2  A    between atoms: C_7  and  N_8
REMARK    3  A    between atoms: C_9  and  C_11
REMARK    4  A    between atoms: C_13  and  C_35
REMARK    5  A    between atoms: C_15  and  C_33
REMARK    6  A    between atoms: C_16  and  S_21
REMARK    7  A    between atoms: C_18  and  C_19
REMARK    8  A    between atoms: C_18  and  O_20
REMARK    9  A    between atoms: S_21  and  C_22
REMARK   10  A    between atoms: C_22  and  C_23
REMARK   11  A    between atoms: N_25  and  C_26
REMARK                            x       y       z     vdW  Elec       q    Type
REMARK                         _______ _______ _______ _____ _____    ______ ____
ROOT
ATOM      1  C   UNL     1      -0.138   0.038   4.884  0.00  0.00    +0.138 C 
ATOM      2  C   UNL     1      -0.246  -0.947   6.050  0.00  0.00    +0.085 C 
ATOM      3  C   UNL     1      -0.119  -0.219   7.358  0.00  0.00    +0.065 C 
ATOM      4  C   UNL     1       0.445   1.014   7.451  0.00  0.00    +0.078 C 
ATOM      5  N   UNL     1       0.923   1.668   6.340  0.00  0.00    -0.310 N 
ATOM      6  C   UNL     1       1.105   0.915   5.090  0.00  0.00    +0.140 C 
ATOM      7  C   UNL     1       2.349   0.032   5.198  0.00  0.00    +0.064 C 
ATOM      8  H   UNL     1       1.137   2.613   6.379  0.00  0.00    +0.149 HD
ENDROOT
BRANCH   2   9
ATOM      9  C   UNL     1      -1.584  -1.640   5.995  0.00  0.00    -0.001 A 
ATOM     10  C   UNL     1      -1.856  -2.963   5.880  0.00  0.00    +0.012 A 
ATOM     11  C   UNL     1      -3.175  -3.376   5.851  0.00  0.00    +0.008 A 
ATOM     12  C   UNL     1      -4.157  -2.446   5.937  0.00  0.00    +0.045 A 
ATOM     13  S   UNL     1      -3.221  -0.932   6.072  0.00  0.00    -0.101 S 
ENDBRANCH   2   9
BRANCH   1  15
ATOM     14  N   UNL     1       0.107  -0.055   2.424  0.00  0.00    -0.285 N 
ATOM     15  C   UNL     1      -0.010  -0.723   3.589  0.00  0.00    +0.226 C 
ATOM     16  O   UNL     1      -0.011  -1.935   3.596  0.00  0.00    -0.275 OA
ATOM     17  H   UNL     1       0.174   0.912   2.424  0.00  0.00    +0.155 HD
BRANCH  14  24
ATOM     18  C   UNL     1      -1.119   1.139   0.151  0.00  0.00    +0.045 C 
ATOM     19  C   UNL     1      -0.456  -0.212   0.081  0.00  0.00    -0.029 A 
ATOM     20  C   UNL     1      -0.425  -0.906  -1.113  0.00  0.00    +0.005 A 
ATOM     21  C   UNL     1       0.183  -2.146  -1.179  0.00  0.00    +0.000 A 
ATOM     22  C   UNL     1       0.764  -2.695  -0.050  0.00  0.00    +0.002 A 
ATOM     23  C   UNL     1       0.737  -2.006   1.147  0.00  0.00    +0.023 A 
ATOM     24  C   UNL     1       0.131  -0.758   1.214  0.00  0.00    +0.036 A 
ENDBRANCH  14  24
ENDBRANCH   1  15
BRANCH   6  25
ATOM     25  O   UNL     1       1.246   1.820   3.994  0.00  0.00    -0.371 OA
ATOM     26  H   UNL     1       2.013   2.405   4.062  0.00  0.00    +0.212 HD
ENDBRANCH   6  25
BRANCH   3  27
ATOM     27  C   UNL     1      -0.611  -0.845   8.548  0.00  0.00    +0.098 C 
ATOM     28  N   UNL     1      -1.001  -1.342   9.492  0.00  0.00    -0.191 NA
ENDBRANCH   3  27
BRANCH   4  29
ATOM     29  S   UNL     1       0.565   1.790   9.027  0.00  0.00    -0.100 S 
BRANCH  29  30
ATOM     30  C   UNL     1       1.366   3.379   8.674  0.00  0.00    +0.171 C 
BRANCH  30  31
ATOM     31  C   UNL     1       1.532   4.154   9.956  0.00  0.00    +0.227 C 
ATOM     32  O   UNL     1       1.147   3.682  11.004  0.00  0.00    -0.275 OA
ATOM     33  N   UNL     1       2.107   5.373   9.937  0.00  0.00    -0.285 N 
ATOM     34  H   UNL     1       2.337   5.787   9.090  0.00  0.00    +0.155 HD
BRANCH  33  35
ATOM     35  C   UNL     1       2.372   6.041  11.138  0.00  0.00    +0.033 A 
ATOM     36  C   UNL     1       2.436   7.428  11.163  0.00  0.00    +0.024 A 
ATOM     37  C   UNL     1       2.697   8.084  12.350  0.00  0.00    +0.017 A 
ATOM     38  C   UNL     1       2.895   7.361  13.513  0.00  0.00    +0.018 A 
ATOM     39  C   UNL     1       2.831   5.979  13.490  0.00  0.00    +0.017 A 
ATOM     40  C   UNL     1       2.565   5.318  12.307  0.00  0.00    +0.024 A 
ATOM     41 BR   UNL     1       3.252   8.263  15.136  0.00  0.00    -0.050 Br
ENDBRANCH  33  35
ENDBRANCH  30  31
ENDBRANCH  29  30
ENDBRANCH   4  29
TORSDOF 9
