REMARK  Name = ZINC44713647
REMARK  11 active torsions:
REMARK  status: ('A' for Active; 'I' for Inactive)
REMARK    1  A    between atoms: C_1  and  C_2
REMARK    2  A    between atoms: C_3  and  C_9
REMARK    3  A    between atoms: C_4  and  C_8
REMARK    4  A    between atoms: C_9  and  C_11
REMARK    5  A    between atoms: C_9  and  N_12
REMARK    6  A    between atoms: C_13  and  C_15
REMARK    7  A    between atoms: C_26  and  C_28
REMARK    8  A    between atoms: C_30  and  O_36
REMARK    9  A    between atoms: C_32  and  O_34
REMARK   10  A    between atoms: O_34  and  C_35
REMARK   11  A    between atoms: O_36  and  C_37
REMARK                            x       y       z     vdW  Elec       q    Type
REMARK                         _______ _______ _______ _____ _____    ______ ____
ROOT
ATOM      1  C   UNL     1      -2.850  -1.814  -5.751  0.00  0.00    +0.100 C 
ATOM      2  C   UNL     1      -4.019  -1.952  -4.750  0.00  0.00    +0.121 C 
ATOM      3  N   UNL     1      -4.934  -0.836  -5.086  0.00  0.00    -0.296 N 
ATOM      4  C   UNL     1      -4.911  -0.773  -6.567  0.00  0.00    +0.115 C 
ATOM      5  C   UNL     1      -3.440  -1.043  -6.944  0.00  0.00    -0.004 C 
ATOM      6  C   UNL     1      -3.366  -1.890  -8.210  0.00  0.00    -0.010 C 
ATOM      7  C   UNL     1      -3.905  -1.081  -9.393  0.00  0.00    -0.082 C 
ATOM      8  N   UNL     1      -3.111   0.144  -9.553  0.00  0.00    +0.379 N 
ATOM      9  C   UNL     1      -3.263   0.997  -8.367  0.00  0.00    -0.082 C 
ATOM     10  C   UNL     1      -2.697   0.275  -7.141  0.00  0.00    -0.010 C 
ATOM     11  C   UNL     1      -5.630  -0.054  -4.237  0.00  0.00    +0.247 C 
ATOM     12  O   UNL     1      -5.465  -0.163  -3.038  0.00  0.00    -0.270 OA
ATOM     13  H   UNL     1      -2.139  -0.100  -9.668  0.00  0.00    -0.086 HD
ATOM     14  H   UNL     1      -3.429   0.645 -10.369  0.00  0.00    -0.086 HD
ENDROOT
BRANCH  11  15
ATOM     15  C   UNL     1      -6.593   0.936  -4.764  0.00  0.00    +0.044 A 
ATOM     16  C   UNL     1      -7.129   0.778  -6.043  0.00  0.00    +0.059 A 
ATOM     17  C   UNL     1      -8.031   1.708  -6.533  0.00  0.00    +0.124 A 
ATOM     18  C   UNL     1      -8.403   2.794  -5.754  0.00  0.00    +0.091 A 
ATOM     19  C   UNL     1      -7.872   2.955  -4.482  0.00  0.00    +0.124 A 
ATOM     20  C   UNL     1      -6.974   2.027  -3.982  0.00  0.00    +0.059 A 
BRANCH  19  21
ATOM     21  O   UNL     1      -8.239   4.021  -3.724  0.00  0.00    -0.495 OA
ATOM     22  C   UNL     1      -9.174   4.936  -4.299  0.00  0.00    +0.277 C 
ENDBRANCH  19  21
BRANCH  17  23
ATOM     23  O   UNL     1      -8.554   1.555  -7.778  0.00  0.00    -0.495 OA
ATOM     24  C   UNL     1      -9.479   2.551  -8.220  0.00  0.00    +0.277 C 
ENDBRANCH  17  23
ENDBRANCH  11  15
BRANCH   1  26
ATOM     25  N   UNL     1      -0.453  -1.239  -5.548  0.00  0.00    -0.308 N 
ATOM     26  C   UNL     1      -1.718  -1.035  -5.132  0.00  0.00    +0.219 C 
ATOM     27  O   UNL     1      -1.946  -0.225  -4.258  0.00  0.00    -0.275 OA
ATOM     28  H   UNL     1      -0.270  -1.887  -6.246  0.00  0.00    +0.149 HD
BRANCH  25  29
ATOM     29  C   UNL     1       0.648  -0.483  -4.945  0.00  0.00    +0.104 C 
ATOM     30  C   UNL     1       0.793   0.863  -5.660  0.00  0.00    +0.033 C 
BRANCH  29  33
ATOM     31  C   UNL     1       1.704  -1.847  -7.555  0.00  0.00    +0.065 C 
ATOM     32  C   UNL     1       2.385  -1.854  -6.211  0.00  0.00    +0.038 A 
ATOM     33  C   UNL     1       1.929  -1.264  -5.082  0.00  0.00    +0.015 A 
ATOM     34  C   UNL     1       2.856  -1.509  -4.063  0.00  0.00    +0.065 A 
ATOM     35  N   UNL     1       3.834  -2.219  -4.563  0.00  0.00    -0.179 NA
ATOM     36  N   UNL     1       3.558  -2.455  -5.916  0.00  0.00    -0.281 N 
ATOM     37  H   UNL     1       4.112  -2.958  -6.533  0.00  0.00    +0.189 HD
ATOM     38  C   UNL     1       2.747  -1.035  -2.637  0.00  0.00    +0.068 C 
ENDBRANCH  29  33
ENDBRANCH  25  29
ENDBRANCH   1  26
TORSDOF 6
