REMARK  Name = ZINC30985505
REMARK  7 active torsions:
REMARK  status: ('A' for Active; 'I' for Inactive)
REMARK    1  A    between atoms: C_9  and  C_12
REMARK    2  A    between atoms: C_12  and  N_13
REMARK    3  A    between atoms: N_16  and  C_17
REMARK    4  A    between atoms: C_17  and  C_18
REMARK    5  A    between atoms: C_18  and  C_20
REMARK    6  A    between atoms: C_18  and  O_29
REMARK    7  A    between atoms: C_23  and  N_26
REMARK                            x       y       z     vdW  Elec       q    Type
REMARK                         _______ _______ _______ _____ _____    ______ ____
ROOT
ATOM      1  N   UNL     1      -0.124  -4.007   2.599  0.00  0.00    -0.296 N 
ATOM      2  C   UNL     1      -0.251  -2.665   2.587  0.00  0.00    +0.300 C 
ATOM      3  O   UNL     1      -0.511  -2.070   3.615  0.00  0.00    -0.253 OA
ATOM      4  N   UNL     1      -0.090  -1.984   1.436  0.00  0.00    -0.297 N 
ATOM      5  H   UNL     1       0.112  -4.545   1.670  0.00  0.00    +0.150 HD
ATOM      6  H   UNL     1       0.146  -2.522   0.506  0.00  0.00    +0.150 HD
ENDROOT
BRANCH   1   7
ATOM      7  C   UNL     1      -0.299  -4.748   3.851  0.00  0.00    +0.153 C 
BRANCH   7  16
ATOM      8  C   UNL     1      -1.565 -10.778   2.240  0.00  0.00    +0.004 A 
ATOM      9  C   UNL     1      -2.021  -9.922   1.254  0.00  0.00    +0.004 A 
ATOM     10  C   UNL     1      -1.852  -8.557   1.388  0.00  0.00    +0.049 A 
ATOM     11  C   UNL     1      -1.223  -8.042   2.512  0.00  0.00    +0.163 A 
ATOM     12  C   UNL     1      -0.762  -8.903   3.502  0.00  0.00    +0.162 A 
ATOM     13  C   UNL     1      -0.937 -10.272   3.361  0.00  0.00    +0.049 A 
ATOM     14  O   UNL     1      -0.139  -8.419   4.611  0.00  0.00    -0.485 OA
ATOM     15  C   UNL     1      -0.316  -7.027   4.893  0.00  0.00    +0.275 C 
ATOM     16  C   UNL     1      -0.103  -6.242   3.591  0.00  0.00    +0.228 C 
ATOM     17  O   UNL     1      -1.066  -6.696   2.632  0.00  0.00    -0.480 OA
ENDBRANCH   7  16
ENDBRANCH   1   7
BRANCH   4  18
ATOM     18  C   UNL     1      -0.228  -0.525   1.422  0.00  0.00    +0.141 C 
BRANCH  18  19
ATOM     19  C   UNL     1       0.002  -0.004   0.002  0.00  0.00    +0.162 C 
BRANCH  19  20
ATOM     20  C   UNL     1      -0.018   1.503   0.010  0.00  0.00    -0.018 A 
ATOM     21  C   UNL     1      -1.225   2.178   0.020  0.00  0.00    +0.008 A 
ATOM     22  C   UNL     1      -1.244   3.560   0.032  0.00  0.00    +0.033 A 
ATOM     23  C   UNL     1      -0.056   4.267   0.025  0.00  0.00    +0.126 A 
ATOM     24  C   UNL     1       1.151   3.592   0.010  0.00  0.00    +0.033 A 
ATOM     25  C   UNL     1       1.169   2.210   0.003  0.00  0.00    +0.008 A 
BRANCH  23  26
ATOM     26  N   UNL     1      -0.076   5.747   0.032  0.00  0.00    +0.056 N 
ATOM     27  O   UNL     1       0.971   6.370   0.025  0.00  0.00    -0.126 OA
ATOM     28  O   UNL     1      -1.139   6.342   0.045  0.00  0.00    -0.126 OA
ENDBRANCH  23  26
ENDBRANCH  19  20
BRANCH  19  29
ATOM     29  O   UNL     1      -1.032  -0.490  -0.857  0.00  0.00    -0.386 OA
ATOM     30  H   UNL     1      -1.034  -0.218  -1.923  0.00  0.00    +0.210 HD
ENDBRANCH  19  29
ENDBRANCH  18  19
ENDBRANCH   4  18
TORSDOF 7
