REMARK  Name = ZINC39211928
REMARK  12 active torsions:
REMARK  status: ('A' for Active; 'I' for Inactive)
REMARK    1  A    between atoms: C_1  and  C_2
REMARK    2  A    between atoms: C_4  and  C_35
REMARK    3  A    between atoms: C_9  and  C_14
REMARK    4  A    between atoms: C_11  and  N_13
REMARK    5  A    between atoms: N_16  and  C_17
REMARK    6  A    between atoms: C_17  and  C_18
REMARK    7  A    between atoms: C_18  and  C_19
REMARK    8  A    between atoms: C_22  and  O_30
REMARK    9  A    between atoms: C_27  and  C_29
REMARK   10  A    between atoms: O_30  and  C_31
REMARK   11  A    between atoms: C_35  and  O_36
REMARK   12  A    between atoms: O_36  and  C_37
REMARK                            x       y       z     vdW  Elec       q    Type
REMARK                         _______ _______ _______ _____ _____    ______ ____
ROOT
ATOM      1  C   UNL     1       1.481  -5.634   1.978  0.00  0.00    +0.225 C 
ATOM      2  O   UNL     1       2.581  -5.563   1.472  0.00  0.00    -0.275 OA
ATOM      3  N   UNL     1       1.221  -6.589   2.893  0.00  0.00    -0.314 N 
ATOM      4  H   UNL     1       0.342  -6.646   3.298  0.00  0.00    +0.149 HD
ENDROOT
BRANCH   1  13
ATOM      5  C   UNL     1      -0.795   1.467   0.209  0.00  0.00    +0.065 C 
ATOM      6  C   UNL     1      -0.442   0.004   0.137  0.00  0.00    +0.040 A 
ATOM      7  C   UNL     1      -0.421  -0.643  -1.082  0.00  0.00    +0.029 A 
ATOM      8  C   UNL     1      -0.087  -1.983  -1.147  0.00  0.00    -0.016 A 
ATOM      9  C   UNL     1       0.223  -2.671   0.029  0.00  0.00    -0.023 A 
ATOM     10  C   UNL     1       0.162  -1.942   1.216  0.00  0.00    +0.100 A 
ATOM     11  N   UNL     1      -0.146  -0.659   1.240  0.00  0.00    -0.245 NA
ATOM     12  S   UNL     1       0.551  -3.082   2.527  0.00  0.00    -0.094 S 
ATOM     13  C   UNL     1       0.405  -4.656   1.583  0.00  0.00    +0.128 C 
ATOM     14  C   UNL     1       0.627  -4.119   0.151  0.00  0.00    -0.019 C 
BRANCH  14  15
ATOM     15  N   UNL     1      -0.168  -4.919  -0.789  0.00  0.00    +0.384 N 
ATOM     16  H   UNL     1       0.115  -4.707  -1.734  0.00  0.00    -0.089 HD
ATOM     17  H   UNL     1      -0.018  -5.900  -0.606  0.00  0.00    -0.089 HD
ATOM     18  H   UNL     1      -1.146  -4.700  -0.674  0.00  0.00    -0.089 HD
ENDBRANCH  14  15
BRANCH   8  19
ATOM     19  C   UNL     1      -0.059  -2.696  -2.474  0.00  0.00    +0.195 C 
BRANCH  19  20
ATOM     20  O   UNL     1      -0.287  -1.755  -3.525  0.00  0.00    -0.378 OA
ATOM     21  C   UNL     1      -0.280  -2.332  -4.833  0.00  0.00    +0.194 C 
ENDBRANCH  19  20
ENDBRANCH   8  19
ENDBRANCH   1  13
BRANCH   3  22
ATOM     22  C   UNL     1       2.267  -7.540   3.276  0.00  0.00    +0.109 C 
BRANCH  22  23
ATOM     23  C   UNL     1       1.716  -8.511   4.322  0.00  0.00    +0.056 C 
BRANCH  23  24
ATOM     24  C   UNL     1       2.792  -9.489   4.717  0.00  0.00    -0.018 A 
ATOM     25  C   UNL     1       3.761  -9.327   5.803  0.00  0.00    +0.007 A 
ATOM     26  C   UNL     1       4.002  -8.325   6.746  0.00  0.00    +0.056 A 
ATOM     27  C   UNL     1       5.023  -8.482   7.661  0.00  0.00    +0.131 A 
ATOM     28  C   UNL     1       5.810  -9.630   7.646  0.00  0.00    +0.048 A 
ATOM     29  C   UNL     1       5.582 -10.624   6.721  0.00  0.00    +0.030 A 
ATOM     30  C   UNL     1       4.558 -10.486   5.790  0.00  0.00    +0.047 A 
ATOM     31  N   UNL     1       4.095 -11.286   4.766  0.00  0.00    -0.358 N 
ATOM     32  C   UNL     1       3.039 -10.677   4.143  0.00  0.00    +0.017 A 
ATOM     33  H   UNL     1       4.460 -12.152   4.526  0.00  0.00    +0.166 HD
ATOM     34  C   UNL     1       2.271 -11.254   2.982  0.00  0.00    +0.063 C 
BRANCH  27  35
ATOM     35  O   UNL     1       5.262  -7.509   8.582  0.00  0.00    -0.406 OA
BRANCH  35  36
ATOM     36  C   UNL     1       6.334  -7.734   9.500  0.00  0.00    +0.575 C 
ATOM     37  F   UNL     1       7.531  -7.884   8.791  0.00  0.00    -0.133 F 
ATOM     38  F   UNL     1       6.440  -6.644  10.369  0.00  0.00    -0.133 F 
ATOM     39  F   UNL     1       6.080  -8.896  10.237  0.00  0.00    -0.133 F 
ENDBRANCH  35  36
ENDBRANCH  27  35
ENDBRANCH  23  24
ENDBRANCH  22  23
ENDBRANCH   3  22
TORSDOF 9
