REMARK  Name = ZINC11013435
REMARK  6 active torsions:
REMARK  status: ('A' for Active; 'I' for Inactive)
REMARK    1  A    between atoms: C_8  and  C_10
REMARK    2  A    between atoms: C_11  and  C_12
REMARK    3  A    between atoms: C_12  and  O_14
REMARK    4  A    between atoms: O_14  and  C_15
REMARK    5  A    between atoms: C_15  and  C_16
REMARK    6  A    between atoms: C_20  and  C_29
REMARK                            x       y       z     vdW  Elec       q    Type
REMARK                         _______ _______ _______ _____ _____    ______ ____
ROOT
ATOM      1  C   UNL     1      -2.736   0.592   2.301  0.00  0.00    +0.258 C 
ATOM      2  O   UNL     1      -2.119   0.472   3.338  0.00  0.00    -0.272 OA
ATOM      3  N   UNL     1      -2.124   1.083   1.205  0.00  0.00    -0.261 N 
ATOM      4  C   UNL     1      -2.825   1.155  -0.092  0.00  0.00    +0.168 C 
ATOM      5  C   UNL     1      -2.474   2.507  -0.730  0.00  0.00    +0.276 C 
ATOM      6  O   UNL     1      -1.054   2.596  -0.875  0.00  0.00    -0.476 OA
ATOM      7  C   UNL     1      -0.287   2.302   0.207  0.00  0.00    +0.143 A 
ATOM      8  C   UNL     1      -0.798   1.545   1.259  0.00  0.00    +0.078 A 
ATOM      9  C   UNL     1      -0.003   1.249   2.354  0.00  0.00    +0.027 A 
ATOM     10  C   UNL     1       1.301   1.709   2.404  0.00  0.00    +0.002 A 
ATOM     11  C   UNL     1       1.809   2.462   1.363  0.00  0.00    +0.004 A 
ATOM     12  C   UNL     1       1.021   2.760   0.267  0.00  0.00    +0.047 A 
ENDROOT
BRANCH   5  13
ATOM     13  C   UNL     1      -3.127   2.611  -2.083  0.00  0.00    +0.253 C 
ATOM     14  O   UNL     1      -2.444   2.663  -3.084  0.00  0.00    -0.272 OA
ATOM     15  N   UNL     1      -4.471   2.648  -2.182  0.00  0.00    -0.326 N 
ATOM     16  H   UNL     1      -5.017   2.607  -1.381  0.00  0.00    +0.145 HD
ATOM     17  H   UNL     1      -4.892   2.715  -3.053  0.00  0.00    +0.145 HD
ENDBRANCH   5  13
BRANCH   1  18
ATOM     18  C   UNL     1      -4.188   0.193   2.237  0.00  0.00    +0.328 C 
BRANCH  18  19
ATOM     19  O   UNL     1      -4.636  -0.185   3.541  0.00  0.00    -0.452 OA
BRANCH  19  20
ATOM     20  C   UNL     1      -5.923  -0.572   3.659  0.00  0.00    +0.332 C 
ATOM     21  O   UNL     1      -6.646  -0.589   2.679  0.00  0.00    -0.246 OA
BRANCH  20  23
ATOM     22  C   UNL     1      -7.727  -1.349   5.038  0.00  0.00    +0.023 C 
ATOM     23  C   UNL     1      -6.433  -0.959   4.920  0.00  0.00    +0.093 C 
BRANCH  22  31
ATOM     24  C   UNL     1     -11.176  -3.240   9.800  0.00  0.00    +0.001 A 
ATOM     25  C   UNL     1     -10.110  -3.106  10.681  0.00  0.00    +0.001 A 
ATOM     26  C   UNL     1      -8.888  -2.671  10.209  0.00  0.00    +0.016 A 
ATOM     27  C   UNL     1      -8.742  -2.373   8.871  0.00  0.00    +0.021 A 
ATOM     28  C   UNL     1      -9.810  -2.499   7.952  0.00  0.00    +0.008 A 
ATOM     29  C   UNL     1     -11.048  -2.951   8.479  0.00  0.00    +0.010 A 
ATOM     30  C   UNL     1      -9.509  -2.152   6.622  0.00  0.00    +0.063 A 
ATOM     31  C   UNL     1      -8.238  -1.736   6.302  0.00  0.00    +0.032 A 
ATOM     32  S   UNL     1      -7.393  -1.798   7.872  0.00  0.00    -0.087 S 
ATOM     33 CL   UNL     1     -10.731  -2.254   5.393  0.00  0.00    -0.082 Cl
ENDBRANCH  22  31
ENDBRANCH  20  23
ENDBRANCH  19  20
ENDBRANCH  18  19
ENDBRANCH   1  18
TORSDOF 6
