REMARK  Name = ZINC01293860
REMARK  6 active torsions:
REMARK  status: ('A' for Active; 'I' for Inactive)
REMARK    1  A    between atoms: C_1  and  O_2
REMARK    2  A    between atoms: O_2  and  C_3
REMARK    3  A    between atoms: C_6  and  C_9
REMARK    4  A    between atoms: N_10  and  N_11
REMARK    5  A    between atoms: C_17  and  C_20
REMARK    6  A    between atoms: N_22  and  C_23
REMARK                            x       y       z     vdW  Elec       q    Type
REMARK                         _______ _______ _______ _____ _____    ______ ____
ROOT
ATOM      1  N   UNL     1      -2.694   3.578   0.041  0.00  0.00    -0.217 N 
ATOM      2  C   UNL     1      -1.411   3.114   0.022  0.00  0.00    +0.166 C 
ATOM      3  N   UNL     1      -1.193   1.816   0.011  0.00  0.00    -0.158 NA
ATOM      4  C   UNL     1      -0.025   1.221   0.008  0.00  0.00    +0.240 C 
ATOM      5  O   UNL     1      -0.015   0.005   0.006  0.00  0.00    -0.274 OA
ATOM      6  C   UNL     1       1.299   1.924   0.003  0.00  0.00    +0.122 C 
ATOM      7  C   UNL     1       1.201   3.239   0.783  0.00  0.00    +0.149 C 
ATOM      8  S   UNL     1      -0.076   4.266   0.005  0.00  0.00    -0.078 S 
ATOM      9  H   UNL     1      -2.865   4.532   0.046  0.00  0.00    +0.176 HD
ENDROOT
BRANCH   7  10
ATOM     10  C   UNL     1       2.526   3.955   0.740  0.00  0.00    +0.231 C 
ATOM     11  O   UNL     1       3.218   3.892  -0.254  0.00  0.00    -0.274 OA
ATOM     12  N   UNL     1       2.942   4.667   1.806  0.00  0.00    -0.285 N 
ATOM     13  H   UNL     1       2.361   4.774   2.575  0.00  0.00    +0.155 HD
BRANCH  12  14
ATOM     14  C   UNL     1       4.214   5.252   1.804  0.00  0.00    +0.035 A 
ATOM     15  C   UNL     1       4.942   5.337   2.983  0.00  0.00    +0.025 A 
ATOM     16  C   UNL     1       6.199   5.911   2.978  0.00  0.00    +0.023 A 
ATOM     17  C   UNL     1       6.728   6.410   1.801  0.00  0.00    +0.059 A 
ATOM     18  C   UNL     1       6.001   6.332   0.625  0.00  0.00    +0.061 A 
ATOM     19  C   UNL     1       4.746   5.754   0.624  0.00  0.00    +0.044 A 
ATOM     20 CL   UNL     1       6.668   6.961  -0.849  0.00  0.00    -0.082 Cl
ATOM     21 CL   UNL     1       8.305   7.136   1.800  0.00  0.00    -0.082 Cl
ENDBRANCH  12  14
ENDBRANCH   7  10
BRANCH   1  23
ATOM     22  C   UNL     1      -4.986   3.115   0.073  0.00  0.00    +0.138 C 
ATOM     23  N   UNL     1      -3.765   2.674   0.054  0.00  0.00    -0.188 NA
BRANCH  22  27
ATOM     24  C   UNL     1      -8.230   0.377   0.113  0.00  0.00    +0.120 A 
ATOM     25  C   UNL     1      -8.477   1.744   0.119  0.00  0.00    +0.046 A 
ATOM     26  C   UNL     1      -7.427   2.636   0.106  0.00  0.00    +0.013 A 
ATOM     27  C   UNL     1      -6.112   2.164   0.087  0.00  0.00    -0.005 A 
ATOM     28  C   UNL     1      -5.869   0.788   0.075  0.00  0.00    +0.013 A 
ATOM     29  C   UNL     1      -6.925  -0.097   0.094  0.00  0.00    +0.046 A 
BRANCH  24  31
ATOM     30  C   UNL     1      -8.943  -1.891   0.119  0.00  0.00    +0.277 C 
ATOM     31  O   UNL     1      -9.268  -0.499   0.127  0.00  0.00    -0.495 OA
ENDBRANCH  24  31
ENDBRANCH  22  27
ENDBRANCH   1  23
TORSDOF 5
