REMARK  Name = ZINC39686013
REMARK  9 active torsions:
REMARK  status: ('A' for Active; 'I' for Inactive)
REMARK    1  A    between atoms: C_1  and  C_2
REMARK    2  A    between atoms: C_2  and  C_4
REMARK    3  A    between atoms: C_2  and  O_31
REMARK    4  A    between atoms: C_8  and  C_17
REMARK    5  A    between atoms: N_19  and  C_20
REMARK    6  A    between atoms: C_26  and  C_28
REMARK    7  A    between atoms: C_28  and  C_29
REMARK    8  A    between atoms: C_28  and  C_30
REMARK    9  A    between atoms: O_31  and  C_32
REMARK                            x       y       z     vdW  Elec       q    Type
REMARK                         _______ _______ _______ _____ _____    ______ ____
ROOT
ATOM      1  C   UNL     1      -2.120  -2.389   1.130  0.00  0.00    +0.256 C 
ATOM      2  O   UNL     1      -2.675  -2.931   2.063  0.00  0.00    -0.272 OA
ATOM      3  N   UNL     1      -2.849  -1.875   0.119  0.00  0.00    -0.297 N 
ATOM      4  C   UNL     1      -2.357  -1.188  -1.097  0.00  0.00    +0.121 C 
ATOM      5  C   UNL     1      -3.275  -1.696  -2.232  0.00  0.00    +0.100 C 
ATOM      6  C   UNL     1      -4.565  -2.140  -1.522  0.00  0.00    -0.004 C 
ATOM      7  C   UNL     1      -4.324  -1.875  -0.029  0.00  0.00    +0.115 C 
ATOM      8  C   UNL     1      -5.751  -1.321  -2.021  0.00  0.00    -0.010 C 
ATOM      9  C   UNL     1      -7.031  -1.820  -1.345  0.00  0.00    -0.082 C 
ATOM     10  N   UNL     1      -7.228  -3.241  -1.654  0.00  0.00    +0.379 N 
ATOM     11  C   UNL     1      -6.128  -4.034  -1.090  0.00  0.00    -0.082 C 
ATOM     12  C   UNL     1      -4.811  -3.628  -1.756  0.00  0.00    -0.010 C 
ATOM     13  H   UNL     1      -8.102  -3.553  -1.258  0.00  0.00    -0.086 HD
ATOM     14  H   UNL     1      -7.252  -3.366  -2.655  0.00  0.00    -0.086 HD
ENDROOT
BRANCH   5  15
ATOM     15  C   UNL     1      -3.566  -0.586  -3.208  0.00  0.00    +0.218 C 
ATOM     16  O   UNL     1      -3.646   0.560  -2.818  0.00  0.00    -0.275 OA
ATOM     17  N   UNL     1      -3.737  -0.866  -4.515  0.00  0.00    -0.312 N 
ATOM     18  H   UNL     1      -3.673  -1.782  -4.827  0.00  0.00    +0.149 HD
BRANCH  17  19
ATOM     19  C   UNL     1      -4.020   0.213  -5.465  0.00  0.00    +0.076 C 
ATOM     20  C   UNL     1      -5.523   0.499  -5.478  0.00  0.00    +0.041 C 
ATOM     21  C   UNL     1      -5.811   1.651  -6.446  0.00  0.00    +0.109 C 
ATOM     22  N   UNL     1      -5.249   1.315  -7.762  0.00  0.00    -0.301 N 
ATOM     23  C   UNL     1      -3.832   0.936  -7.849  0.00  0.00    +0.109 C 
ATOM     24  C   UNL     1      -3.567  -0.208  -6.865  0.00  0.00    +0.041 C 
ATOM     25  C   UNL     1      -6.019   1.354  -8.867  0.00  0.00    +0.218 C 
ATOM     26  O   UNL     1      -5.562   1.010  -9.937  0.00  0.00    -0.275 OA
BRANCH  25  27
ATOM     27  C   UNL     1      -7.448   1.824  -8.775  0.00  0.00    +0.069 C 
ATOM     28  C   UNL     1      -7.473   3.313  -8.423  0.00  0.00    +0.017 C 
ATOM     29  C   UNL     1      -8.144   1.606 -10.120  0.00  0.00    +0.017 C 
ENDBRANCH  25  27
ENDBRANCH  17  19
ENDBRANCH   5  15
BRANCH   1  31
ATOM     30  C   UNL     1      -0.201  -0.819   1.185  0.00  0.00    +0.062 C 
ATOM     31  C   UNL     1      -0.617  -2.289   1.101  0.00  0.00    +0.256 C 
BRANCH  31  32
ATOM     32  O   UNL     1      -0.071  -3.003   2.213  0.00  0.00    -0.480 OA
BRANCH  32  33
ATOM     33  C   UNL     1       1.199  -3.468   2.083  0.00  0.00    +0.122 A 
ATOM     34  C   UNL     1       1.751  -4.267   3.075  0.00  0.00    +0.045 A 
ATOM     35  C   UNL     1       3.042  -4.739   2.941  0.00  0.00    +0.004 A 
ATOM     36  C   UNL     1       3.785  -4.416   1.820  0.00  0.00    +0.000 A 
ATOM     37  C   UNL     1       3.237  -3.619   0.831  0.00  0.00    +0.004 A 
ATOM     38  C   UNL     1       1.944  -3.150   0.958  0.00  0.00    +0.045 A 
ENDBRANCH  32  33
ENDBRANCH  31  32
ENDBRANCH   1  31
TORSDOF 6
