REMARK  Name = ZINC35317786
REMARK  15 active torsions:
REMARK  status: ('A' for Active; 'I' for Inactive)
REMARK    1  A    between atoms: C_1  and  C_2
REMARK    2  A    between atoms: C_9  and  C_11
REMARK    3  A    between atoms: C_11  and  C_12
REMARK    4  A    between atoms: C_12  and  C_13
REMARK    5  A    between atoms: C_18  and  C_20
REMARK    6  A    between atoms: C_20  and  C_22
REMARK    7  A    between atoms: C_20  and  N_25
REMARK    8  A    between atoms: C_22  and  C_23
REMARK    9  A    between atoms: C_22  and  C_24
REMARK   10  A    between atoms: C_26  and  C_28
REMARK   11  A    between atoms: C_28  and  C_29
REMARK   12  A    between atoms: C_29  and  C_30
REMARK   13  A    between atoms: C_30  and  C_31
REMARK   14  A    between atoms: C_31  and  C_32
REMARK   15  A    between atoms: C_32  and  N_33
REMARK                            x       y       z     vdW  Elec       q    Type
REMARK                         _______ _______ _______ _____ _____    ______ ____
ROOT
ATOM      1  C   UNL     1       1.825   1.287   0.157  0.00  0.00    +0.029 C 
ATOM      2  C   UNL     1       1.546  -0.217   0.139  0.00  0.00    +0.090 C 
ATOM      3  C   UNL     1       1.474  -0.710  -1.312  0.00  0.00    +0.130 C 
ATOM      4  N   UNL     1       1.468  -2.179  -1.310  0.00  0.00    -0.297 N 
ATOM      5  C   UNL     1       2.556  -2.891  -0.626  0.00  0.00    +0.127 C 
ATOM      6  C   UNL     1       2.628  -2.399   0.825  0.00  0.00    +0.127 C 
ATOM      7  N   UNL     1       2.633  -0.929   0.826  0.00  0.00    -0.296 N 
ATOM      8  C   UNL     1       3.618  -0.246   1.442  0.00  0.00    +0.216 C 
ATOM      9  O   UNL     1       3.532   0.956   1.574  0.00  0.00    -0.276 OA
ATOM     10  C   UNL     1       0.481  -2.862  -1.924  0.00  0.00    +0.236 C 
ATOM     11  O   UNL     1      -0.360  -2.267  -2.565  0.00  0.00    -0.274 OA
ENDROOT
BRANCH   8  12
ATOM     12  C   UNL     1       4.827  -0.977   1.967  0.00  0.00    +0.096 C 
BRANCH  12  13
ATOM     13  C   UNL     1       5.785   0.023   2.616  0.00  0.00    +0.013 C 
BRANCH  13  14
ATOM     14  C   UNL     1       7.013  -0.719   3.150  0.00  0.00    -0.011 C 
ATOM     15  C   UNL     1       6.611  -1.621   4.335  0.00  0.00    +0.003 C 
ATOM     16  C   UNL     1       7.811  -1.524   5.309  0.00  0.00    +0.000 C 
ATOM     17  C   UNL     1       8.230  -0.038   5.189  0.00  0.00    +0.000 C 
ATOM     18  C   UNL     1       8.042   0.288   3.693  0.00  0.00    +0.003 C 
ENDBRANCH  13  14
ENDBRANCH  12  13
ENDBRANCH   8  12
BRANCH  10  19
ATOM     19  C   UNL     1       0.423  -4.364  -1.815  0.00  0.00    +0.162 C 
BRANCH  19  20
ATOM     20  N   UNL     1      -0.976  -4.794  -1.748  0.00  0.00    -0.304 N 
ATOM     21  C   UNL     1      -1.293  -5.965  -1.161  0.00  0.00    +0.214 C 
ATOM     22  O   UNL     1      -0.420  -6.663  -0.688  0.00  0.00    -0.276 OA
ATOM     23  H   UNL     1      -1.674  -4.237  -2.126  0.00  0.00    +0.149 HD
BRANCH  21  24
ATOM     24  C   UNL     1      -2.732  -6.409  -1.092  0.00  0.00    +0.096 C 
BRANCH  24  25
ATOM     25  C   UNL     1      -2.815  -7.761  -0.381  0.00  0.00    +0.009 C 
BRANCH  25  26
ATOM     26  C   UNL     1      -4.276  -8.211  -0.311  0.00  0.00    -0.001 C 
BRANCH  26  27
ATOM     27  C   UNL     1      -4.360  -9.563   0.399  0.00  0.00    -0.020 C 
BRANCH  27  28
ATOM     28  C   UNL     1      -5.820 -10.013   0.469  0.00  0.00    -0.086 C 
BRANCH  28  29
ATOM     29  N   UNL     1      -5.901 -11.312   1.151  0.00  0.00    +0.378 N 
ATOM     30  H   UNL     1      -6.864 -11.608   1.198  0.00  0.00    -0.090 HD
ATOM     31  H   UNL     1      -5.362 -11.995   0.639  0.00  0.00    -0.090 HD
ATOM     32  H   UNL     1      -5.530 -11.224   2.086  0.00  0.00    -0.090 HD
ENDBRANCH  28  29
ENDBRANCH  27  28
ENDBRANCH  26  27
ENDBRANCH  25  26
ENDBRANCH  24  25
ENDBRANCH  21  24
ENDBRANCH  19  20
BRANCH  19  33
ATOM     33  C   UNL     1       1.091  -4.990  -3.040  0.00  0.00    +0.012 C 
ATOM     34  C   UNL     1       2.553  -4.544  -3.107  0.00  0.00    +0.009 C 
ATOM     35  C   UNL     1       1.028  -6.515  -2.931  0.00  0.00    +0.009 C 
ENDBRANCH  19  33
ENDBRANCH  10  19
TORSDOF 12
