REMARK  Name = ZINC59170590
REMARK  8 active torsions:
REMARK  status: ('A' for Active; 'I' for Inactive)
REMARK    1  A    between atoms: C_1  and  C_2
REMARK    2  A    between atoms: C_2  and  O_3
REMARK    3  A    between atoms: O_3  and  C_4
REMARK    4  A    between atoms: C_8  and  N_10
REMARK    5  A    between atoms: C_11  and  C_13
REMARK    6  A    between atoms: N_23  and  C_24
REMARK    7  A    between atoms: C_27  and  S_30
REMARK    8  A    between atoms: S_30  and  N_33
REMARK                            x       y       z     vdW  Elec       q    Type
REMARK                         _______ _______ _______ _____ _____    ______ ____
ROOT
ATOM      1  C   UNL     1       3.175  -6.076  -4.933  0.00  0.00    +0.098 A 
ATOM      2  C   UNL     1       3.282  -7.448  -5.119  0.00  0.00    +0.030 A 
ATOM      3  C   UNL     1       4.025  -7.912  -6.293  0.00  0.00    +0.020 A 
ATOM      4  C   UNL     1       3.957  -9.249  -6.701  0.00  0.00    +0.031 A 
ATOM      5  C   UNL     1       4.663  -9.659  -7.811  0.00  0.00    +0.042 A 
ATOM      6  C   UNL     1       5.439  -8.753  -8.523  0.00  0.00    +0.023 A 
ATOM      7  C   UNL     1       5.516  -7.432  -8.131  0.00  0.00    +0.048 A 
ATOM      8  C   UNL     1       4.816  -6.998  -7.016  0.00  0.00    +0.138 A 
ATOM      9  O   UNL     1       4.888  -5.705  -6.615  0.00  0.00    -0.439 OA
ATOM     10  C   UNL     1       3.816  -5.209  -5.941  0.00  0.00    +0.212 A 
ATOM     11  N   UNL     1       3.368  -3.994  -6.174  0.00  0.00    -0.325 N 
ATOM     12 CL   UNL     1       4.584 -11.316  -8.322  0.00  0.00    -0.084 Cl
ATOM     13  H   UNL     1       2.542  -3.695  -5.762  0.00  0.00    +0.169 HD
ENDROOT
BRANCH  11  14
ATOM     14  C   UNL     1       4.066  -3.154  -6.997  0.00  0.00    +0.042 A 
ATOM     15  C   UNL     1       5.453  -3.043  -6.874  0.00  0.00    +0.027 A 
ATOM     16  C   UNL     1       6.150  -2.194  -7.707  0.00  0.00    +0.030 A 
ATOM     17  C   UNL     1       5.479  -1.453  -8.664  0.00  0.00    +0.105 A 
ATOM     18  C   UNL     1       4.105  -1.557  -8.791  0.00  0.00    +0.030 A 
ATOM     19  C   UNL     1       3.396  -2.407  -7.969  0.00  0.00    +0.027 A 
BRANCH  17  20
ATOM     20  S   UNL     1       6.378  -0.370  -9.724  0.00  0.00    +0.056 S 
ATOM     21  O   UNL     1       5.460   0.619 -10.168  0.00  0.00    -0.153 OA
ATOM     22  O   UNL     1       7.582  -0.042  -9.043  0.00  0.00    -0.153 OA
BRANCH  20  23
ATOM     23  N   UNL     1       6.815  -1.245 -11.061  0.00  0.00    -0.204 NA
ATOM     24  H   UNL     1       6.914  -0.803 -11.919  0.00  0.00    +0.144 HD
ATOM     25  H   UNL     1       6.971  -2.199 -10.986  0.00  0.00    +0.144 HD
ENDBRANCH  20  23
ENDBRANCH  17  20
ENDBRANCH  11  14
BRANCH   1  27
ATOM     26  N   UNL     1       2.476  -4.183  -3.555  0.00  0.00    -0.281 N 
ATOM     27  C   UNL     1       2.447  -5.511  -3.784  0.00  0.00    +0.253 C 
ATOM     28  O   UNL     1       1.820  -6.243  -3.041  0.00  0.00    -0.270 OA
ATOM     29  H   UNL     1       2.931  -3.594  -4.177  0.00  0.00    +0.155 HD
BRANCH  26  34
ATOM     30  C   UNL     1       1.778  -2.041  -0.646  0.00  0.00    +0.122 A 
ATOM     31  C   UNL     1       0.604  -2.615  -0.176  0.00  0.00    +0.046 A 
ATOM     32  C   UNL     1       0.057  -3.703  -0.827  0.00  0.00    +0.005 A 
ATOM     33  C   UNL     1       0.675  -4.225  -1.948  0.00  0.00    +0.023 A 
ATOM     34  C   UNL     1       1.850  -3.655  -2.422  0.00  0.00    +0.037 A 
ATOM     35  C   UNL     1       2.398  -2.557  -1.773  0.00  0.00    +0.069 A 
BRANCH  30  36
ATOM     36  O   UNL     1       2.315  -0.970  -0.005  0.00  0.00    -0.492 OA
BRANCH  36  38
ATOM     37  C   UNL     1       2.372   0.710   1.732  0.00  0.00    +0.048 C 
ATOM     38  C   UNL     1       1.623  -0.491   1.150  0.00  0.00    +0.225 C 
ENDBRANCH  36  38
ENDBRANCH  30  36
ENDBRANCH  26  34
ENDBRANCH   1  27
TORSDOF 7
