REMARK  Name = ZINC09345281
REMARK  9 active torsions:
REMARK  status: ('A' for Active; 'I' for Inactive)
REMARK    1  A    between atoms: C_1  and  C_2
REMARK    2  A    between atoms: C_5  and  C_8
REMARK    3  A    between atoms: C_19  and  C_21
REMARK    4  A    between atoms: C_23  and  O_29
REMARK    5  A    between atoms: C_26  and  O_27
REMARK    6  A    between atoms: O_27  and  C_28
REMARK    7  A    between atoms: O_29  and  C_30
REMARK    8  A    between atoms: C_35  and  S_37
REMARK    9  A    between atoms: S_37  and  C_38
REMARK                            x       y       z     vdW  Elec       q    Type
REMARK                         _______ _______ _______ _____ _____    ______ ____
ROOT
ATOM      1  C   UNL     1       0.030  -4.191  -0.411  0.00  0.00    +0.159 C 
ATOM      2  C   UNL     1      -1.282  -4.701   0.142  0.00  0.00    +0.025 C 
ATOM      3  C   UNL     1      -1.253  -5.416   1.286  0.00  0.00    +0.058 C 
ATOM      4  C   UNL     1      -2.548  -5.919   1.812  0.00  0.00    +0.040 A 
ATOM      5  C   UNL     1      -2.672  -6.377   3.116  0.00  0.00    +0.013 A 
ATOM      6  C   UNL     1      -3.896  -6.835   3.565  0.00  0.00    +0.001 A 
ATOM      7  C   UNL     1      -4.992  -6.836   2.720  0.00  0.00    +0.004 A 
ATOM      8  C   UNL     1      -4.876  -6.381   1.419  0.00  0.00    +0.046 A 
ATOM      9  C   UNL     1      -3.656  -5.921   0.955  0.00  0.00    +0.131 A 
ATOM     10  O   UNL     1      -3.513  -5.476  -0.319  0.00  0.00    -0.479 OA
ATOM     11  C   UNL     1      -2.583  -4.416  -0.549  0.00  0.00    +0.238 C 
ATOM     12  N   UNL     1      -0.090  -5.672   1.933  0.00  0.00    -0.326 N 
ATOM     13  C   UNL     1       1.093  -5.266   1.523  0.00  0.00    +0.216 C 
ATOM     14  N   UNL     1       1.228  -4.527   0.368  0.00  0.00    -0.209 N 
ATOM     15  N   UNL     1       2.591  -4.261   0.218  0.00  0.00    -0.239 N 
ATOM     16  C   UNL     1       3.218  -4.846   1.287  0.00  0.00    +0.174 C 
ATOM     17  N   UNL     1       2.323  -5.433   2.039  0.00  0.00    -0.192 NA
ATOM     18  H   UNL     1      -0.133  -6.187   2.754  0.00  0.00    +0.169 HD
ATOM     19  H   UNL     1       3.011  -3.762  -0.501  0.00  0.00    +0.172 HD
ENDROOT
BRANCH   1  24
ATOM     20  C   UNL     1      -0.304   1.564  -0.818  0.00  0.00    +0.044 C 
ATOM     21  C   UNL     1      -0.217   0.063  -0.712  0.00  0.00    -0.050 A 
ATOM     22  C   UNL     1      -0.492  -0.725  -1.814  0.00  0.00    +0.004 A 
ATOM     23  C   UNL     1      -0.412  -2.101  -1.717  0.00  0.00    +0.006 A 
ATOM     24  C   UNL     1      -0.056  -2.690  -0.518  0.00  0.00    -0.021 A 
ATOM     25  C   UNL     1       0.220  -1.902   0.584  0.00  0.00    +0.006 A 
ATOM     26  C   UNL     1       0.144  -0.525   0.486  0.00  0.00    +0.004 A 
ENDBRANCH   1  24
BRANCH  11  27
ATOM     27  C   UNL     1      -3.156  -3.127  -0.019  0.00  0.00    +0.042 A 
ATOM     28  C   UNL     1      -2.923  -2.753   1.290  0.00  0.00    +0.056 A 
ATOM     29  C   UNL     1      -3.450  -1.567   1.778  0.00  0.00    +0.121 A 
ATOM     30  C   UNL     1      -4.212  -0.755   0.950  0.00  0.00    +0.049 A 
ATOM     31  C   UNL     1      -4.446  -1.128  -0.359  0.00  0.00    +0.049 A 
ATOM     32  C   UNL     1      -3.914  -2.313  -0.848  0.00  0.00    +0.127 A 
BRANCH  32  33
ATOM     33  O   UNL     1      -4.139  -2.678  -2.138  0.00  0.00    -0.495 OA
ATOM     34  C   UNL     1      -4.875  -1.762  -2.952  0.00  0.00    +0.277 C 
ENDBRANCH  32  33
BRANCH  29  35
ATOM     35  O   UNL     1      -3.220  -1.199   3.067  0.00  0.00    -0.495 OA
ATOM     36  C   UNL     1      -3.794   0.035   3.501  0.00  0.00    +0.277 C 
ENDBRANCH  29  35
ENDBRANCH  11  27
BRANCH  16  37
ATOM     37  S   UNL     1       4.953  -4.816   1.596  0.00  0.00    -0.092 S 
ATOM     38  C   UNL     1       5.139  -5.752   3.139  0.00  0.00    +0.093 C 
ENDBRANCH  16  37
TORSDOF 5
