REMARK  Name = ZINC63375813
REMARK  8 active torsions:
REMARK  status: ('A' for Active; 'I' for Inactive)
REMARK    1  A    between atoms: C_1  and  O_2
REMARK    2  A    between atoms: O_2  and  C_3
REMARK    3  A    between atoms: C_6  and  C_11
REMARK    4  A    between atoms: C_8  and  O_9
REMARK    5  A    between atoms: O_9  and  C_10
REMARK    6  A    between atoms: C_11  and  C_12
REMARK    7  A    between atoms: C_12  and  N_13
REMARK    8  A    between atoms: C_14  and  C_16
REMARK                            x       y       z     vdW  Elec       q    Type
REMARK                         _______ _______ _______ _____ _____    ______ ____
ROOT
ATOM      1  C   UNL     1       6.625  -4.323  -6.337  0.00  0.00    +0.167 C 
ATOM      2  C   UNL     1       5.968  -5.690  -6.605  0.00  0.00    +0.065 C 
ATOM      3  C   UNL     1       7.028  -6.740  -6.387  0.00  0.00    -0.034 C 
ATOM      4  C   UNL     1       7.423  -7.743  -7.167  0.00  0.00    -0.001 A 
ATOM      5  C   UNL     1       6.912  -8.238  -8.456  0.00  0.00    +0.010 A 
ATOM      6  C   UNL     1       7.575  -9.295  -8.996  0.00  0.00    +0.001 A 
ATOM      7  C   UNL     1       8.680  -9.902  -8.390  0.00  0.00    +0.002 A 
ATOM      8  C   UNL     1       9.211  -9.517  -7.203  0.00  0.00    +0.026 A 
ATOM      9  C   UNL     1       8.597  -8.418  -6.535  0.00  0.00    +0.043 A 
ATOM     10  N   UNL     1       8.882  -7.860  -5.396  0.00  0.00    -0.375 N 
ATOM     11  C   UNL     1       7.898  -6.807  -5.140  0.00  0.00    +0.131 C 
ATOM     12  C   UNL     1       8.553  -5.437  -4.970  0.00  0.00    +0.134 C 
ATOM     13  N   UNL     1       8.045  -4.549  -6.035  0.00  0.00    -0.276 N 
ATOM     14  C   UNL     1       9.095  -4.006  -6.680  0.00  0.00    +0.248 C 
ATOM     15  O   UNL     1       9.020  -3.138  -7.527  0.00  0.00    -0.270 OA
ATOM     16  C   UNL     1      10.341  -4.616  -6.211  0.00  0.00    +0.042 A 
ATOM     17  C   UNL     1      10.035  -5.512  -5.137  0.00  0.00    -0.013 A 
ATOM     18  C   UNL     1      11.000  -6.242  -4.479  0.00  0.00    +0.006 A 
ATOM     19  C   UNL     1      12.318  -6.063  -4.890  0.00  0.00    +0.000 A 
ATOM     20  C   UNL     1      12.650  -5.195  -5.910  0.00  0.00    +0.001 A 
ATOM     21  C   UNL     1      11.661  -4.434  -6.631  0.00  0.00    +0.013 A 
ATOM     22  H   UNL     1       9.620  -8.100  -4.815  0.00  0.00    +0.160 HD
ENDROOT
BRANCH   1  24
ATOM     23  N   UNL     1       4.640  -3.366  -5.213  0.00  0.00    -0.313 N 
ATOM     24  C   UNL     1       5.955  -3.658  -5.162  0.00  0.00    +0.234 C 
ATOM     25  O   UNL     1       6.599  -3.385  -4.171  0.00  0.00    -0.274 OA
ATOM     26  H   UNL     1       4.126  -3.584  -6.006  0.00  0.00    +0.149 HD
BRANCH  23  27
ATOM     27  C   UNL     1       3.989  -2.719  -4.072  0.00  0.00    +0.109 C 
BRANCH  27  28
ATOM     28  C   UNL     1       2.507  -2.501  -4.386  0.00  0.00    +0.054 C 
BRANCH  28  32
ATOM     29  C   UNL     1       0.606  -0.608  -1.056  0.00  0.00    +0.161 A 
ATOM     30  C   UNL     1       1.173   0.159  -2.062  0.00  0.00    +0.049 A 
ATOM     31  C   UNL     1       1.787  -0.456  -3.137  0.00  0.00    +0.007 A 
ATOM     32  C   UNL     1       1.837  -1.836  -3.212  0.00  0.00    -0.042 A 
ATOM     33  C   UNL     1       1.273  -2.606  -2.212  0.00  0.00    +0.053 A 
ATOM     34  C   UNL     1       0.662  -1.996  -1.129  0.00  0.00    +0.162 A 
BRANCH  29  36
ATOM     35  C   UNL     1      -0.017   1.425   0.010  0.00  0.00    +0.277 C 
ATOM     36  O   UNL     1       0.002  -0.004   0.002  0.00  0.00    -0.491 OA
ENDBRANCH  29  36
BRANCH  34  37
ATOM     37  O   UNL     1       0.112  -2.753  -0.142  0.00  0.00    -0.491 OA
ATOM     38  C   UNL     1       0.206  -4.171  -0.283  0.00  0.00    +0.277 C 
ENDBRANCH  34  37
ENDBRANCH  28  32
ENDBRANCH  27  28
ENDBRANCH  23  27
ENDBRANCH   1  24
TORSDOF 6
