REMARK  Name = ZINC35426956
REMARK  5 active torsions:
REMARK  status: ('A' for Active; 'I' for Inactive)
REMARK    1  A    between atoms: C_3  and  S_10
REMARK    2  A    between atoms: C_6  and  C_7
REMARK    3  A    between atoms: S_10  and  N_13
REMARK    4  A    between atoms: N_13  and  C_14
REMARK    5  A    between atoms: C_17  and  C_19
REMARK                            x       y       z     vdW  Elec       q    Type
REMARK                         _______ _______ _______ _____ _____    ______ ____
ROOT
ATOM      1  S   UNL     1       3.889   2.325  -0.024  0.00  0.00    +0.073 S 
ATOM      2  O   UNL     1       4.872   1.468  -0.589  0.00  0.00    -0.150 OA
ATOM      3  O   UNL     1       3.592   3.604  -0.565  0.00  0.00    -0.150 OA
ENDROOT
BRANCH   1   6
ATOM      4  C   UNL     1      -0.017   1.391   0.010  0.00  0.00    +0.015 A 
ATOM      5  C   UNL     1       1.170   2.095   0.002  0.00  0.00    +0.029 A 
ATOM      6  C   UNL     1       2.378   1.419  -0.013  0.00  0.00    +0.109 A 
ATOM      7  C   UNL     1       2.403   0.036  -0.022  0.00  0.00    +0.029 A 
ATOM      8  C   UNL     1       1.224  -0.679  -0.014  0.00  0.00    +0.015 A 
ATOM      9  C   UNL     1       0.002  -0.004   0.002  0.00  0.00    +0.037 A 
BRANCH   9  10
ATOM     10  C   UNL     1      -1.266  -0.764   0.011  0.00  0.00    +0.242 C 
ATOM     11  O   UNL     1      -2.329  -0.173   0.024  0.00  0.00    -0.270 OA
ATOM     12  N   UNL     1      -1.244  -2.111   0.003  0.00  0.00    -0.325 N 
ATOM     13  H   UNL     1      -0.397  -2.583  -0.008  0.00  0.00    +0.145 HD
ATOM     14  H   UNL     1      -2.077  -2.610   0.009  0.00  0.00    +0.145 HD
ENDBRANCH   9  10
ENDBRANCH   1   6
BRANCH   1  15
ATOM     15  N   UNL     1       4.325   2.568   1.555  0.00  0.00    -0.210 N 
ATOM     16  H   UNL     1       4.351   3.467   1.918  0.00  0.00    +0.174 HD
BRANCH  15  17
ATOM     17  C   UNL     1       4.651   1.488   2.357  0.00  0.00    +0.086 A 
ATOM     18  C   UNL     1       5.713   1.370   3.229  0.00  0.00    +0.033 A 
ATOM     19  C   UNL     1       5.857   0.207   3.933  0.00  0.00    +0.025 A 
ATOM     20  C   UNL     1       4.894  -0.770   3.697  0.00  0.00    +0.102 A 
ATOM     21  S   UNL     1       3.841   0.023   2.497  0.00  0.00    -0.066 S 
BRANCH  20  22
ATOM     22  C   UNL     1       4.777  -2.055   4.266  0.00  0.00    +0.393 C 
ATOM     23  O   UNL     1       5.672  -2.471   5.162  0.00  0.00    -0.240 OA
ATOM     24  O   UNL     1       3.773  -2.854   3.907  0.00  0.00    -0.240 OA
ENDBRANCH  20  22
ENDBRANCH  15  17
ENDBRANCH   1  15
TORSDOF 5
