REMARK  Name = ZINC38648615
REMARK  11 active torsions:
REMARK  status: ('A' for Active; 'I' for Inactive)
REMARK    1  A    between atoms: C_1  and  C_2
REMARK    2  A    between atoms: C_2  and  C_3
REMARK    3  A    between atoms: C_3  and  C_4
REMARK    4  A    between atoms: C_4  and  O_5
REMARK    5  A    between atoms: O_5  and  C_6
REMARK    6  A    between atoms: C_9  and  C_15
REMARK    7  A    between atoms: C_11  and  O_12
REMARK    8  A    between atoms: O_12  and  C_13
REMARK    9  A    between atoms: C_13  and  C_14
REMARK   10  A    between atoms: C_22  and  C_39
REMARK   11  A    between atoms: N_30  and  C_31
REMARK                            x       y       z     vdW  Elec       q    Type
REMARK                         _______ _______ _______ _____ _____    ______ ____
ROOT
ATOM      1  C   UNL     1      -3.411  -8.156  -0.009  0.00  0.00    +0.145 C 
ATOM      2  C   UNL     1      -3.163  -8.709   1.356  0.00  0.00    +0.072 A 
ATOM      3  C   UNL     1      -3.833  -8.458   2.637  0.00  0.00    +0.199 A 
ATOM      4  O   UNL     1      -4.873  -7.831   2.734  0.00  0.00    -0.287 OA
ATOM      5  C   UNL     1      -3.123  -9.041   3.803  0.00  0.00    +0.065 A 
ATOM      6  C   UNL     1      -3.520  -8.725   5.102  0.00  0.00    +0.018 A 
ATOM      7  C   UNL     1      -2.853  -9.266   6.166  0.00  0.00    -0.050 A 
ATOM      8  C   UNL     1      -1.784 -10.127   5.955  0.00  0.00    +0.007 A 
ATOM      9  C   UNL     1      -1.380 -10.451   4.680  0.00  0.00    +0.047 A 
ATOM     10  C   UNL     1      -2.046  -9.914   3.578  0.00  0.00    +0.139 A 
ATOM     11  O   UNL     1      -1.639 -10.254   2.334  0.00  0.00    -0.450 OA
ATOM     12  C   UNL     1      -2.112  -9.577   1.270  0.00  0.00    +0.199 A 
ATOM     13  C   UNL     1      -1.651  -9.606  -0.130  0.00  0.00    +0.283 C 
ATOM     14  O   UNL     1      -0.727 -10.278  -0.544  0.00  0.00    -0.267 OA
ATOM     15  N   UNL     1      -2.406  -8.780  -0.885  0.00  0.00    -0.279 N 
ATOM     16  C   UNL     1      -3.279  -8.927   7.571  0.00  0.00    +0.044 C 
ENDROOT
BRANCH  15  17
ATOM     17  C   UNL     1      -2.252  -8.544  -2.323  0.00  0.00    +0.100 C 
ATOM     18  C   UNL     1      -0.844  -7.995  -2.602  0.00  0.00    +0.047 C 
ATOM     19  C   UNL     1      -0.598  -8.052  -4.137  0.00  0.00    +0.168 C 
ATOM     20  S   UNL     1      -1.350  -9.685  -4.539  0.00  0.00    -0.029 S 
ATOM     21  O   UNL     1      -0.342 -10.684  -4.484  0.00  0.00    -0.174 OA
ATOM     22  O   UNL     1      -2.141  -9.553  -5.713  0.00  0.00    -0.174 OA
ATOM     23  C   UNL     1      -2.460  -9.874  -3.086  0.00  0.00    +0.188 C 
ENDBRANCH  15  17
BRANCH   1  27
ATOM     24  C   UNL     1      -2.913  -3.909   0.009  0.00  0.00    +0.162 A 
ATOM     25  C   UNL     1      -1.804  -4.739  -0.000  0.00  0.00    +0.050 A 
ATOM     26  C   UNL     1      -1.968  -6.112  -0.006  0.00  0.00    +0.009 A 
ATOM     27  C   UNL     1      -3.238  -6.659  -0.002  0.00  0.00    -0.019 A 
ATOM     28  C   UNL     1      -4.348  -5.836   0.006  0.00  0.00    +0.055 A 
ATOM     29  C   UNL     1      -4.191  -4.460   0.018  0.00  0.00    +0.162 A 
BRANCH  24  30
ATOM     30  O   UNL     1      -2.753  -2.558   0.015  0.00  0.00    -0.488 OA
BRANCH  30  31
ATOM     31  C   UNL     1      -1.413  -2.063   0.004  0.00  0.00    +0.229 C 
BRANCH  31  32
ATOM     32  C   UNL     1      -1.433  -0.534   0.013  0.00  0.00    +0.041 C 
BRANCH  32  34
ATOM     33  C   UNL     1      -0.019   1.526   0.010  0.00  0.00    +0.004 C 
ATOM     34  C   UNL     1       0.002  -0.004   0.002  0.00  0.00    -0.000 C 
ENDBRANCH  32  34
ENDBRANCH  31  32
ENDBRANCH  30  31
ENDBRANCH  24  30
BRANCH  29  35
ATOM     35  O   UNL     1      -5.282  -3.649   0.033  0.00  0.00    -0.489 OA
BRANCH  35  36
ATOM     36  C   UNL     1      -6.562  -4.284   0.042  0.00  0.00    +0.226 C 
ATOM     37  C   UNL     1      -7.660  -3.219   0.058  0.00  0.00    +0.048 C 
ENDBRANCH  35  36
ENDBRANCH  29  35
ENDBRANCH   1  27
TORSDOF 8
