REMARK  Name = ZINC39682598
REMARK  8 active torsions:
REMARK  status: ('A' for Active; 'I' for Inactive)
REMARK    1  A    between atoms: C_1  and  C_2
REMARK    2  A    between atoms: C_3  and  C_13
REMARK    3  A    between atoms: C_4  and  C_7
REMARK    4  A    between atoms: C_17  and  C_26
REMARK    5  A    between atoms: N_28  and  C_29
REMARK    6  A    between atoms: C_29  and  C_31
REMARK    7  A    between atoms: C_29  and  C_35
REMARK    8  A    between atoms: C_31  and  C_32
REMARK                            x       y       z     vdW  Elec       q    Type
REMARK                         _______ _______ _______ _____ _____    ______ ____
ROOT
ATOM      1  C   UNL     1      -2.056  -1.042   1.089  0.00  0.00    +0.252 C 
ATOM      2  O   UNL     1      -2.690  -1.198   0.063  0.00  0.00    -0.270 OA
ATOM      3  N   UNL     1      -2.669  -0.582   2.197  0.00  0.00    -0.296 N 
ATOM      4  C   UNL     1      -2.053  -0.238   3.500  0.00  0.00    +0.121 C 
ATOM      5  C   UNL     1      -2.800   1.033   3.962  0.00  0.00    +0.100 C 
ATOM      6  C   UNL     1      -4.152   0.981   3.231  0.00  0.00    -0.004 C 
ATOM      7  C   UNL     1      -4.113  -0.301   2.387  0.00  0.00    +0.115 C 
ATOM      8  C   UNL     1      -4.309   2.198   2.324  0.00  0.00    -0.010 C 
ATOM      9  C   UNL     1      -5.684   2.153   1.651  0.00  0.00    -0.082 C 
ATOM     10  N   UNL     1      -6.733   2.144   2.678  0.00  0.00    +0.379 N 
ATOM     11  C   UNL     1      -6.631   0.924   3.488  0.00  0.00    -0.082 C 
ATOM     12  C   UNL     1      -5.296   0.917   4.238  0.00  0.00    -0.010 C 
ATOM     13  H   UNL     1      -6.626   2.951   3.274  0.00  0.00    -0.086 HD
ATOM     14  H   UNL     1      -7.638   2.176   2.233  0.00  0.00    -0.086 HD
ENDROOT
BRANCH   1  17
ATOM     15  C   UNL     1       0.259   0.897   0.282  0.00  0.00    +0.090 C 
ATOM     16  C   UNL     1       0.405  -0.521   0.771  0.00  0.00    +0.147 A 
ATOM     17  C   UNL     1      -0.617  -1.355   1.120  0.00  0.00    +0.106 A 
ATOM     18  C   UNL     1      -0.004  -2.627   1.533  0.00  0.00    +0.126 A 
ATOM     19  N   UNL     1       1.291  -2.482   1.411  0.00  0.00    -0.077 NA
ATOM     20  O   UNL     1       1.556  -1.179   0.933  0.00  0.00    -0.359 OA
BRANCH  18  21
ATOM     21  C   UNL     1      -0.718  -3.841   1.998  0.00  0.00    +0.004 A 
ATOM     22  C   UNL     1      -1.886  -3.721   2.748  0.00  0.00    +0.010 A 
ATOM     23  C   UNL     1      -2.546  -4.854   3.178  0.00  0.00    +0.001 A 
ATOM     24  C   UNL     1      -2.050  -6.107   2.866  0.00  0.00    +0.000 A 
ATOM     25  C   UNL     1      -0.891  -6.232   2.121  0.00  0.00    +0.001 A 
ATOM     26  C   UNL     1      -0.226  -5.106   1.681  0.00  0.00    +0.010 A 
ENDBRANCH  18  21
ENDBRANCH   1  17
BRANCH   5  27
ATOM     27  C   UNL     1      -2.033   2.267   3.563  0.00  0.00    +0.219 C 
ATOM     28  O   UNL     1      -1.426   2.291   2.513  0.00  0.00    -0.275 OA
ATOM     29  N   UNL     1      -2.020   3.344   4.374  0.00  0.00    -0.308 N 
ATOM     30  H   UNL     1      -2.444   3.300   5.245  0.00  0.00    +0.149 HD
BRANCH  29  31
ATOM     31  C   UNL     1      -1.365   4.580   3.939  0.00  0.00    +0.114 C 
BRANCH  31  32
ATOM     32  C   UNL     1       0.122   4.464   4.155  0.00  0.00    -0.027 A 
ATOM     33  C   UNL     1       0.609   3.851   5.295  0.00  0.00    +0.005 A 
ATOM     34  C   UNL     1       1.973   3.744   5.493  0.00  0.00    +0.000 A 
ATOM     35  C   UNL     1       2.850   4.250   4.552  0.00  0.00    +0.000 A 
ATOM     36  C   UNL     1       2.363   4.862   3.412  0.00  0.00    +0.000 A 
ATOM     37  C   UNL     1       0.999   4.965   3.212  0.00  0.00    +0.005 A 
ENDBRANCH  31  32
BRANCH  31  38
ATOM     38  C   UNL     1      -1.907   5.758   4.751  0.00  0.00    +0.152 C 
BRANCH  38  39
ATOM     39  C   UNL     1      -3.368   5.955   4.435  0.00  0.00    +0.358 C 
ATOM     40  O   UNL     1      -3.930   5.202   3.658  0.00  0.00    -0.246 OA
ATOM     41  O   UNL     1      -3.986   6.867   4.956  0.00  0.00    -0.246 OA
ENDBRANCH  38  39
ENDBRANCH  31  38
ENDBRANCH  29  31
ENDBRANCH   5  27
TORSDOF 7
