REMARK  Name = ZINC00906450
REMARK  11 active torsions:
REMARK  status: ('A' for Active; 'I' for Inactive)
REMARK    1  A    between atoms: C_1  and  O_2
REMARK    2  A    between atoms: O_2  and  C_3
REMARK    3  A    between atoms: C_6  and  C_9
REMARK    4  A    between atoms: N_12  and  C_14
REMARK    5  A    between atoms: C_14  and  C_15
REMARK    6  A    between atoms: N_17  and  C_18
REMARK    7  A    between atoms: N_17  and  C_26
REMARK    8  A    between atoms: C_18  and  C_19
REMARK    9  A    between atoms: C_26  and  C_28
REMARK   10  A    between atoms: C_26  and  C_33
REMARK   11  A    between atoms: N_35  and  C_36
REMARK                            x       y       z     vdW  Elec       q    Type
REMARK                         _______ _______ _______ _____ _____    ______ ____
ROOT
ATOM      1  C   UNL     1      -0.511   0.532  -0.309  0.00  0.00    +0.240 C 
ATOM      2  O   UNL     1       0.263  -0.394  -0.187  0.00  0.00    -0.273 OA
ATOM      3  N   UNL     1      -0.134   1.777   0.041  0.00  0.00    -0.280 N 
ENDROOT
BRANCH   1   4
ATOM      4  C   UNL     1      -1.896   0.289  -0.853  0.00  0.00    +0.264 C 
BRANCH   4   8
ATOM      5  C   UNL     1      -1.938  -2.788  -2.578  0.00  0.00    +0.205 A 
ATOM      6  N   UNL     1      -2.345  -3.160  -1.357  0.00  0.00    -0.108 NA
ATOM      7  N   UNL     1      -2.370  -2.100  -0.622  0.00  0.00    -0.045 NA
ATOM      8  N   UNL     1      -1.998  -1.092  -1.331  0.00  0.00    -0.154 N 
ATOM      9  N   UNL     1      -1.734  -1.487  -2.529  0.00  0.00    -0.130 NA
BRANCH   5  13
ATOM     10  C   UNL     1      -1.418  -5.315  -5.962  0.00  0.00    +0.120 A 
ATOM     11  C   UNL     1      -1.849  -5.851  -4.756  0.00  0.00    +0.046 A 
ATOM     12  C   UNL     1      -2.018  -5.035  -3.657  0.00  0.00    +0.015 A 
ATOM     13  C   UNL     1      -1.756  -3.670  -3.759  0.00  0.00    +0.023 A 
ATOM     14  C   UNL     1      -1.329  -3.133  -4.972  0.00  0.00    +0.015 A 
ATOM     15  C   UNL     1      -1.157  -3.955  -6.066  0.00  0.00    +0.046 A 
BRANCH  10  17
ATOM     16  C   UNL     1      -0.806  -5.504  -8.251  0.00  0.00    +0.277 C 
ATOM     17  O   UNL     1      -1.252  -6.122  -7.042  0.00  0.00    -0.495 OA
ENDBRANCH  10  17
ENDBRANCH   5  13
ENDBRANCH   4   8
ENDBRANCH   1   4
BRANCH   3  18
ATOM     18  C   UNL     1      -1.052   2.902  -0.150  0.00  0.00    +0.144 C 
BRANCH  18  19
ATOM     19  C   UNL     1      -1.774   3.185   1.142  0.00  0.00    -0.030 A 
ATOM     20  C   UNL     1      -2.912   2.471   1.469  0.00  0.00    +0.008 A 
ATOM     21  C   UNL     1      -3.573   2.727   2.655  0.00  0.00    +0.038 A 
ATOM     22  C   UNL     1      -3.100   3.705   3.513  0.00  0.00    +0.123 A 
ATOM     23  C   UNL     1      -1.964   4.424   3.183  0.00  0.00    +0.038 A 
ATOM     24  C   UNL     1      -1.302   4.163   1.998  0.00  0.00    +0.008 A 
ATOM     25  F   UNL     1      -3.748   3.959   4.671  0.00  0.00    -0.205 F 
ENDBRANCH  18  19
ENDBRANCH   3  18
BRANCH   3  26
ATOM     26  C   UNL     1       1.198   2.007   0.606  0.00  0.00    +0.199 C 
BRANCH  26  27
ATOM     27  C   UNL     1       1.925   3.034  -0.222  0.00  0.00    +0.019 A 
ATOM     28  C   UNL     1       3.166   2.971  -0.764  0.00  0.00    +0.013 A 
ATOM     29  C   UNL     1       3.632   4.045  -1.498  0.00  0.00    +0.008 A 
ATOM     30  C   UNL     1       2.839   5.134  -1.647  0.00  0.00    +0.045 A 
ATOM     31  S   UNL     1       1.379   4.654  -0.738  0.00  0.00    -0.099 S 
ENDBRANCH  26  27
BRANCH  26  32
ATOM     32  C   UNL     1       1.064   2.506   2.022  0.00  0.00    +0.239 C 
ATOM     33  O   UNL     1       0.049   2.285   2.649  0.00  0.00    -0.273 OA
ATOM     34  N   UNL     1       2.071   3.197   2.591  0.00  0.00    -0.311 N 
ATOM     35  H   UNL     1       2.882   3.374   2.090  0.00  0.00    +0.149 HD
BRANCH  34  36
ATOM     36  C   UNL     1       1.940   3.683   3.967  0.00  0.00    +0.073 C 
ATOM     37  C   UNL     1       1.271   5.073   3.976  0.00  0.00    +0.022 C 
ATOM     38  C   UNL     1       1.996   5.836   5.112  0.00  0.00    +0.002 C 
ATOM     39  C   UNL     1       3.461   5.354   4.967  0.00  0.00    +0.002 C 
ATOM     40  C   UNL     1       3.333   3.861   4.598  0.00  0.00    +0.022 C 
ENDBRANCH  34  36
ENDBRANCH  26  32
ENDBRANCH   3  26
TORSDOF 10
