REMARK  Name = ZINC19946775
REMARK  11 active torsions:
REMARK  status: ('A' for Active; 'I' for Inactive)
REMARK    1  A    between atoms: C_1  and  C_2
REMARK    2  A    between atoms: C_6  and  N_9
REMARK    3  A    between atoms: C_7  and  C_8
REMARK    4  A    between atoms: C_10  and  C_12
REMARK    5  A    between atoms: C_12  and  S_13
REMARK    6  A    between atoms: S_13  and  C_14
REMARK    7  A    between atoms: C_15  and  C_37
REMARK    8  A    between atoms: C_16  and  C_31
REMARK    9  A    between atoms: C_18  and  C_22
REMARK   10  A    between atoms: C_19  and  C_21
REMARK   11  A    between atoms: N_24  and  C_25
REMARK                            x       y       z     vdW  Elec       q    Type
REMARK                         _______ _______ _______ _____ _____    ______ ____
ROOT
ATOM      1  C   UNL     1      -1.804  10.048   0.521  0.00  0.00    +0.080 C 
ATOM      2  C   UNL     1      -0.534   9.565   0.459  0.00  0.00    +0.069 C 
ATOM      3  C   UNL     1      -0.259   8.143   0.068  0.00  0.00    +0.098 C 
ATOM      4  C   UNL     1      -1.508   7.313   0.149  0.00  0.00    +0.044 C 
ATOM      5  C   UNL     1      -2.725   7.874   0.222  0.00  0.00    +0.014 C 
ATOM      6  N   UNL     1      -2.875   9.234   0.227  0.00  0.00    -0.312 N 
ATOM      7  C   UNL     1      -3.945   6.993   0.297  0.00  0.00    +0.061 C 
ATOM      8  H   UNL     1      -3.855   9.678  -0.004  0.00  0.00    +0.152 HD
ENDROOT
BRANCH   3   9
ATOM      9  C   UNL     1       0.264   8.115  -1.345  0.00  0.00    -0.035 A 
ATOM     10  C   UNL     1      -0.524   8.578  -2.383  0.00  0.00    +0.004 A 
ATOM     11  C   UNL     1      -0.043   8.557  -3.679  0.00  0.00    +0.000 A 
ATOM     12  C   UNL     1       1.222   8.063  -3.938  0.00  0.00    +0.000 A 
ATOM     13  C   UNL     1       2.008   7.595  -2.901  0.00  0.00    +0.000 A 
ATOM     14  C   UNL     1       1.528   7.620  -1.605  0.00  0.00    +0.004 A 
ENDBRANCH   3   9
BRANCH   4  15
ATOM     15  C   UNL     1      -1.398   5.902   0.155  0.00  0.00    +0.247 C 
ATOM     16  O   UNL     1      -1.184   5.312   1.199  0.00  0.00    -0.270 OA
ATOM     17  N   UNL     1      -1.531   5.210  -0.994  0.00  0.00    -0.282 N 
ATOM     18  H   UNL     1      -1.628   5.746  -1.950  0.00  0.00    +0.155 HD
BRANCH  17  19
ATOM     19  C   UNL     1      -1.547   3.812  -0.972  0.00  0.00    +0.034 A 
ATOM     20  C   UNL     1      -1.145   3.093  -2.090  0.00  0.00    +0.023 A 
ATOM     21  C   UNL     1      -1.161   1.713  -2.064  0.00  0.00    +0.002 A 
ATOM     22  C   UNL     1      -1.577   1.046  -0.926  0.00  0.00    +0.000 A 
ATOM     23  C   UNL     1      -1.983   1.758   0.187  0.00  0.00    +0.002 A 
ATOM     24  C   UNL     1      -1.964   3.139   0.170  0.00  0.00    +0.023 A 
ENDBRANCH  17  19
ENDBRANCH   4  15
BRANCH   2  25
ATOM     25  C   UNL     1       0.562  10.430   0.778  0.00  0.00    +0.098 C 
ATOM     26  N   UNL     1       1.432  11.115   1.032  0.00  0.00    -0.191 NA
ENDBRANCH   2  25
BRANCH   1  27
ATOM     27  S   UNL     1      -2.080  11.726   0.981  0.00  0.00    -0.100 S 
BRANCH  27  28
ATOM     28  C   UNL     1      -3.887  11.783   0.890  0.00  0.00    +0.171 C 
BRANCH  28  30
ATOM     29  N   UNL     1      -5.683  13.444   1.255  0.00  0.00    -0.285 N 
ATOM     30  C   UNL     1      -4.365  13.166   1.254  0.00  0.00    +0.227 C 
ATOM     31  O   UNL     1      -3.562  14.027   1.546  0.00  0.00    -0.275 OA
ATOM     32  H   UNL     1      -6.414  12.647   1.057  0.00  0.00    +0.155 HD
BRANCH  29  38
ATOM     33  C   UNL     1      -9.114  16.929   0.745  0.00  0.00    +0.044 C 
ATOM     34  C   UNL     1      -7.782  16.464   1.274  0.00  0.00    -0.046 A 
ATOM     35  C   UNL     1      -6.991  17.327   2.010  0.00  0.00    +0.004 A 
ATOM     36  C   UNL     1      -5.768  16.905   2.496  0.00  0.00    +0.002 A 
ATOM     37  C   UNL     1      -5.334  15.616   2.253  0.00  0.00    +0.023 A 
ATOM     38  C   UNL     1      -6.122  14.748   1.509  0.00  0.00    +0.037 A 
ATOM     39  C   UNL     1      -7.351  15.176   1.022  0.00  0.00    -0.026 A 
ATOM     40  C   UNL     1      -8.213  14.236   0.220  0.00  0.00    +0.046 C 
ENDBRANCH  29  38
ENDBRANCH  28  30
ENDBRANCH  27  28
ENDBRANCH   1  27
TORSDOF 8
