REMARK  Name = ZINC39688483
REMARK  6 active torsions:
REMARK  status: ('A' for Active; 'I' for Inactive)
REMARK    1  A    between atoms: C_1  and  C_2
REMARK    2  A    between atoms: C_2  and  C_4
REMARK    3  A    between atoms: C_2  and  N_12
REMARK    4  A    between atoms: C_4  and  C_5
REMARK    5  A    between atoms: C_13  and  C_15
REMARK    6  A    between atoms: C_26  and  C_28
REMARK                            x       y       z     vdW  Elec       q    Type
REMARK                         _______ _______ _______ _____ _____    ______ ____
ROOT
ATOM      1  C   UNL     1       2.788  -0.444   2.246  0.00  0.00    +0.100 C 
ATOM      2  C   UNL     1       2.651   0.297   3.595  0.00  0.00    +0.121 C 
ATOM      3  N   UNL     1       3.983   0.164   4.232  0.00  0.00    -0.296 N 
ATOM      4  C   UNL     1       4.944   0.327   3.115  0.00  0.00    +0.115 C 
ATOM      5  C   UNL     1       4.294  -0.422   1.934  0.00  0.00    -0.004 C 
ATOM      6  C   UNL     1       4.837  -1.845   1.849  0.00  0.00    -0.010 C 
ATOM      7  C   UNL     1       6.323  -1.798   1.482  0.00  0.00    -0.082 C 
ATOM      8  N   UNL     1       6.489  -1.112   0.195  0.00  0.00    +0.379 N 
ATOM      9  C   UNL     1       6.050   0.284   0.312  0.00  0.00    -0.082 C 
ATOM     10  C   UNL     1       4.553   0.325   0.630  0.00  0.00    -0.010 C 
ATOM     11  C   UNL     1       4.258  -0.056   5.533  0.00  0.00    +0.247 C 
ATOM     12  O   UNL     1       3.357  -0.290   6.314  0.00  0.00    -0.270 OA
ATOM     13  H   UNL     1       7.462  -1.136  -0.074  0.00  0.00    -0.086 HD
ATOM     14  H   UNL     1       5.937  -1.579  -0.508  0.00  0.00    -0.086 HD
ENDROOT
BRANCH  11  15
ATOM     15  C   UNL     1       5.657  -0.011   6.010  0.00  0.00    +0.040 A 
ATOM     16  C   UNL     1       6.627   0.669   5.274  0.00  0.00    +0.033 A 
ATOM     17  C   UNL     1       7.932   0.707   5.725  0.00  0.00    +0.043 A 
ATOM     18  C   UNL     1       8.278   0.072   6.905  0.00  0.00    +0.040 A 
ATOM     19  C   UNL     1       7.319  -0.604   7.640  0.00  0.00    +0.043 A 
ATOM     20  C   UNL     1       6.010  -0.644   7.203  0.00  0.00    +0.033 A 
ATOM     21 CL   UNL     1       7.763  -1.398   9.119  0.00  0.00    -0.083 Cl
ATOM     22 CL   UNL     1       9.141   1.552   4.809  0.00  0.00    -0.083 Cl
ENDBRANCH  11  15
BRANCH   1  24
ATOM     23  N   UNL     1       1.432  -0.419   0.178  0.00  0.00    -0.312 N 
ATOM     24  C   UNL     1       2.019   0.278   1.170  0.00  0.00    +0.218 C 
ATOM     25  O   UNL     1       1.928   1.487   1.198  0.00  0.00    -0.275 OA
ATOM     26  H   UNL     1       1.504  -1.387   0.156  0.00  0.00    +0.149 HD
BRANCH  23  28
ATOM     27  C   UNL     1      -0.749   0.529  -0.392  0.00  0.00    +0.028 C 
ATOM     28  C   UNL     1       0.684   0.283  -0.868  0.00  0.00    +0.074 C 
BRANCH  28  29
ATOM     29  C   UNL     1       0.660  -0.570  -2.138  0.00  0.00    +0.057 C 
BRANCH  29  30
ATOM     30  C   UNL     1       2.061  -0.711  -2.675  0.00  0.00    -0.045 A 
ATOM     31  C   UNL     1       2.550   0.216  -3.578  0.00  0.00    +0.006 A 
ATOM     32  C   UNL     1       3.835   0.088  -4.071  0.00  0.00    +0.038 A 
ATOM     33  C   UNL     1       4.632  -0.967  -3.661  0.00  0.00    +0.123 A 
ATOM     34  C   UNL     1       4.140  -1.894  -2.758  0.00  0.00    +0.038 A 
ATOM     35  C   UNL     1       2.857  -1.762  -2.262  0.00  0.00    +0.006 A 
ATOM     36  F   UNL     1       5.887  -1.093  -4.143  0.00  0.00    -0.205 F 
ENDBRANCH  29  30
ENDBRANCH  28  29
ENDBRANCH  23  28
ENDBRANCH   1  24
TORSDOF 5
