REMARK  Name = ZINC24850976
REMARK  9 active torsions:
REMARK  status: ('A' for Active; 'I' for Inactive)
REMARK    1  A    between atoms: C_1  and  C_2
REMARK    2  A    between atoms: C_2  and  C_3
REMARK    3  A    between atoms: C_3  and  C_4
REMARK    4  A    between atoms: C_4  and  N_5
REMARK    5  A    between atoms: C_11  and  S_12
REMARK    6  A    between atoms: S_12  and  C_13
REMARK    7  A    between atoms: C_13  and  C_14
REMARK    8  A    between atoms: C_16  and  O_17
REMARK    9  A    between atoms: C_26  and  C_28
REMARK                            x       y       z     vdW  Elec       q    Type
REMARK                         _______ _______ _______ _____ _____    ______ ____
ROOT
ATOM      1  C   UNL     1      -4.306  -3.017  -5.280  0.00  0.00    -0.020 A 
ATOM      2  C   UNL     1      -4.120  -1.777  -5.858  0.00  0.00    +0.092 A 
ATOM      3  C   UNL     1      -3.660  -1.684  -7.163  0.00  0.00    +0.285 A 
ATOM      4  O   UNL     1      -3.388  -2.777  -7.885  0.00  0.00    -0.425 OA
ATOM      5  C   UNL     1      -3.552  -4.013  -7.370  0.00  0.00    +0.141 A 
ATOM      6  C   UNL     1      -4.013  -4.167  -6.043  0.00  0.00    +0.022 A 
ATOM      7  C   UNL     1      -4.180  -5.453  -5.501  0.00  0.00    +0.013 A 
ATOM      8  C   UNL     1      -3.893  -6.549  -6.252  0.00  0.00    +0.024 A 
ATOM      9  C   UNL     1      -3.429  -6.405  -7.571  0.00  0.00    +0.037 A 
ATOM     10  C   UNL     1      -3.268  -5.135  -8.128  0.00  0.00    +0.070 A 
ATOM     11  N   UNL     1      -3.144  -7.510  -8.313  0.00  0.00    -0.286 N 
ATOM     12  C   UNL     1      -2.423  -7.399  -9.411  0.00  0.00    +0.214 C 
ATOM     13  O   UNL     1      -1.909  -6.332  -9.697  0.00  0.00    -0.276 OA
ATOM     14  C   UNL     1      -2.234  -8.592 -10.312  0.00  0.00    +0.109 C 
ATOM     15  H   UNL     1      -3.473  -8.379  -8.034  0.00  0.00    +0.155 HD
ENDROOT
BRANCH   3  16
ATOM     16  O   UNL     1      -3.482  -0.469  -7.715  0.00  0.00    -0.480 OA
ATOM     17  H   UNL     1      -3.160  -0.494  -8.627  0.00  0.00    +0.295 HD
ENDBRANCH   3  16
BRANCH   1  18
ATOM     18  C   UNL     1      -4.804  -3.140  -3.863  0.00  0.00    +0.113 C 
BRANCH  18  19
ATOM     19  S   UNL     1      -3.467  -2.717  -2.713  0.00  0.00    -0.081 S 
BRANCH  19  26
ATOM     20  N   UNL     1      -3.567  -2.693   0.084  0.00  0.00    -0.271 N 
ATOM     21  C   UNL     1      -4.449  -2.932   1.074  0.00  0.00    +0.345 A 
ATOM     22  O   UNL     1      -4.234  -2.838   2.269  0.00  0.00    -0.245 OA
ATOM     23  N   UNL     1      -5.616  -3.295   0.501  0.00  0.00    -0.226 N 
ATOM     24  H   UNL     1      -6.435  -3.528   0.964  0.00  0.00    +0.194 HD
ATOM     25  N   UNL     1      -5.426  -3.273  -0.888  0.00  0.00    -0.145 NA
ATOM     26  C   UNL     1      -4.199  -2.906  -1.121  0.00  0.00    +0.192 A 
BRANCH  20  27
ATOM     27  C   UNL     1      -2.174  -2.273   0.259  0.00  0.00    +0.129 C 
BRANCH  27  28
ATOM     28  C   UNL     1      -2.103  -0.745   0.293  0.00  0.00    +0.021 C 
BRANCH  28  30
ATOM     29  C   UNL     1      -0.578   1.222   0.511  0.00  0.00    +0.004 C 
ATOM     30  C   UNL     1      -0.649  -0.306   0.477  0.00  0.00    -0.002 C 
ENDBRANCH  28  30
ENDBRANCH  27  28
ENDBRANCH  20  27
ENDBRANCH  19  26
ENDBRANCH  18  19
ENDBRANCH   1  18
TORSDOF 7
