REMARK  Name = ZINC39677713
REMARK  5 active torsions:
REMARK  status: ('A' for Active; 'I' for Inactive)
REMARK    1  A    between atoms: C_9  and  C_12
REMARK    2  A    between atoms: C_16  and  C_25
REMARK    3  A    between atoms: N_27  and  C_28
REMARK    4  A    between atoms: C_28  and  C_29
REMARK    5  A    between atoms: C_32  and  C_34
REMARK                            x       y       z     vdW  Elec       q    Type
REMARK                         _______ _______ _______ _____ _____    ______ ____
ROOT
ATOM      1  C   UNL     1       4.998  -2.664  -0.160  0.00  0.00    +0.260 C 
ATOM      2  O   UNL     1       5.809  -2.094  -0.859  0.00  0.00    -0.271 OA
ATOM      3  N   UNL     1       5.249  -3.912   0.283  0.00  0.00    -0.297 N 
ATOM      4  C   UNL     1       4.344  -4.804   1.045  0.00  0.00    +0.121 C 
ATOM      5  C   UNL     1       4.591  -6.209   0.453  0.00  0.00    +0.100 C 
ATOM      6  C   UNL     1       6.002  -6.137  -0.154  0.00  0.00    -0.004 C 
ATOM      7  C   UNL     1       6.490  -4.705   0.111  0.00  0.00    +0.115 C 
ATOM      8  C   UNL     1       6.923  -7.144   0.529  0.00  0.00    -0.010 C 
ATOM      9  C   UNL     1       8.304  -7.094  -0.130  0.00  0.00    -0.082 C 
ATOM     10  N   UNL     1       8.178  -7.407  -1.559  0.00  0.00    +0.379 N 
ATOM     11  C   UNL     1       7.367  -6.381  -2.226  0.00  0.00    -0.082 C 
ATOM     12  C   UNL     1       5.946  -6.401  -1.655  0.00  0.00    -0.010 C 
ATOM     13  H   UNL     1       9.096  -7.433  -1.978  0.00  0.00    -0.086 HD
ATOM     14  H   UNL     1       7.736  -8.307  -1.667  0.00  0.00    -0.086 HD
ENDROOT
BRANCH   1  23
ATOM     15  C   UNL     1       0.268   1.569  -0.118  0.00  0.00    +0.004 A 
ATOM     16  C   UNL     1       1.484   2.224  -0.060  0.00  0.00    +0.004 A 
ATOM     17  C   UNL     1       2.662   1.501  -0.056  0.00  0.00    +0.049 A 
ATOM     18  C   UNL     1       2.626   0.115  -0.110  0.00  0.00    +0.163 A 
ATOM     19  C   UNL     1       1.403  -0.543  -0.166  0.00  0.00    +0.162 A 
ATOM     20  C   UNL     1       0.226   0.189  -0.171  0.00  0.00    +0.049 A 
ATOM     21  O   UNL     1       1.345  -1.902  -0.212  0.00  0.00    -0.484 OA
ATOM     22  C   UNL     1       2.548  -2.586  -0.581  0.00  0.00    +0.283 C 
ATOM     23  C   UNL     1       3.711  -1.976   0.214  0.00  0.00    +0.296 C 
ATOM     24  O   UNL     1       3.794  -0.584  -0.110  0.00  0.00    -0.473 OA
ENDBRANCH   1  23
BRANCH   5  25
ATOM     25  C   UNL     1       3.573  -6.514  -0.616  0.00  0.00    +0.218 C 
ATOM     26  O   UNL     1       3.136  -5.621  -1.310  0.00  0.00    -0.275 OA
ATOM     27  N   UNL     1       3.148  -7.780  -0.801  0.00  0.00    -0.310 N 
ATOM     28  H   UNL     1       3.497  -8.495  -0.245  0.00  0.00    +0.149 HD
BRANCH  27  29
ATOM     29  C   UNL     1       2.159  -8.076  -1.840  0.00  0.00    +0.146 C 
BRANCH  29  30
ATOM     30  C   UNL     1       1.856  -9.553  -1.839  0.00  0.00    +0.007 A 
ATOM     31  C   UNL     1       0.903 -10.229  -1.146  0.00  0.00    +0.013 A 
ATOM     32  C   UNL     1       0.804 -11.593  -1.299  0.00  0.00    +0.018 A 
ATOM     33  C   UNL     1       1.674 -12.226  -2.147  0.00  0.00    +0.038 A 
ATOM     34  S   UNL     1       2.654 -10.862  -2.753  0.00  0.00    -0.090 S 
BRANCH  33  35
ATOM     35  C   UNL     1       1.772 -13.662  -2.478  0.00  0.00    +0.078 A 
ATOM     36  C   UNL     1       2.748 -14.101  -3.375  0.00  0.00    +0.029 A 
ATOM     37  C   UNL     1       2.826 -15.449  -3.674  0.00  0.00    +0.004 A 
ATOM     38  C   UNL     1       1.927 -16.317  -3.069  0.00  0.00    +0.020 A 
ATOM     39  C   UNL     1       0.986 -15.815  -2.190  0.00  0.00    +0.111 A 
ATOM     40  N   UNL     1       0.934 -14.527  -1.916  0.00  0.00    -0.254 NA
ENDBRANCH  33  35
ENDBRANCH  29  30
ENDBRANCH  27  29
ENDBRANCH   5  25
TORSDOF 5
