REMARK  Name = ZINC04237021
REMARK  13 active torsions:
REMARK  status: ('A' for Active; 'I' for Inactive)
REMARK    1  A    between atoms: C_1  and  C_2
REMARK    2  A    between atoms: C_2  and  C_4
REMARK    3  A    between atoms: C_2  and  N_10
REMARK    4  A    between atoms: C_11  and  C_13
REMARK    5  A    between atoms: C_13  and  C_14
REMARK    6  A    between atoms: C_22  and  O_24
REMARK    7  A    between atoms: O_24  and  C_25
REMARK    8  A    between atoms: C_25  and  C_26
REMARK    9  A    between atoms: C_31  and  C_41
REMARK   10  A    between atoms: C_34  and  O_40
REMARK   11  A    between atoms: C_36  and  C_37
REMARK   12  A    between atoms: C_36  and  C_38
REMARK   13  A    between atoms: C_38  and  O_39
REMARK                            x       y       z     vdW  Elec       q    Type
REMARK                         _______ _______ _______ _____ _____    ______ ____
ROOT
ATOM      1  C   UNL     1      -1.317   1.419  -1.197  0.00  0.00    +0.054 C 
ATOM      2  C   UNL     1      -2.650   0.728  -1.441  0.00  0.00    +0.058 A 
ATOM      3  C   UNL     1      -3.001   0.349  -2.697  0.00  0.00    +0.015 A 
ATOM      4  S   UNL     1      -4.595  -0.386  -2.451  0.00  0.00    -0.057 S 
ATOM      5  C   UNL     1      -4.679  -0.142  -0.732  0.00  0.00    +0.167 A 
ATOM      6  N   UNL     1      -3.533   0.457  -0.482  0.00  0.00    -0.229 NA
ATOM      7  N   UNL     1      -5.694  -0.489   0.152  0.00  0.00    -0.230 N 
ATOM      8  C   UNL     1      -6.804  -1.104  -0.304  0.00  0.00    +0.406 C 
ATOM      9  O   UNL     1      -6.916  -1.355  -1.488  0.00  0.00    -0.226 OA
ATOM     10  C   UNL     1      -2.219   0.520  -3.951  0.00  0.00    +0.049 C 
ATOM     11  C   UNL     1      -1.077   1.524  -3.697  0.00  0.00    +0.011 C 
ATOM     12  C   UNL     1      -0.380   1.161  -2.384  0.00  0.00    -0.019 C 
ATOM     13  C   UNL     1       0.861   2.039  -2.187  0.00  0.00    +0.010 C 
ATOM     14  C   UNL     1       1.823   1.871  -3.361  0.00  0.00    +0.032 C 
ATOM     15  C   UNL     1       1.112   2.306  -4.646  0.00  0.00    +0.123 C 
ATOM     16  C   UNL     1      -0.098   1.402  -4.868  0.00  0.00    +0.021 C 
ATOM     17  C   UNL     1      -0.803   1.808  -6.163  0.00  0.00    +0.016 C 
ATOM     18  C   UNL     1       0.024  -0.315  -2.408  0.00  0.00    +0.012 C 
ATOM     19  H   UNL     1      -5.604  -0.289   1.097  0.00  0.00    +0.160 HD
ENDROOT
BRANCH  15  20
ATOM     20  O   UNL     1       2.008   2.188  -5.753  0.00  0.00    -0.391 OA
ATOM     21  H   UNL     1       2.805   2.729  -5.673  0.00  0.00    +0.210 HD
ENDBRANCH  15  20
BRANCH   1  22
ATOM     22  C   UNL     1      -0.684   0.867   0.082  0.00  0.00    +0.106 C 
BRANCH  22  24
ATOM     23  N   UNL     1      -1.138   0.915   2.513  0.00  0.00    -0.309 N 
ATOM     24  C   UNL     1      -1.508   1.288   1.272  0.00  0.00    +0.214 C 
ATOM     25  O   UNL     1      -2.503   1.963   1.113  0.00  0.00    -0.276 OA
ATOM     26  H   UNL     1      -0.342   0.375   2.640  0.00  0.00    +0.149 HD
BRANCH  23  28
ATOM     27  C   UNL     1      -1.506   2.721   4.120  0.00  0.00    +0.033 C 
ATOM     28  C   UNL     1      -1.938   1.324   3.670  0.00  0.00    +0.100 C 
BRANCH  28  29
ATOM     29  C   UNL     1      -1.729   0.346   4.797  0.00  0.00    -0.027 A 
ATOM     30  C   UNL     1      -0.468  -0.167   5.042  0.00  0.00    +0.005 A 
ATOM     31  C   UNL     1      -0.275  -1.060   6.079  0.00  0.00    +0.000 A 
ATOM     32  C   UNL     1      -1.345  -1.449   6.864  0.00  0.00    +0.000 A 
ATOM     33  C   UNL     1      -2.606  -0.942   6.615  0.00  0.00    +0.000 A 
ATOM     34  C   UNL     1      -2.798  -0.044   5.582  0.00  0.00    +0.005 A 
ENDBRANCH  28  29
ENDBRANCH  23  28
ENDBRANCH  22  24
ENDBRANCH   1  22
BRANCH   8  35
ATOM     35  O   UNL     1      -7.787  -1.440   0.552  0.00  0.00    -0.446 OA
BRANCH  35  36
ATOM     36  C   UNL     1      -8.953  -2.099  -0.009  0.00  0.00    +0.261 C 
BRANCH  36  37
ATOM     37  C   UNL     1      -9.940  -2.397   1.090  0.00  0.00    +0.006 C 
ATOM     38  C   UNL     1     -11.213  -2.143   0.913  0.00  0.00    +0.007 C 
ENDBRANCH  36  37
ENDBRANCH  35  36
ENDBRANCH   8  35
BRANCH  16  39
ATOM     39  C   UNL     1       0.372  -0.050  -4.985  0.00  0.00    +0.165 C 
BRANCH  39  40
ATOM     40  O   UNL     1       1.157  -0.202  -6.170  0.00  0.00    -0.394 OA
ATOM     41  H   UNL     1       1.489  -1.099  -6.309  0.00  0.00    +0.209 HD
ENDBRANCH  39  40
ENDBRANCH  16  39
TORSDOF 10
