REMARK  Name = ZINC09518371
REMARK  6 active torsions:
REMARK  status: ('A' for Active; 'I' for Inactive)
REMARK    1  A    between atoms: C_7  and  N_24
REMARK    2  A    between atoms: C_8  and  C_10
REMARK    3  A    between atoms: N_12  and  C_13
REMARK    4  A    between atoms: C_16  and  O_19
REMARK    5  A    between atoms: O_19  and  C_20
REMARK    6  A    between atoms: C_25  and  C_27
REMARK                            x       y       z     vdW  Elec       q    Type
REMARK                         _______ _______ _______ _____ _____    ______ ____
ROOT
ATOM      1  C   UNL     1      -0.348  10.014   0.686  0.00  0.00    +0.001 A 
ATOM      2  C   UNL     1       0.753  10.854   0.589  0.00  0.00    +0.004 A 
ATOM      3  C   UNL     1       1.983  10.362   0.211  0.00  0.00    +0.047 A 
ATOM      4  C   UNL     1       2.128   9.010  -0.078  0.00  0.00    +0.138 A 
ATOM      5  C   UNL     1       1.009   8.165   0.016  0.00  0.00    +0.042 A 
ATOM      6  C   UNL     1      -0.228   8.682   0.406  0.00  0.00    +0.013 A 
ATOM      7  C   UNL     1       1.488   6.825  -0.342  0.00  0.00    +0.093 A 
ATOM      8  C   UNL     1       2.820   6.966  -0.624  0.00  0.00    +0.212 A 
ATOM      9  O   UNL     1       3.180   8.259  -0.463  0.00  0.00    -0.448 OA
ENDROOT
BRANCH   8  10
ATOM     10  C   UNL     1       3.688   5.918  -1.023  0.00  0.00    +0.285 C 
ATOM     11  O   UNL     1       3.237   4.814  -1.267  0.00  0.00    -0.266 OA
ATOM     12  N   UNL     1       5.012   6.144  -1.131  0.00  0.00    -0.279 N 
ATOM     13  H   UNL     1       5.362   7.041  -1.012  0.00  0.00    +0.155 HD
BRANCH  12  14
ATOM     14  C   UNL     1       5.883   5.085  -1.415  0.00  0.00    +0.034 A 
ATOM     15  C   UNL     1       5.610   3.813  -0.929  0.00  0.00    +0.027 A 
ATOM     16  C   UNL     1       6.466   2.768  -1.214  0.00  0.00    +0.048 A 
ATOM     17  C   UNL     1       7.604   2.990  -1.976  0.00  0.00    +0.130 A 
ATOM     18  C   UNL     1       7.880   4.262  -2.457  0.00  0.00    +0.048 A 
ATOM     19  C   UNL     1       7.021   5.307  -2.178  0.00  0.00    +0.027 A 
BRANCH  17  20
ATOM     20  O   UNL     1       8.450   1.962  -2.252  0.00  0.00    -0.406 OA
BRANCH  20  21
ATOM     21  C   UNL     1       8.104   0.679  -1.724  0.00  0.00    +0.575 C 
ATOM     22  F   UNL     1       6.859   0.287  -2.228  0.00  0.00    -0.133 F 
ATOM     23  F   UNL     1       9.075  -0.256  -2.100  0.00  0.00    -0.133 F 
ATOM     24  F   UNL     1       8.042   0.750  -0.328  0.00  0.00    -0.133 F 
ENDBRANCH  20  21
ENDBRANCH  17  20
ENDBRANCH  12  14
ENDBRANCH   8  10
BRANCH   7  25
ATOM     25  N   UNL     1       0.742   5.654  -0.391  0.00  0.00    -0.275 N 
ATOM     26  C   UNL     1      -0.346   5.516   0.392  0.00  0.00    +0.284 C 
ATOM     27  O   UNL     1      -0.635   6.386   1.192  0.00  0.00    -0.266 OA
ATOM     28  H   UNL     1       1.004   4.937  -0.988  0.00  0.00    +0.155 HD
BRANCH  26  29
ATOM     29  C   UNL     1      -1.182   4.318   0.279  0.00  0.00    +0.191 A 
ATOM     30  C   UNL     1      -2.307   4.052   1.008  0.00  0.00    +0.056 A 
ATOM     31  C   UNL     1      -2.783   2.806   0.575  0.00  0.00    +0.058 A 
ATOM     32  C   UNL     1      -1.936   2.367  -0.384  0.00  0.00    +0.171 A 
ATOM     33  O   UNL     1      -0.976   3.284  -0.563  0.00  0.00    -0.444 OA
ATOM     34 BR   UNL     1      -2.086   0.731  -1.321  0.00  0.00    -0.008 Br
ENDBRANCH  26  29
ENDBRANCH   7  25
TORSDOF 6
