REMARK  Name = ZINC41086295
REMARK  6 active torsions:
REMARK  status: ('A' for Active; 'I' for Inactive)
REMARK    1  A    between atoms: C_1  and  C_2
REMARK    2  A    between atoms: C_5  and  N_9
REMARK    3  A    between atoms: C_16  and  S_18
REMARK    4  A    between atoms: S_18  and  C_19
REMARK    5  A    between atoms: C_19  and  C_20
REMARK    6  A    between atoms: C_26  and  C_31
REMARK                            x       y       z     vdW  Elec       q    Type
REMARK                         _______ _______ _______ _____ _____    ______ ____
ROOT
ATOM      1  N   UNL     1       0.059  -4.171  -0.023  0.00  0.00    -0.268 N 
ATOM      2  C   UNL     1      -0.040  -4.839  -1.190  0.00  0.00    +0.310 C 
ATOM      3  O   UNL     1      -0.054  -4.229  -2.241  0.00  0.00    -0.252 OA
ATOM      4  N   UNL     1      -0.124  -6.184  -1.190  0.00  0.00    -0.247 N 
ATOM      5  C   UNL     1      -0.226  -6.875  -2.396  0.00  0.00    +0.190 A 
ATOM      6  N   UNL     1      -0.252  -6.406  -3.627  0.00  0.00    -0.125 NA
ATOM      7  N   UNL     1      -0.360  -7.274  -4.689  0.00  0.00    -0.133 NA
ATOM      8  C   UNL     1      -0.437  -8.573  -4.469  0.00  0.00    +0.160 A 
ATOM      9  S   UNL     1      -0.350  -8.633  -2.686  0.00  0.00    -0.024 S 
ATOM     10  H   UNL     1       0.152  -4.660   0.809  0.00  0.00    +0.156 HD
ATOM     11  H   UNL     1      -0.113  -6.672  -0.352  0.00  0.00    +0.158 HD
ENDROOT
BRANCH   1  16
ATOM     12  C   UNL     1      -0.072   1.502   0.017  0.00  0.00    +0.044 C 
ATOM     13  C   UNL     1      -0.037  -0.005   0.006  0.00  0.00    -0.049 A 
ATOM     14  C   UNL     1      -0.627  -0.702  -1.032  0.00  0.00    +0.005 A 
ATOM     15  C   UNL     1      -0.597  -2.083  -1.045  0.00  0.00    +0.025 A 
ATOM     16  C   UNL     1       0.027  -2.772  -0.013  0.00  0.00    +0.053 A 
ATOM     17  C   UNL     1       0.619  -2.069   1.029  0.00  0.00    +0.062 A 
ATOM     18  C   UNL     1       0.590  -0.687   1.033  0.00  0.00    +0.025 A 
ATOM     19 CL   UNL     1       1.401  -2.925   2.321  0.00  0.00    -0.082 Cl
ENDBRANCH   1  16
BRANCH   8  20
ATOM     20  S   UNL     1      -0.579  -9.895  -5.625  0.00  0.00    -0.091 S 
BRANCH  20  21
ATOM     21  C   UNL     1      -0.598  -9.067  -7.239  0.00  0.00    +0.132 C 
BRANCH  21  22
ATOM     22  C   UNL     1      -0.718 -10.098  -8.332  0.00  0.00    +0.059 A 
ATOM     23  C   UNL     1      -1.917 -10.264  -8.995  0.00  0.00    +0.094 A 
ATOM     24  C   UNL     1      -2.004 -11.227 -10.007  0.00  0.00    +0.259 A 
ATOM     25  O   UNL     1      -3.050 -11.398 -10.612  0.00  0.00    -0.267 OA
ATOM     26  N   UNL     1      -0.913 -11.966 -10.302  0.00  0.00    -0.268 N 
ATOM     27  C   UNL     1      -0.981 -12.907 -11.283  0.00  0.00    +0.099 A 
ATOM     28  C   UNL     1       0.098 -13.659 -11.597  0.00  0.00    -0.034 A 
ATOM     29  C   UNL     1       1.307 -13.475 -10.910  0.00  0.00    +0.008 A 
ATOM     30  C   UNL     1       1.386 -12.536  -9.927  0.00  0.00    +0.047 A 
ATOM     31  C   UNL     1       0.252 -11.763  -9.616  0.00  0.00    +0.141 A 
ATOM     32  N   UNL     1       0.329 -10.840  -8.658  0.00  0.00    -0.233 NA
ATOM     33  C   UNL     1       0.002 -14.695 -12.686  0.00  0.00    +0.045 C 
ENDBRANCH  21  22
ENDBRANCH  20  21
ENDBRANCH   8  20
TORSDOF 4
