REMARK  Name = ZINC10059370
REMARK  9 active torsions:
REMARK  status: ('A' for Active; 'I' for Inactive)
REMARK    1  A    between atoms: C_1  and  C_2
REMARK    2  A    between atoms: C_2  and  C_3
REMARK    3  A    between atoms: C_2  and  C_4
REMARK    4  A    between atoms: C_2  and  C_5
REMARK    5  A    between atoms: C_14  and  O_38
REMARK    6  A    between atoms: C_16  and  C_19
REMARK    7  A    between atoms: C_22  and  O_25
REMARK    8  A    between atoms: O_25  and  C_26
REMARK    9  A    between atoms: C_26  and  C_28
REMARK                            x       y       z     vdW  Elec       q    Type
REMARK                         _______ _______ _______ _____ _____    ______ ____
ROOT
ATOM      1  C   UNL     1       2.871   4.356   7.019  0.00  0.00    -0.000 C 
ATOM      2  C   UNL     1       4.212   3.890   6.444  0.00  0.00    +0.009 C 
ATOM      3  C   UNL     1       3.997   3.264   5.065  0.00  0.00    +0.037 C 
ATOM      4  C   UNL     1       3.210   4.241   4.199  0.00  0.00    -0.023 A 
ATOM      5  C   UNL     1       2.508   5.253   4.758  0.00  0.00    -0.004 A 
ATOM      6  S   UNL     1       1.774   6.110   3.390  0.00  0.00    -0.078 S 
ATOM      7  C   UNL     1       2.386   5.148   2.114  0.00  0.00    +0.080 A 
ATOM      8  C   UNL     1       3.154   4.164   2.749  0.00  0.00    +0.068 A 
ATOM      9  C   UNL     1       3.820   3.157   1.884  0.00  0.00    +0.220 C 
ATOM     10  N   UNL     1       3.491   3.127   0.622  0.00  0.00    -0.223 NA
ATOM     11  C   UNL     1       2.445   3.942   0.016  0.00  0.00    +0.224 C 
ATOM     12  N   UNL     1       2.247   5.206   0.748  0.00  0.00    -0.313 N 
ATOM     13  C   UNL     1       2.385   5.571   6.216  0.00  0.00    +0.046 C 
ATOM     14  H   UNL     1       2.029   6.034   0.291  0.00  0.00    +0.149 HD
ENDROOT
BRANCH  11  15
ATOM     15  C   UNL     1       1.154   3.165   0.017  0.00  0.00    -0.005 A 
ATOM     16  C   UNL     1       1.178   1.785  -0.064  0.00  0.00    +0.011 A 
ATOM     17  C   UNL     1      -0.004   1.071  -0.063  0.00  0.00    +0.047 A 
ATOM     18  C   UNL     1      -1.217   1.740   0.014  0.00  0.00    +0.132 A 
ATOM     19  C   UNL     1      -1.239   3.124   0.100  0.00  0.00    +0.047 A 
ATOM     20  C   UNL     1      -0.054   3.834   0.099  0.00  0.00    +0.011 A 
BRANCH  18  21
ATOM     21  O   UNL     1      -2.382   1.040   0.009  0.00  0.00    -0.422 OA
BRANCH  21  22
ATOM     22  C   UNL     1      -3.182   1.190  -1.065  0.00  0.00    +0.345 C 
ATOM     23  O   UNL     1      -2.807   1.848  -2.015  0.00  0.00    -0.245 OA
BRANCH  22  24
ATOM     24  C   UNL     1      -4.512   0.557  -1.087  0.00  0.00    +0.067 A 
ATOM     25  C   UNL     1      -5.009  -0.089   0.038  0.00  0.00    +0.015 A 
ATOM     26  C   UNL     1      -6.264  -0.682   0.016  0.00  0.00    +0.001 A 
ATOM     27  C   UNL     1      -7.047  -0.663  -1.098  0.00  0.00    +0.008 A 
ATOM     28  C   UNL     1      -6.607  -0.031  -2.273  0.00  0.00    -0.017 A 
ATOM     29  C   UNL     1      -5.334   0.590  -2.295  0.00  0.00    -0.004 A 
ATOM     30  C   UNL     1      -4.891   1.220  -3.464  0.00  0.00    +0.009 A 
ATOM     31  C   UNL     1      -5.690   1.227  -4.569  0.00  0.00    +0.001 A 
ATOM     32  C   UNL     1      -6.942   0.617  -4.551  0.00  0.00    +0.001 A 
ATOM     33  C   UNL     1      -7.404  -0.004  -3.431  0.00  0.00    +0.008 A 
ENDBRANCH  22  24
ENDBRANCH  21  22
ENDBRANCH  18  21
ENDBRANCH  11  15
BRANCH   1  35
ATOM     34  C   UNL     1       1.715   5.232   9.053  0.00  0.00    +0.011 C 
ATOM     35  C   UNL     1       3.052   4.750   8.487  0.00  0.00    -0.035 C 
ATOM     36  C   UNL     1       3.536   3.538   9.284  0.00  0.00    +0.011 C 
ATOM     37  C   UNL     1       4.085   5.874   8.589  0.00  0.00    +0.011 C 
ENDBRANCH   1  35
BRANCH   9  38
ATOM     38  O   UNL     1       4.736   2.299   2.388  0.00  0.00    -0.492 OA
ATOM     39  H   UNL     1       5.104   1.687   1.735  0.00  0.00    +0.294 HD
ENDBRANCH   9  38
TORSDOF 6
