REMARK  Name = ZINC13174293
REMARK  8 active torsions:
REMARK  status: ('A' for Active; 'I' for Inactive)
REMARK    1  A    between atoms: C_1  and  O_2
REMARK    2  A    between atoms: O_2  and  C_3
REMARK    3  A    between atoms: C_6  and  N_9
REMARK    4  A    between atoms: C_10  and  C_12
REMARK    5  A    between atoms: C_12  and  S_13
REMARK    6  A    between atoms: S_13  and  C_14
REMARK    7  A    between atoms: C_15  and  C_33
REMARK    8  A    between atoms: C_16  and  C_26
REMARK                            x       y       z     vdW  Elec       q    Type
REMARK                         _______ _______ _______ _____ _____    ______ ____
ROOT
ATOM      1  C   UNL     1       3.648  -6.954   6.860  0.00  0.00    +0.112 C 
ATOM      2  C   UNL     1       3.673  -8.325   7.056  0.00  0.00    +0.073 C 
ATOM      3  C   UNL     1       4.314  -8.832   8.335  0.00  0.00    +0.097 C 
ATOM      4  C   UNL     1       4.863  -7.769   9.267  0.00  0.00    +0.029 C 
ATOM      5  C   UNL     1       5.450  -8.126  10.420  0.00  0.00    +0.162 C 
ATOM      6  C   UNL     1       6.005  -7.096  11.368  0.00  0.00    +0.080 C 
ATOM      7  C   UNL     1       6.455  -5.867  10.573  0.00  0.00    +0.014 C 
ATOM      8  C   UNL     1       5.264  -5.330   9.776  0.00  0.00    +0.056 C 
ATOM      9  C   UNL     1       4.734  -6.423   8.878  0.00  0.00    +0.050 C 
ATOM     10  N   UNL     1       4.165  -6.098   7.744  0.00  0.00    -0.244 NA
ATOM     11  O   UNL     1       5.546  -9.433  10.736  0.00  0.00    -0.292 OA
ENDROOT
BRANCH   3  12
ATOM     12  C   UNL     1       3.285  -9.631   9.093  0.00  0.00    -0.035 A 
ATOM     13  C   UNL     1       2.106  -9.033   9.496  0.00  0.00    +0.006 A 
ATOM     14  C   UNL     1       1.162  -9.764  10.191  0.00  0.00    +0.020 A 
ATOM     15  C   UNL     1       1.396 -11.097  10.482  0.00  0.00    +0.041 A 
ATOM     16  C   UNL     1       2.576 -11.695  10.078  0.00  0.00    +0.020 A 
ATOM     17  C   UNL     1       3.517 -10.963   9.378  0.00  0.00    +0.006 A 
ATOM     18 CL   UNL     1       0.211 -12.016  11.355  0.00  0.00    -0.084 Cl
ENDBRANCH   3  12
BRANCH   2  19
ATOM     19  C   UNL     1       3.117  -9.226   6.092  0.00  0.00    +0.098 C 
ATOM     20  N   UNL     1       2.676  -9.941   5.327  0.00  0.00    -0.191 NA
ENDBRANCH   2  19
BRANCH   1  21
ATOM     21  S   UNL     1       2.915  -6.319   5.389  0.00  0.00    -0.096 S 
BRANCH  21  22
ATOM     22  C   UNL     1       3.106  -4.522   5.545  0.00  0.00    +0.172 C 
BRANCH  22  24
ATOM     23  N   UNL     1       2.540  -2.503   4.231  0.00  0.00    -0.285 N 
ATOM     24  C   UNL     1       2.513  -3.847   4.335  0.00  0.00    +0.227 C 
ATOM     25  O   UNL     1       2.010  -4.513   3.455  0.00  0.00    -0.275 OA
ATOM     26  H   UNL     1       3.009  -1.975   4.896  0.00  0.00    +0.155 HD
BRANCH  23  30
ATOM     27  C   UNL     1       0.610  -0.617   1.052  0.00  0.00    +0.120 A 
ATOM     28  C   UNL     1       0.087  -1.786   1.587  0.00  0.00    +0.047 A 
ATOM     29  C   UNL     1       0.726  -2.411   2.639  0.00  0.00    +0.027 A 
ATOM     30  C   UNL     1       1.892  -1.870   3.163  0.00  0.00    +0.034 A 
ATOM     31  C   UNL     1       2.416  -0.700   2.628  0.00  0.00    +0.027 A 
ATOM     32  C   UNL     1       1.779  -0.079   1.572  0.00  0.00    +0.047 A 
BRANCH  27  34
ATOM     33  C   UNL     1      -1.218  -0.611  -0.469  0.00  0.00    +0.277 C 
ATOM     34  O   UNL     1      -0.019  -0.002   0.016  0.00  0.00    -0.495 OA
ENDBRANCH  27  34
ENDBRANCH  23  30
ENDBRANCH  22  24
ENDBRANCH  21  22
ENDBRANCH   1  21
TORSDOF 7
