REMARK  Name = ZINC09469433
REMARK  6 active torsions:
REMARK  status: ('A' for Active; 'I' for Inactive)
REMARK    1  A    between atoms: C_4  and  C_7
REMARK    2  A    between atoms: C_7  and  C_8
REMARK    3  A    between atoms: C_11  and  S_20
REMARK    4  A    between atoms: N_12  and  C_13
REMARK    5  A    between atoms: S_20  and  C_21
REMARK    6  A    between atoms: C_21  and  C_22
REMARK                            x       y       z     vdW  Elec       q    Type
REMARK                         _______ _______ _______ _____ _____    ______ ____
ROOT
ATOM      1  C   UNL     1      -2.939   0.715   1.441  0.00  0.00    +0.143 A 
ATOM      2  N   UNL     1      -3.694   1.480   2.177  0.00  0.00    -0.133 NA
ATOM      3  N   UNL     1      -3.858   0.956   3.338  0.00  0.00    -0.122 NA
ATOM      4  C   UNL     1      -3.211  -0.185   3.409  0.00  0.00    +0.197 A 
ATOM      5  N   UNL     1      -2.607  -0.378   2.197  0.00  0.00    -0.274 N 
ENDROOT
BRANCH   5   6
ATOM      6  C   UNL     1      -1.812  -1.467   1.810  0.00  0.00    +0.050 A 
ATOM      7  C   UNL     1      -2.244  -2.320   0.803  0.00  0.00    +0.028 A 
ATOM      8  C   UNL     1      -1.457  -3.388   0.420  0.00  0.00    +0.022 A 
ATOM      9  C   UNL     1      -0.245  -3.616   1.048  0.00  0.00    +0.041 A 
ATOM     10  C   UNL     1       0.185  -2.771   2.056  0.00  0.00    +0.022 A 
ATOM     11  C   UNL     1      -0.596  -1.698   2.438  0.00  0.00    +0.028 A 
ATOM     12 CL   UNL     1       0.739  -4.965   0.570  0.00  0.00    -0.084 Cl
ENDBRANCH   5   6
BRANCH   1  13
ATOM     13  C   UNL     1      -2.514   0.980   0.019  0.00  0.00    +0.111 C 
BRANCH  13  17
ATOM     14  C   UNL     1       1.156   3.165   0.008  0.00  0.00    +0.000 A 
ATOM     15  C   UNL     1       1.175   1.783   0.000  0.00  0.00    +0.000 A 
ATOM     16  C   UNL     1      -0.013   1.076   0.008  0.00  0.00    +0.004 A 
ATOM     17  C   UNL     1      -1.219   1.751   0.017  0.00  0.00    -0.040 A 
ATOM     18  C   UNL     1      -1.238   3.133   0.030  0.00  0.00    +0.004 A 
ATOM     19  C   UNL     1      -0.050   3.840   0.022  0.00  0.00    +0.000 A 
ENDBRANCH  13  17
ENDBRANCH   1  13
BRANCH   4  20
ATOM     20  S   UNL     1      -3.139  -1.264   4.800  0.00  0.00    -0.076 S 
BRANCH  20  21
ATOM     21  C   UNL     1      -4.167  -0.340   5.969  0.00  0.00    +0.173 C 
BRANCH  21  22
ATOM     22  C   UNL     1      -4.251  -1.095   7.270  0.00  0.00    +0.231 C 
ATOM     23  O   UNL     1      -3.673  -2.154   7.395  0.00  0.00    -0.274 OA
ATOM     24  N   UNL     1      -4.968  -0.593   8.295  0.00  0.00    -0.260 N 
ATOM     25  C   UNL     1      -5.672   0.692   8.171  0.00  0.00    +0.209 C 
ATOM     26  C   UNL     1      -5.491   1.480   9.439  0.00  0.00    +0.235 C 
ATOM     27  O   UNL     1      -5.504   2.692   9.398  0.00  0.00    -0.274 OA
ATOM     28  N   UNL     1      -5.311   0.857  10.619  0.00  0.00    -0.283 N 
ATOM     29  C   UNL     1      -5.242  -0.539  10.688  0.00  0.00    +0.055 A 
ATOM     30  C   UNL     1      -5.062  -1.278   9.517  0.00  0.00    +0.058 A 
ATOM     31  C   UNL     1      -4.979  -2.657   9.571  0.00  0.00    +0.025 A 
ATOM     32  C   UNL     1      -5.079  -3.304  10.790  0.00  0.00    +0.002 A 
ATOM     33  C   UNL     1      -5.261  -2.575  11.951  0.00  0.00    +0.002 A 
ATOM     34  C   UNL     1      -5.343  -1.195  11.904  0.00  0.00    +0.025 A 
ATOM     35  H   UNL     1      -5.228   1.381  11.431  0.00  0.00    +0.155 HD
ENDBRANCH  21  22
ENDBRANCH  20  21
ENDBRANCH   4  20
TORSDOF 6
