REMARK  Name = ZINC66072788
REMARK  13 active torsions:
REMARK  status: ('A' for Active; 'I' for Inactive)
REMARK    1  A    between atoms: C_1  and  C_2
REMARK    2  A    between atoms: C_2  and  C_3
REMARK    3  A    between atoms: C_3  and  C_4
REMARK    4  A    between atoms: N_6  and  C_7
REMARK    5  A    between atoms: C_11  and  N_13
REMARK    6  A    between atoms: C_14  and  C_16
REMARK    7  A    between atoms: C_16  and  N_17
REMARK    8  A    between atoms: N_17  and  C_18
REMARK    9  A    between atoms: C_21  and  N_24
REMARK   10  A    between atoms: C_25  and  C_27
REMARK   11  A    between atoms: C_27  and  C_28
REMARK   12  A    between atoms: C_28  and  C_29
REMARK   13  A    between atoms: C_28  and  C_30
REMARK                            x       y       z     vdW  Elec       q    Type
REMARK                         _______ _______ _______ _____ _____    ______ ____
ROOT
ATOM      1  N   UNL     1       2.996  -6.634   4.434  0.00  0.00    -0.283 N 
ATOM      2  C   UNL     1       3.276  -5.891   5.523  0.00  0.00    +0.234 C 
ATOM      3  O   UNL     1       3.064  -4.697   5.512  0.00  0.00    -0.274 OA
ATOM      4  H   UNL     1       3.228  -7.576   4.417  0.00  0.00    +0.155 HD
ENDROOT
BRANCH   1   9
ATOM      5  C   UNL     1       1.941  -4.125   1.955  0.00  0.00    +0.035 A 
ATOM      6  C   UNL     1       1.125  -4.894   1.136  0.00  0.00    +0.025 A 
ATOM      7  C   UNL     1       0.933  -6.234   1.412  0.00  0.00    +0.023 A 
ATOM      8  C   UNL     1       1.552  -6.813   2.505  0.00  0.00    +0.062 A 
ATOM      9  C   UNL     1       2.369  -6.048   3.328  0.00  0.00    +0.054 A 
ATOM     10  C   UNL     1       2.568  -4.704   3.049  0.00  0.00    +0.048 A 
ATOM     11 CL   UNL     1       1.308  -8.497   2.848  0.00  0.00    -0.082 Cl
BRANCH   5  14
ATOM     12  C   UNL     1       1.124  -2.032   1.172  0.00  0.00    +0.217 C 
ATOM     13  O   UNL     1       0.074  -2.564   0.879  0.00  0.00    -0.275 OA
ATOM     14  N   UNL     1       2.135  -2.767   1.674  0.00  0.00    -0.285 N 
ATOM     15  H   UNL     1       2.998  -2.356   1.841  0.00  0.00    +0.155 HD
BRANCH  12  16
ATOM     16  C   UNL     1       1.296  -0.548   0.975  0.00  0.00    +0.096 C 
BRANCH  16  18
ATOM     17  C   UNL     1       0.185   1.550   0.196  0.00  0.00    +0.004 C 
ATOM     18  C   UNL     1       0.009   0.043   0.397  0.00  0.00    +0.006 C 
ENDBRANCH  16  18
ENDBRANCH  12  16
ENDBRANCH   5  14
ENDBRANCH   1   9
BRANCH   2  19
ATOM     19  C   UNL     1       3.851  -6.543   6.753  0.00  0.00    +0.198 C 
BRANCH  19  20
ATOM     20  N   UNL     1       4.064  -5.529   7.789  0.00  0.00    -0.335 N 
ATOM     21  H   UNL     1       3.838  -4.603   7.614  0.00  0.00    +0.147 HD
BRANCH  20  22
ATOM     22  C   UNL     1       4.595  -5.898   9.030  0.00  0.00    +0.028 A 
ATOM     23  C   UNL     1       4.925  -7.224   9.278  0.00  0.00    +0.025 A 
ATOM     24  C   UNL     1       5.448  -7.588  10.502  0.00  0.00    +0.025 A 
ATOM     25  C   UNL     1       5.644  -6.628  11.486  0.00  0.00    +0.033 A 
ATOM     26  C   UNL     1       5.314  -5.302  11.239  0.00  0.00    +0.025 A 
ATOM     27  C   UNL     1       4.797  -4.937  10.012  0.00  0.00    +0.025 A 
BRANCH  25  28
ATOM     28  N   UNL     1       6.176  -6.997  12.730  0.00  0.00    -0.285 N 
ATOM     29  C   UNL     1       5.849  -8.185  13.276  0.00  0.00    +0.217 C 
ATOM     30  O   UNL     1       5.159  -8.968  12.657  0.00  0.00    -0.275 OA
ATOM     31  H   UNL     1       6.778  -6.398  13.197  0.00  0.00    +0.155 HD
BRANCH  29  32
ATOM     32  C   UNL     1       6.341  -8.542  14.655  0.00  0.00    +0.099 C 
BRANCH  32  33
ATOM     33  C   UNL     1       5.833  -9.934  15.034  0.00  0.00    -0.008 C 
ATOM     34  C   UNL     1       6.433 -10.347  16.379  0.00  0.00    +0.008 C 
ATOM     35  C   UNL     1       4.307  -9.907  15.143  0.00  0.00    +0.008 C 
ENDBRANCH  32  33
ENDBRANCH  29  32
ENDBRANCH  25  28
ENDBRANCH  20  22
ENDBRANCH  19  20
ENDBRANCH   2  19
TORSDOF 10
