REMARK  Name = ZINC39326462
REMARK  7 active torsions:
REMARK  status: ('A' for Active; 'I' for Inactive)
REMARK    1  A    between atoms: C_1  and  C_2
REMARK    2  A    between atoms: C_7  and  C_30
REMARK    3  A    between atoms: N_15  and  C_16
REMARK    4  A    between atoms: C_16  and  C_17
REMARK    5  A    between atoms: C_17  and  C_18
REMARK    6  A    between atoms: C_25  and  O_28
REMARK    7  A    between atoms: O_28  and  C_29
REMARK                            x       y       z     vdW  Elec       q    Type
REMARK                         _______ _______ _______ _____ _____    ______ ____
ROOT
ATOM      1  C   UNL     1       0.185   1.498  -0.057  0.00  0.00    +0.060 C 
ATOM      2  C   UNL     1       0.152  -0.009  -0.048  0.00  0.00    +0.008 C 
ATOM      3  C   UNL     1       0.145  -0.671  -1.216  0.00  0.00    +0.085 C 
ATOM      4  C   UNL     1       0.097  -2.081  -1.281  0.00  0.00    +0.245 C 
ATOM      5  O   UNL     1       0.102  -2.636  -2.364  0.00  0.00    -0.270 OA
ATOM      6  N   UNL     1       0.045  -2.813  -0.158  0.00  0.00    -0.237 N 
ATOM      7  C   UNL     1      -0.101  -4.269  -0.179  0.00  0.00    +0.231 C 
ATOM      8  N   UNL     1      -1.087  -4.669   0.826  0.00  0.00    -0.228 NA
ATOM      9  C   UNL     1      -1.509  -3.869   1.752  0.00  0.00    +0.180 C 
ATOM     10  N   UNL     1      -1.093  -2.565   1.863  0.00  0.00    -0.284 N 
ATOM     11  C   UNL     1       0.120  -2.137   1.151  0.00  0.00    +0.257 C 
ATOM     12  N   UNL     1       0.135  -0.667   1.150  0.00  0.00    -0.314 N 
ATOM     13  N   UNL     1      -2.416  -4.348   2.667  0.00  0.00    -0.317 N 
ATOM     14  H   UNL     1      -1.594  -1.934   2.404  0.00  0.00    +0.152 HD
ATOM     15  H   UNL     1       0.130  -0.173   1.985  0.00  0.00    +0.149 HD
ATOM     16  H   UNL     1      -2.747  -3.768   3.371  0.00  0.00    +0.149 HD
ENDROOT
BRANCH   7  17
ATOM     17  C   UNL     1      -0.565  -4.708  -1.544  0.00  0.00    -0.005 A 
ATOM     18  C   UNL     1       0.272  -5.456  -2.351  0.00  0.00    +0.009 A 
ATOM     19  C   UNL     1      -0.153  -5.859  -3.603  0.00  0.00    +0.020 A 
ATOM     20  C   UNL     1      -1.417  -5.514  -4.048  0.00  0.00    +0.041 A 
ATOM     21  C   UNL     1      -2.254  -4.766  -3.240  0.00  0.00    +0.020 A 
ATOM     22  C   UNL     1      -1.830  -4.368  -1.986  0.00  0.00    +0.009 A 
ATOM     23 CL   UNL     1      -1.952  -6.019  -5.621  0.00  0.00    -0.084 Cl
ENDBRANCH   7  17
BRANCH  13  24
ATOM     24  C   UNL     1      -2.883  -5.734   2.580  0.00  0.00    +0.109 C 
BRANCH  24  25
ATOM     25  C   UNL     1      -3.879  -6.008   3.708  0.00  0.00    +0.056 C 
BRANCH  25  26
ATOM     26  C   UNL     1      -4.359  -7.434   3.619  0.00  0.00    -0.021 A 
ATOM     27  C   UNL     1      -5.473  -7.864   3.005  0.00  0.00    +0.087 A 
ATOM     28  N   UNL     1      -5.580  -9.222   3.131  0.00  0.00    -0.360 N 
ATOM     29  H   UNL     1      -6.301  -9.761   2.769  0.00  0.00    +0.165 HD
ATOM     30  C   UNL     1      -4.509  -9.712   3.849  0.00  0.00    +0.047 A 
ATOM     31  C   UNL     1      -3.696  -8.613   4.180  0.00  0.00    +0.006 A 
ATOM     32  C   UNL     1      -2.522  -8.809   4.912  0.00  0.00    +0.056 A 
ATOM     33  C   UNL     1      -2.167 -10.085   5.303  0.00  0.00    +0.121 A 
ATOM     34  C   UNL     1      -2.973 -11.171   4.970  0.00  0.00    +0.047 A 
ATOM     35  C   UNL     1      -4.136 -10.988   4.256  0.00  0.00    +0.030 A 
BRANCH  33  36
ATOM     36  O   UNL     1      -1.025 -10.281   6.015  0.00  0.00    -0.495 OA
ATOM     37  C   UNL     1      -0.717 -11.626   6.387  0.00  0.00    +0.277 C 
ENDBRANCH  33  36
ENDBRANCH  25  26
ENDBRANCH  24  25
ENDBRANCH  13  24
TORSDOF 5
