REMARK  Name = ZINC03767334
REMARK  15 active torsions:
REMARK  status: ('A' for Active; 'I' for Inactive)
REMARK    1  A    between atoms: C_8  and  S_16
REMARK    2  A    between atoms: N_9  and  C_10
REMARK    3  A    between atoms: C_10  and  C_11
REMARK    4  A    between atoms: C_11  and  C_13
REMARK    5  A    between atoms: C_11  and  O_15
REMARK    6  A    between atoms: C_13  and  O_14
REMARK    7  A    between atoms: S_16  and  C_17
REMARK    8  A    between atoms: C_17  and  C_18
REMARK    9  A    between atoms: C_18  and  S_19
REMARK   10  A    between atoms: S_19  and  C_20
REMARK   11  A    between atoms: N_28  and  C_29
REMARK   12  A    between atoms: C_29  and  C_30
REMARK   13  A    between atoms: C_30  and  C_32
REMARK   14  A    between atoms: C_30  and  O_34
REMARK   15  A    between atoms: C_32  and  O_33
REMARK                            x       y       z     vdW  Elec       q    Type
REMARK                         _______ _______ _______ _____ _____    ______ ____
ROOT
ATOM      1  C   UNL     1      -1.111   7.988   0.055  0.00  0.00    +0.088 C 
ENDROOT
BRANCH   1   2
ATOM      2  S   UNL     1      -2.515   6.846   0.062  0.00  0.00    -0.087 S 
BRANCH   2  10
ATOM      3  C   UNL     1       1.182   1.781   0.000  0.00  0.00    +0.002 A 
ATOM      4  C   UNL     1      -0.013   1.076   0.008  0.00  0.00    +0.002 A 
ATOM      5  C   UNL     1      -1.219   1.745   0.017  0.00  0.00    +0.028 A 
ATOM      6  C   UNL     1      -1.240   3.131   0.031  0.00  0.00    +0.070 A 
ATOM      7  C   UNL     1      -0.033   3.850   0.023  0.00  0.00    +0.090 A 
ATOM      8  C   UNL     1       1.180   3.158   0.008  0.00  0.00    +0.030 A 
ATOM      9  N   UNL     1      -0.354   5.171   0.033  0.00  0.00    -0.222 NA
ATOM     10  C   UNL     1      -1.658   5.307   0.046  0.00  0.00    +0.170 A 
ATOM     11  N   UNL     1      -2.252   4.077   0.045  0.00  0.00    -0.316 N 
BRANCH  11  12
ATOM     12  C   UNL     1      -3.692   3.808   0.058  0.00  0.00    +0.158 C 
BRANCH  12  13
ATOM     13  C   UNL     1      -4.208   3.722  -1.380  0.00  0.00    +0.159 C 
BRANCH  13  14
ATOM     14  O   UNL     1      -3.619   2.595  -2.031  0.00  0.00    -0.388 OA
ATOM     15  H   UNL     1      -3.815   1.749  -1.607  0.00  0.00    +0.210 HD
ENDBRANCH  13  14
BRANCH  13  16
ATOM     16  C   UNL     1      -5.730   3.566  -1.367  0.00  0.00    +0.188 C 
BRANCH  16  17
ATOM     17  O   UNL     1      -6.223   3.603  -2.708  0.00  0.00    -0.392 OA
ATOM     18  H   UNL     1      -7.184   3.510  -2.776  0.00  0.00    +0.210 HD
ENDBRANCH  16  17
ENDBRANCH  13  16
ENDBRANCH  12  13
ENDBRANCH  11  12
ENDBRANCH   2  10
ENDBRANCH   1   2
BRANCH   1  19
ATOM     19  C   UNL     1      -1.625   9.429   0.068  0.00  0.00    +0.088 C 
BRANCH  19  20
ATOM     20  S   UNL     1      -0.221  10.571   0.061  0.00  0.00    -0.087 S 
BRANCH  20  21
ATOM     21  C   UNL     1      -1.079  12.110   0.076  0.00  0.00    +0.170 A 
ATOM     22  N   UNL     1      -2.382  12.246   0.090  0.00  0.00    -0.222 NA
ATOM     23  C   UNL     1      -2.703  13.566   0.099  0.00  0.00    +0.090 A 
ATOM     24  C   UNL     1      -3.916  14.259   0.115  0.00  0.00    +0.030 A 
ATOM     25  C   UNL     1      -3.918  15.636   0.122  0.00  0.00    +0.002 A 
ATOM     26  C   UNL     1      -2.724  16.341   0.114  0.00  0.00    +0.002 A 
ATOM     27  C   UNL     1      -1.517  15.672   0.099  0.00  0.00    +0.028 A 
ATOM     28  C   UNL     1      -1.496  14.286   0.091  0.00  0.00    +0.070 A 
ATOM     29  N   UNL     1      -0.484  13.340   0.083  0.00  0.00    -0.316 N 
BRANCH  29  30
ATOM     30  C   UNL     1       0.956  13.609   0.079  0.00  0.00    +0.158 C 
BRANCH  30  31
ATOM     31  C   UNL     1       1.451  13.714  -1.365  0.00  0.00    +0.159 C 
BRANCH  31  32
ATOM     32  O   UNL     1       0.853  14.850  -1.993  0.00  0.00    -0.388 OA
ATOM     33  H   UNL     1       1.055  15.691  -1.560  0.00  0.00    +0.210 HD
ENDBRANCH  31  32
BRANCH  31  34
ATOM     34  C   UNL     1       2.973  13.871  -1.373  0.00  0.00    +0.188 C 
BRANCH  34  35
ATOM     35  O   UNL     1       3.447  13.852  -2.721  0.00  0.00    -0.392 OA
ATOM     36  H   UNL     1       4.406  13.946  -2.802  0.00  0.00    +0.210 HD
ENDBRANCH  34  35
ENDBRANCH  31  34
ENDBRANCH  30  31
ENDBRANCH  29  30
ENDBRANCH  20  21
ENDBRANCH  19  20
ENDBRANCH   1  19
TORSDOF 15
