REMARK  Name = ZINC39631715
REMARK  14 active torsions:
REMARK  status: ('A' for Active; 'I' for Inactive)
REMARK    1  A    between atoms: C_1  and  C_2
REMARK    2  A    between atoms: C_2  and  C_4
REMARK    3  A    between atoms: C_2  and  N_11
REMARK    4  A    between atoms: C_4  and  C_5
REMARK    5  A    between atoms: C_5  and  C_6
REMARK    6  A    between atoms: C_6  and  C_7
REMARK    7  A    between atoms: C_7  and  C_8
REMARK    8  A    between atoms: C_7  and  C_9
REMARK    9  A    between atoms: C_7  and  O_10
REMARK   10  A    between atoms: C_12  and  C_14
REMARK   11  A    between atoms: C_25  and  C_27
REMARK   12  A    between atoms: C_31  and  N_33
REMARK   13  A    between atoms: N_33  and  C_34
REMARK   14  A    between atoms: N_33  and  C_35
REMARK                            x       y       z     vdW  Elec       q    Type
REMARK                         _______ _______ _______ _____ _____    ______ ____
ROOT
ATOM      1  C   UNL     1       1.302  -1.378   3.952  0.00  0.00    +0.100 C 
ATOM      2  C   UNL     1       2.314  -0.217   4.077  0.00  0.00    +0.121 C 
ATOM      3  N   UNL     1       1.699   0.712   5.054  0.00  0.00    -0.296 N 
ATOM      4  C   UNL     1       1.091  -0.175   6.075  0.00  0.00    +0.115 C 
ATOM      5  C   UNL     1       0.504  -1.349   5.266  0.00  0.00    -0.004 C 
ATOM      6  C   UNL     1      -0.975  -1.105   4.981  0.00  0.00    -0.010 C 
ATOM      7  C   UNL     1      -1.756  -1.137   6.298  0.00  0.00    -0.082 C 
ATOM      8  N   UNL     1      -1.571  -2.441   6.947  0.00  0.00    +0.379 N 
ATOM      9  C   UNL     1      -0.159  -2.629   7.301  0.00  0.00    -0.082 C 
ATOM     10  C   UNL     1       0.689  -2.659   6.027  0.00  0.00    -0.010 C 
ATOM     11  C   UNL     1       1.694   2.059   5.023  0.00  0.00    +0.247 C 
ATOM     12  O   UNL     1       2.130   2.646   4.051  0.00  0.00    -0.270 OA
ATOM     13  H   UNL     1      -2.135  -2.482   7.783  0.00  0.00    -0.086 HD
ATOM     14  H   UNL     1      -1.858  -3.173   6.315  0.00  0.00    -0.086 HD
ENDROOT
BRANCH  11  15
ATOM     15  C   UNL     1       1.158   2.824   6.169  0.00  0.00    +0.039 A 
ATOM     16  C   UNL     1       1.066   2.226   7.428  0.00  0.00    +0.013 A 
ATOM     17  C   UNL     1       0.566   2.941   8.496  0.00  0.00    +0.003 A 
ATOM     18  C   UNL     1       0.154   4.250   8.326  0.00  0.00    +0.023 A 
ATOM     19  C   UNL     1       0.242   4.854   7.078  0.00  0.00    +0.030 A 
ATOM     20  C   UNL     1       0.749   4.146   5.999  0.00  0.00    +0.036 A 
BRANCH  19  21
ATOM     21  N   UNL     1      -0.176   6.177   6.911  0.00  0.00    -0.336 N 
ATOM     22  C   UNL     1      -0.706   6.927   8.052  0.00  0.00    +0.129 C 
ATOM     23  C   UNL     1      -0.083   6.814   5.595  0.00  0.00    +0.129 C 
ENDBRANCH  19  21
ENDBRANCH  11  15
BRANCH   1  25
ATOM     24  N   UNL     1      -0.209  -2.200   2.175  0.00  0.00    -0.312 N 
ATOM     25  C   UNL     1       0.386  -1.152   2.777  0.00  0.00    +0.218 C 
ATOM     26  O   UNL     1       0.184  -0.026   2.374  0.00  0.00    -0.275 OA
ATOM     27  H   UNL     1      -0.048  -3.100   2.497  0.00  0.00    +0.149 HD
BRANCH  24  29
ATOM     28  C   UNL     1      -0.272  -1.900  -0.252  0.00  0.00    +0.028 C 
ATOM     29  C   UNL     1      -1.100  -1.980   1.032  0.00  0.00    +0.070 C 
BRANCH  29  30
ATOM     30  C   UNL     1      -2.092  -3.140   0.928  0.00  0.00    +0.022 C 
BRANCH  30  31
ATOM     31  C   UNL     1      -3.003  -3.144   2.157  0.00  0.00    +0.005 C 
BRANCH  31  32
ATOM     32  C   UNL     1      -3.995  -4.304   2.052  0.00  0.00    +0.034 C 
BRANCH  32  33
ATOM     33  C   UNL     1      -4.907  -4.308   3.281  0.00  0.00    +0.061 C 
ATOM     34  C   UNL     1      -5.815  -5.538   3.239  0.00  0.00    +0.041 C 
ATOM     35  C   UNL     1      -4.052  -4.348   4.550  0.00  0.00    +0.041 C 
BRANCH  33  36
ATOM     36  O   UNL     1      -5.708  -3.124   3.284  0.00  0.00    -0.389 OA
ATOM     37  H   UNL     1      -6.276  -3.033   2.507  0.00  0.00    +0.210 HD
ENDBRANCH  33  36
ENDBRANCH  32  33
ENDBRANCH  31  32
ENDBRANCH  30  31
ENDBRANCH  29  30
ENDBRANCH  24  29
ENDBRANCH   1  25
TORSDOF 9
