REMARK  Name = ZINC12210106
REMARK  7 active torsions:
REMARK  status: ('A' for Active; 'I' for Inactive)
REMARK    1  A    between atoms: C_4  and  C_7
REMARK    2  A    between atoms: N_12  and  C_14
REMARK    3  A    between atoms: C_14  and  C_15
REMARK    4  A    between atoms: N_17  and  C_18
REMARK    5  A    between atoms: C_18  and  C_19
REMARK    6  A    between atoms: C_26  and  C_29
REMARK    7  A    between atoms: C_32  and  C_35
REMARK                            x       y       z     vdW  Elec       q    Type
REMARK                         _______ _______ _______ _____ _____    ______ ____
ROOT
ATOM      1  C   UNL     1       7.207  -6.122  -4.314  0.00  0.00    +0.195 C 
ATOM      2  C   UNL     1       8.674  -5.816  -4.700  0.00  0.00    +0.088 C 
ATOM      3  C   UNL     1       9.279  -7.206  -4.756  0.00  0.00    +0.034 A 
ATOM      4  C   UNL     1      10.456  -7.682  -5.297  0.00  0.00    +0.130 A 
ATOM      5  C   UNL     1      10.768  -9.031  -5.212  0.00  0.00    +0.039 A 
ATOM      6  C   UNL     1       9.899  -9.899  -4.584  0.00  0.00    +0.015 A 
ATOM      7  C   UNL     1       8.712  -9.426  -4.033  0.00  0.00    +0.024 A 
ATOM      8  C   UNL     1       8.395  -8.060  -4.114  0.00  0.00    +0.135 A 
ATOM      9  O   UNL     1       7.310  -7.387  -3.638  0.00  0.00    -0.486 OA
ATOM     10  F   UNL     1      11.306  -6.832  -5.913  0.00  0.00    -0.205 F 
ENDROOT
BRANCH   7  11
ATOM     11  C   UNL     1       7.783 -10.363  -3.360  0.00  0.00    -0.014 A 
ATOM     12  C   UNL     1       7.299 -10.070  -2.084  0.00  0.00    +0.009 A 
ATOM     13  C   UNL     1       6.431 -10.937  -1.461  0.00  0.00    +0.013 A 
ATOM     14  C   UNL     1       6.044 -12.118  -2.101  0.00  0.00    +0.037 A 
ATOM     15  C   UNL     1       6.534 -12.414  -3.376  0.00  0.00    +0.013 A 
ATOM     16  C   UNL     1       7.397 -11.542  -4.000  0.00  0.00    +0.009 A 
BRANCH  14  17
ATOM     17  C   UNL     1       5.118 -13.052  -1.430  0.00  0.00    +0.242 C 
ATOM     18  O   UNL     1       4.782 -14.079  -1.987  0.00  0.00    -0.270 OA
ATOM     19  N   UNL     1       4.646 -12.767  -0.200  0.00  0.00    -0.325 N 
ATOM     20  H   UNL     1       4.915 -11.947   0.244  0.00  0.00    +0.145 HD
ATOM     21  H   UNL     1       4.038 -13.381   0.241  0.00  0.00    +0.145 HD
ENDBRANCH  14  17
ENDBRANCH   7  11
BRANCH   1  22
ATOM     22  C   UNL     1       6.659  -5.047  -3.373  0.00  0.00    +0.149 C 
BRANCH  22  25
ATOM     23  C   UNL     1       4.604  -4.588  -2.146  0.00  0.00    +0.231 C 
ATOM     24  O   UNL     1       5.117  -3.573  -1.725  0.00  0.00    -0.274 OA
ATOM     25  N   UNL     1       5.292  -5.395  -2.978  0.00  0.00    -0.310 N 
ATOM     26  H   UNL     1       4.881  -6.207  -3.315  0.00  0.00    +0.149 HD
BRANCH  23  27
ATOM     27  C   UNL     1       3.198  -4.946  -1.740  0.00  0.00    +0.203 C 
BRANCH  27  32
ATOM     28  C   UNL     1       1.229  -2.186  -0.022  0.00  0.00    +0.045 C 
ATOM     29  C   UNL     1       2.129  -2.733   1.110  0.00  0.00    +0.105 C 
ATOM     30  C   UNL     1       2.796  -3.946   0.500  0.00  0.00    +0.217 C 
ATOM     31  O   UNL     1       3.359  -4.818   1.127  0.00  0.00    -0.276 OA
ATOM     32  N   UNL     1       2.673  -3.917  -0.839  0.00  0.00    -0.292 N 
ATOM     33  C   UNL     1       1.945  -2.722  -1.281  0.00  0.00    +0.117 C 
BRANCH  28  37
ATOM     34  C   UNL     1       1.171   2.086   0.002  0.00  0.00    +0.000 A 
ATOM     35  C   UNL     1      -0.017   1.378   0.010  0.00  0.00    +0.000 A 
ATOM     36  C   UNL     1       0.002  -0.004   0.002  0.00  0.00    +0.004 A 
ATOM     37  C   UNL     1       1.208  -0.679  -0.014  0.00  0.00    -0.042 A 
ATOM     38  C   UNL     1       2.396   0.029  -0.021  0.00  0.00    +0.004 A 
ATOM     39  C   UNL     1       2.377   1.411  -0.014  0.00  0.00    +0.000 A 
ENDBRANCH  28  37
ENDBRANCH  27  32
ENDBRANCH  23  27
ENDBRANCH  22  25
ENDBRANCH   1  22
TORSDOF 7
