REMARK  Name = ZINC39923397
REMARK  11 active torsions:
REMARK  status: ('A' for Active; 'I' for Inactive)
REMARK    1  A    between atoms: C_1  and  O_2
REMARK    2  A    between atoms: O_2  and  C_3
REMARK    3  A    between atoms: C_6  and  C_11
REMARK    4  A    between atoms: C_8  and  O_9
REMARK    5  A    between atoms: O_9  and  C_10
REMARK    6  A    between atoms: C_15  and  S_24
REMARK    7  A    between atoms: N_17  and  C_18
REMARK    8  A    between atoms: S_24  and  C_25
REMARK    9  A    between atoms: C_25  and  C_26
REMARK   10  A    between atoms: N_28  and  N_29
REMARK   11  A    between atoms: C_30  and  C_31
REMARK                            x       y       z     vdW  Elec       q    Type
REMARK                         _______ _______ _______ _____ _____    ______ ____
ROOT
ATOM      1  C   UNL     1       2.382  -2.451   4.264  0.00  0.00    +0.189 C 
ATOM      2  N   UNL     1       1.745  -3.727   4.660  0.00  0.00    -0.230 NA
ATOM      3  N   UNL     1       2.106  -3.892   6.077  0.00  0.00    -0.226 NA
ATOM      4  C   UNL     1       2.040  -2.503   6.602  0.00  0.00    +0.218 C 
ATOM      5  N   UNL     1       2.570  -1.672   5.500  0.00  0.00    -0.284 N 
ATOM      6  H   UNL     1       2.096  -4.494   4.106  0.00  0.00    +0.143 HD
ATOM      7  H   UNL     1       3.036  -4.271   6.171  0.00  0.00    +0.143 HD
ENDROOT
BRANCH   1  11
ATOM      8  C   UNL     1      -0.153  -0.322   1.557  0.00  0.00    +0.162 A 
ATOM      9  C   UNL     1       1.095  -0.757   1.144  0.00  0.00    +0.050 A 
ATOM     10  C   UNL     1       1.913  -1.445   2.021  0.00  0.00    +0.010 A 
ATOM     11  C   UNL     1       1.487  -1.700   3.312  0.00  0.00    -0.008 A 
ATOM     12  C   UNL     1       0.243  -1.269   3.730  0.00  0.00    +0.056 A 
ATOM     13  C   UNL     1      -0.579  -0.573   2.858  0.00  0.00    +0.162 A 
BRANCH   8  15
ATOM     14  C   UNL     1      -0.456   0.578  -0.623  0.00  0.00    +0.277 C 
ATOM     15  O   UNL     1      -0.959   0.356   0.696  0.00  0.00    -0.491 OA
ENDBRANCH   8  15
BRANCH  13  16
ATOM     16  O   UNL     1      -1.802  -0.143   3.270  0.00  0.00    -0.491 OA
ATOM     17  C   UNL     1      -2.172  -0.437   4.619  0.00  0.00    +0.277 C 
ENDBRANCH  13  16
ENDBRANCH   1  11
BRANCH   5  18
ATOM     18  C   UNL     1       3.137  -0.400   5.609  0.00  0.00    +0.033 A 
ATOM     19  C   UNL     1       3.707   0.206   4.497  0.00  0.00    +0.023 A 
ATOM     20  C   UNL     1       4.266   1.464   4.609  0.00  0.00    +0.002 A 
ATOM     21  C   UNL     1       4.259   2.120   5.826  0.00  0.00    +0.000 A 
ATOM     22  C   UNL     1       3.692   1.520   6.935  0.00  0.00    +0.002 A 
ATOM     23  C   UNL     1       3.126   0.264   6.829  0.00  0.00    +0.023 A 
ENDBRANCH   5  18
BRANCH   4  24
ATOM     24  S   UNL     1       3.074  -2.334   8.082  0.00  0.00    -0.112 S 
BRANCH  24  25
ATOM     25  C   UNL     1       4.733  -2.797   7.513  0.00  0.00    +0.169 C 
BRANCH  25  26
ATOM     26  C   UNL     1       5.704  -2.699   8.662  0.00  0.00    +0.242 C 
ATOM     27  O   UNL     1       5.314  -2.351   9.757  0.00  0.00    -0.273 OA
ATOM     28  N   UNL     1       7.004  -2.998   8.473  0.00  0.00    -0.206 N 
ATOM     29  H   UNL     1       7.316  -3.276   7.598  0.00  0.00    +0.177 HD
BRANCH  28  30
ATOM     30  N   UNL     1       7.906  -2.906   9.541  0.00  0.00    -0.188 NA
ATOM     31  C   UNL     1       9.170  -3.196   9.357  0.00  0.00    +0.136 C 
BRANCH  31  32
ATOM     32  C   UNL     1      10.073  -3.105  10.426  0.00  0.00    +0.000 C 
ATOM     33  C   UNL     1      11.440  -3.370  10.399  0.00  0.00    +0.004 A 
ATOM     34  C   UNL     1      12.310  -3.788   9.368  0.00  0.00    +0.010 A 
ATOM     35  C   UNL     1      13.628  -3.973   9.634  0.00  0.00    +0.001 A 
ATOM     36  C   UNL     1      14.155  -3.759  10.911  0.00  0.00    +0.002 A 
ATOM     37  C   UNL     1      13.380  -3.358  11.947  0.00  0.00    +0.026 A 
ATOM     38  C   UNL     1      11.990  -3.143  11.747  0.00  0.00    +0.043 A 
ATOM     39  N   UNL     1      11.040  -2.761  12.574  0.00  0.00    -0.380 N 
ATOM     40  C   UNL     1       9.767  -2.691  11.849  0.00  0.00    +0.150 C 
ATOM     41  H   UNL     1      11.163  -2.554  13.513  0.00  0.00    +0.160 HD
ENDBRANCH  31  32
ENDBRANCH  28  30
ENDBRANCH  25  26
ENDBRANCH  24  25
ENDBRANCH   4  24
TORSDOF 9
