REMARK  Name = ZINC05460746
REMARK  2 active torsions:
REMARK  status: ('A' for Active; 'I' for Inactive)
REMARK    1  A    between atoms: C_4  and  C_7
REMARK    2  A    between atoms: C_10  and  C_22
REMARK                            x       y       z     vdW  Elec       q    Type
REMARK                         _______ _______ _______ _____ _____    ______ ____
ROOT
ATOM      1  C   UNL     1       3.711  -0.707  -0.038  0.00  0.00    +0.106 C 
ATOM      2  C   UNL     1       4.019  -1.178  -1.463  0.00  0.00    +0.057 C 
ATOM      3  C   UNL     1       5.389  -1.864  -1.497  0.00  0.00    +0.124 C 
ATOM      4  N   UNL     1       5.450  -2.856  -0.420  0.00  0.00    -0.306 N 
ATOM      5  C   UNL     1       6.294  -3.923  -0.277  0.00  0.00    +0.069 A 
ATOM      6  C   UNL     1       7.335  -4.413  -1.054  0.00  0.00    +0.028 A 
ATOM      7  C   UNL     1       7.989  -5.545  -0.593  0.00  0.00    +0.002 A 
ATOM      8  C   UNL     1       7.629  -6.169   0.589  0.00  0.00    +0.002 A 
ATOM      9  C   UNL     1       6.596  -5.700   1.381  0.00  0.00    +0.028 A 
ATOM     10  C   UNL     1       5.923  -4.557   0.935  0.00  0.00    +0.065 A 
ATOM     11  N   UNL     1       4.896  -3.857   1.458  0.00  0.00    -0.327 N 
ATOM     12  C   UNL     1       4.611  -2.854   0.670  0.00  0.00    +0.175 A 
ATOM     13  N   UNL     1       3.630  -1.887   0.844  0.00  0.00    -0.309 N 
ATOM     14  H   UNL     1       2.928  -1.983   1.506  0.00  0.00    +0.149 HD
ATOM     15  H   UNL     1       4.440  -4.066   2.288  0.00  0.00    +0.169 HD
ENDROOT
BRANCH   3  16
ATOM     16  C   UNL     1       5.579  -2.547  -2.827  0.00  0.00    -0.005 A 
ATOM     17  C   UNL     1       4.698  -3.533  -3.229  0.00  0.00    +0.007 A 
ATOM     18  C   UNL     1       4.872  -4.160  -4.449  0.00  0.00    +0.002 A 
ATOM     19  C   UNL     1       5.927  -3.802  -5.267  0.00  0.00    +0.021 A 
ATOM     20  C   UNL     1       6.809  -2.815  -4.866  0.00  0.00    +0.060 A 
ATOM     21  C   UNL     1       6.631  -2.183  -3.647  0.00  0.00    +0.064 A 
ATOM     22 CL   UNL     1       7.733  -0.939  -3.145  0.00  0.00    -0.082 Cl
ATOM     23 CL   UNL     1       8.134  -2.365  -5.894  0.00  0.00    -0.082 Cl
ENDBRANCH   3  16
BRANCH   1  27
ATOM     24  C   UNL     1      -0.017   1.378   0.010  0.00  0.00    +0.000 A 
ATOM     25  C   UNL     1       1.171   2.086   0.002  0.00  0.00    +0.000 A 
ATOM     26  C   UNL     1       2.377   1.411  -0.013  0.00  0.00    +0.005 A 
ATOM     27  C   UNL     1       2.396   0.029  -0.020  0.00  0.00    -0.027 A 
ATOM     28  C   UNL     1       1.208  -0.679  -0.012  0.00  0.00    +0.005 A 
ATOM     29  C   UNL     1       0.002  -0.004   0.002  0.00  0.00    +0.000 A 
ENDBRANCH   1  27
TORSDOF 2
