REMARK  Name = ZINC05736064
REMARK  4 active torsions:
REMARK  status: ('A' for Active; 'I' for Inactive)
REMARK    1  A    between atoms: C_4  and  C_7
REMARK    2  A    between atoms: C_9  and  C_20
REMARK    3  A    between atoms: C_10  and  C_13
REMARK    4  A    between atoms: C_20  and  C_22
REMARK                            x       y       z     vdW  Elec       q    Type
REMARK                         _______ _______ _______ _____ _____    ______ ____
ROOT
ATOM      1  C   UNL     1      -2.206   8.105   0.582  0.00  0.00    +0.136 C 
ATOM      2  N   UNL     1      -1.285   7.356   0.052  0.00  0.00    -0.226 NA
ATOM      3  C   UNL     1      -1.297   5.994   0.060  0.00  0.00    +0.129 C 
ATOM      4  C   UNL     1      -2.465   5.261   0.286  0.00  0.00    +0.064 C 
ATOM      5  S   UNL     1      -3.975   6.133   0.573  0.00  0.00    -0.021 S 
ATOM      6  N   UNL     1      -3.324   7.568   1.197  0.00  0.00    -0.269 N 
ATOM      7  H   UNL     1      -3.725   8.002   1.966  0.00  0.00    +0.162 HD
ENDROOT
BRANCH   4   8
ATOM      8  C   UNL     1      -2.438   3.788   0.290  0.00  0.00    +0.010 A 
ATOM      9  C   UNL     1      -3.096   3.070  -0.713  0.00  0.00    +0.010 A 
ATOM     10  C   UNL     1      -3.065   1.692  -0.703  0.00  0.00    +0.001 A 
ATOM     11  C   UNL     1      -2.384   1.018   0.297  0.00  0.00    +0.001 A 
ATOM     12  C   UNL     1      -1.730   1.720   1.293  0.00  0.00    +0.020 A 
ATOM     13  C   UNL     1      -1.747   3.101   1.294  0.00  0.00    +0.049 A 
ATOM     14 CL   UNL     1      -0.920   3.980   2.542  0.00  0.00    -0.083 Cl
ENDBRANCH   4   8
BRANCH   1  18
ATOM     15  C   UNL     1      -1.773  12.326   0.420  0.00  0.00    +0.000 A 
ATOM     16  C   UNL     1      -2.812  11.768   1.143  0.00  0.00    +0.001 A 
ATOM     17  C   UNL     1      -2.958  10.397   1.200  0.00  0.00    +0.011 A 
ATOM     18  C   UNL     1      -2.055   9.573   0.525  0.00  0.00    +0.015 A 
ATOM     19  C   UNL     1      -1.006  10.143  -0.198  0.00  0.00    +0.011 A 
ATOM     20  C   UNL     1      -0.874  11.515  -0.251  0.00  0.00    +0.001 A 
ENDBRANCH   1  18
BRANCH   3  21
ATOM     21  C   UNL     1      -0.093   5.301  -0.175  0.00  0.00    +0.212 C 
ATOM     22  O   UNL     1      -0.104   4.087  -0.312  0.00  0.00    -0.285 OA
BRANCH  21  23
ATOM     23  C   UNL     1       1.183   6.042  -0.256  0.00  0.00    +0.024 A 
ATOM     24  C   UNL     1       2.391   5.349  -0.361  0.00  0.00    +0.012 A 
ATOM     25  C   UNL     1       3.578   6.047  -0.437  0.00  0.00    +0.001 A 
ATOM     26  C   UNL     1       3.574   7.431  -0.408  0.00  0.00    +0.000 A 
ATOM     27  C   UNL     1       2.381   8.123  -0.298  0.00  0.00    +0.001 A 
ATOM     28  C   UNL     1       1.186   7.438  -0.227  0.00  0.00    +0.012 A 
ENDBRANCH  21  23
ENDBRANCH   3  21
TORSDOF 4
