REMARK  Name = ZINC09043035
REMARK  12 active torsions:
REMARK  status: ('A' for Active; 'I' for Inactive)
REMARK    1  A    between atoms: C_1  and  C_2
REMARK    2  A    between atoms: C_2  and  C_3
REMARK    3  A    between atoms: C_2  and  C_4
REMARK    4  A    between atoms: C_7  and  C_10
REMARK    5  A    between atoms: C_19  and  S_21
REMARK    6  A    between atoms: S_21  and  C_22
REMARK    7  A    between atoms: C_22  and  C_23
REMARK    8  A    between atoms: N_25  and  N_26
REMARK    9  A    between atoms: C_27  and  C_28
REMARK   10  A    between atoms: C_31  and  O_36
REMARK   11  A    between atoms: C_32  and  O_34
REMARK   12  A    between atoms: O_34  and  C_35
REMARK                            x       y       z     vdW  Elec       q    Type
REMARK                         _______ _______ _______ _____ _____    ______ ____
ROOT
ATOM      1  C   UNL     1      -2.709   2.943   4.745  0.00  0.00    +0.004 A 
ATOM      2  C   UNL     1      -3.925   2.452   5.082  0.00  0.00    +0.056 A 
ATOM      3  S   UNL     1      -4.318   3.322   6.588  0.00  0.00    -0.076 S 
ATOM      4  C   UNL     1      -2.859   4.322   6.723  0.00  0.00    +0.117 A 
ATOM      5  C   UNL     1      -2.098   3.955   5.600  0.00  0.00    +0.080 A 
ATOM      6  C   UNL     1      -0.841   4.620   5.454  0.00  0.00    +0.261 A 
ATOM      7  O   UNL     1      -0.114   4.365   4.510  0.00  0.00    -0.267 OA
ATOM      8  N   UNL     1      -0.470   5.531   6.373  0.00  0.00    -0.301 N 
ATOM      9  H   UNL     1       0.382   5.984   6.277  0.00  0.00    +0.171 HD
ATOM     10  C   UNL     1      -1.272   5.829   7.436  0.00  0.00    +0.170 A 
ATOM     11  N   UNL     1      -2.435   5.231   7.595  0.00  0.00    -0.216 NA
ENDROOT
BRANCH   1  15
ATOM     12  C   UNL     1      -0.718   1.572   1.248  0.00  0.00    -0.045 A 
ATOM     13  C   UNL     1      -0.854   2.929   1.476  0.00  0.00    +0.004 A 
ATOM     14  C   UNL     1      -1.504   3.380   2.606  0.00  0.00    +0.009 A 
ATOM     15  C   UNL     1      -2.014   2.465   3.526  0.00  0.00    -0.017 A 
ATOM     16  C   UNL     1      -1.869   1.098   3.294  0.00  0.00    +0.009 A 
ATOM     17  C   UNL     1      -1.222   0.658   2.157  0.00  0.00    +0.004 A 
BRANCH  12  19
ATOM     18  C   UNL     1       1.423   1.615  -0.003  0.00  0.00    +0.012 C 
ATOM     19  C   UNL     1      -0.013   1.086   0.008  0.00  0.00    +0.013 C 
ATOM     20  C   UNL     1      -0.753   1.593  -1.232  0.00  0.00    +0.012 C 
ENDBRANCH  12  19
ENDBRANCH   1  15
BRANCH  10  21
ATOM     21  S   UNL     1      -0.744   7.029   8.614  0.00  0.00    -0.078 S 
BRANCH  21  22
ATOM     22  C   UNL     1      -2.156   7.001   9.746  0.00  0.00    +0.174 C 
BRANCH  22  23
ATOM     23  C   UNL     1      -1.920   7.980  10.867  0.00  0.00    +0.242 C 
ATOM     24  O   UNL     1      -0.898   8.632  10.898  0.00  0.00    -0.273 OA
ATOM     25  N   UNL     1      -2.845   8.131  11.836  0.00  0.00    -0.206 N 
ATOM     26  H   UNL     1      -3.663   7.609  11.811  0.00  0.00    +0.177 HD
BRANCH  25  27
ATOM     27  N   UNL     1      -2.626   9.040  12.878  0.00  0.00    -0.188 NA
ATOM     28  C   UNL     1      -3.517   9.186  13.811  0.00  0.00    +0.138 C 
BRANCH  28  29
ATOM     29  C   UNL     1      -3.286  10.143  14.908  0.00  0.00    -0.002 A 
ATOM     30  C   UNL     1      -2.107  10.891  14.948  0.00  0.00    +0.013 A 
ATOM     31  C   UNL     1      -1.895  11.790  15.972  0.00  0.00    +0.050 A 
ATOM     32  C   UNL     1      -2.847  11.947  16.970  0.00  0.00    +0.158 A 
ATOM     33  C   UNL     1      -4.022  11.200  16.939  0.00  0.00    +0.162 A 
ATOM     34  C   UNL     1      -4.244  10.301  15.913  0.00  0.00    +0.058 A 
BRANCH  33  35
ATOM     35  O   UNL     1      -4.952  11.356  17.919  0.00  0.00    -0.491 OA
ATOM     36  C   UNL     1      -6.134  10.558  17.825  0.00  0.00    +0.277 C 
ENDBRANCH  33  35
BRANCH  32  37
ATOM     37  O   UNL     1      -2.631  12.831  17.979  0.00  0.00    -0.503 OA
ATOM     38  H   UNL     1      -2.177  12.451  18.744  0.00  0.00    +0.292 HD
ENDBRANCH  32  37
ENDBRANCH  28  29
ENDBRANCH  25  27
ENDBRANCH  22  23
ENDBRANCH  21  22
ENDBRANCH  10  21
TORSDOF 9
