REMARK  Name = ZINC39676377
REMARK  8 active torsions:
REMARK  status: ('A' for Active; 'I' for Inactive)
REMARK    1  A    between atoms: C_1  and  C_2
REMARK    2  A    between atoms: C_2  and  C_3
REMARK    3  A    between atoms: C_3  and  C_4
REMARK    4  A    between atoms: C_4  and  C_5
REMARK    5  A    between atoms: C_9  and  C_18
REMARK    6  A    between atoms: N_20  and  C_21
REMARK    7  A    between atoms: C_21  and  C_22
REMARK    8  A    between atoms: C_22  and  C_23
REMARK                            x       y       z     vdW  Elec       q    Type
REMARK                         _______ _______ _______ _____ _____    ______ ____
ROOT
ATOM      1  C   UNL     1      -2.534  -2.615  -0.100  0.00  0.00    +0.216 C 
ATOM      2  O   UNL     1      -3.401  -1.766  -0.122  0.00  0.00    -0.276 OA
ATOM      3  N   UNL     1      -2.870  -3.919  -0.064  0.00  0.00    -0.300 N 
ATOM      4  C   UNL     1      -1.962  -5.090  -0.027  0.00  0.00    +0.121 C 
ATOM      5  C   UNL     1      -2.641  -6.080   0.946  0.00  0.00    +0.100 C 
ATOM      6  C   UNL     1      -4.129  -5.694   0.923  0.00  0.00    -0.004 C 
ATOM      7  C   UNL     1      -4.231  -4.508  -0.047  0.00  0.00    +0.115 C 
ATOM      8  C   UNL     1      -4.587  -5.270   2.315  0.00  0.00    -0.010 C 
ATOM      9  C   UNL     1      -6.083  -4.946   2.279  0.00  0.00    -0.082 C 
ATOM     10  N   UNL     1      -6.831  -6.128   1.835  0.00  0.00    +0.379 N 
ATOM     11  C   UNL     1      -6.451  -6.474   0.460  0.00  0.00    -0.082 C 
ATOM     12  C   UNL     1      -4.971  -6.862   0.419  0.00  0.00    -0.010 C 
ATOM     13  H   UNL     1      -6.623  -6.905   2.446  0.00  0.00    -0.086 HD
ATOM     14  H   UNL     1      -7.820  -5.932   1.871  0.00  0.00    -0.086 HD
ENDROOT
BRANCH   5  15
ATOM     15  C   UNL     1      -2.077  -5.921   2.334  0.00  0.00    +0.218 C 
ATOM     16  O   UNL     1      -1.665  -4.841   2.702  0.00  0.00    -0.275 OA
ATOM     17  N   UNL     1      -2.029  -6.980   3.167  0.00  0.00    -0.315 N 
ATOM     18  H   UNL     1      -2.358  -7.843   2.873  0.00  0.00    +0.149 HD
BRANCH  17  19
ATOM     19  C   UNL     1      -1.481  -6.825   4.517  0.00  0.00    +0.109 C 
BRANCH  19  20
ATOM     20  C   UNL     1      -1.543  -8.168   5.249  0.00  0.00    +0.056 C 
BRANCH  20  21
ATOM     21  C   UNL     1      -0.979  -8.009   6.638  0.00  0.00    -0.021 A 
ATOM     22  C   UNL     1      -1.702  -7.548   7.825  0.00  0.00    +0.004 A 
ATOM     23  C   UNL     1      -3.017  -7.142   8.062  0.00  0.00    +0.030 A 
ATOM     24  C   UNL     1      -3.393  -6.758   9.331  0.00  0.00    +0.042 A 
ATOM     25  C   UNL     1      -2.472  -6.772  10.370  0.00  0.00    +0.022 A 
ATOM     26  C   UNL     1      -1.171  -7.171  10.152  0.00  0.00    +0.027 A 
ATOM     27  C   UNL     1      -0.771  -7.564   8.879  0.00  0.00    +0.047 A 
ATOM     28  N   UNL     1       0.426  -8.003   8.357  0.00  0.00    -0.360 N 
ATOM     29  C   UNL     1       0.281  -8.268   7.022  0.00  0.00    +0.087 A 
ATOM     30 CL   UNL     1      -5.026  -6.251   9.631  0.00  0.00    -0.084 Cl
ATOM     31  H   UNL     1       1.248  -8.111   8.860  0.00  0.00    +0.165 HD
ENDBRANCH  20  21
ENDBRANCH  19  20
ENDBRANCH  17  19
ENDBRANCH   5  15
BRANCH   1  32
ATOM     32  C   UNL     1      -1.083  -2.210  -0.113  0.00  0.00    +0.096 C 
BRANCH  32  33
ATOM     33  C   UNL     1      -0.979  -0.684  -0.154  0.00  0.00    +0.009 C 
BRANCH  33  35
ATOM     34  C   UNL     1       0.598   1.253  -0.209  0.00  0.00    +0.004 C 
ATOM     35  C   UNL     1       0.494  -0.273  -0.167  0.00  0.00    -0.003 C 
ENDBRANCH  33  35
ENDBRANCH  32  33
ENDBRANCH   1  32
TORSDOF 7
