REMARK  Name = ZINC39681209
REMARK  6 active torsions:
REMARK  status: ('A' for Active; 'I' for Inactive)
REMARK    1  A    between atoms: C_5  and  O_7
REMARK    2  A    between atoms: O_7  and  C_8
REMARK    3  A    between atoms: C_8  and  C_9
REMARK    4  A    between atoms: C_9  and  N_10
REMARK    5  A    between atoms: C_11  and  C_13
REMARK    6  A    between atoms: C_24  and  C_26
REMARK                            x       y       z     vdW  Elec       q    Type
REMARK                         _______ _______ _______ _____ _____    ______ ____
ROOT
ATOM      1  C   UNL     1       2.206  -6.295   2.120  0.00  0.00    +0.100 C 
ATOM      2  C   UNL     1       3.574  -5.698   2.518  0.00  0.00    +0.121 C 
ATOM      3  N   UNL     1       4.282  -6.807   3.200  0.00  0.00    -0.296 N 
ATOM      4  C   UNL     1       3.927  -8.011   2.411  0.00  0.00    +0.115 C 
ATOM      5  C   UNL     1       2.442  -7.813   2.050  0.00  0.00    -0.004 C 
ATOM      6  C   UNL     1       1.553  -8.533   3.060  0.00  0.00    -0.010 C 
ATOM      7  C   UNL     1       1.764 -10.044   2.933  0.00  0.00    -0.082 C 
ATOM      8  N   UNL     1       1.435 -10.473   1.567  0.00  0.00    +0.379 N 
ATOM      9  C   UNL     1       2.355  -9.846   0.611  0.00  0.00    -0.082 C 
ATOM     10  C   UNL     1       2.169  -8.327   0.640  0.00  0.00    -0.010 C 
ATOM     11  C   UNL     1       5.070  -6.737   4.291  0.00  0.00    +0.247 C 
ATOM     12  O   UNL     1       5.164  -5.693   4.907  0.00  0.00    -0.270 OA
ATOM     13  H   UNL     1       1.516 -11.476   1.503  0.00  0.00    -0.086 HD
ATOM     14  H   UNL     1       0.489 -10.200   1.350  0.00  0.00    -0.086 HD
ENDROOT
BRANCH  11  15
ATOM     15  C   UNL     1       5.820  -7.929   4.739  0.00  0.00    +0.038 A 
ATOM     16  C   UNL     1       6.074  -8.973   3.848  0.00  0.00    +0.014 A 
ATOM     17  C   UNL     1       6.774 -10.083   4.271  0.00  0.00    +0.022 A 
ATOM     18  C   UNL     1       7.225 -10.164   5.578  0.00  0.00    +0.059 A 
ATOM     19  C   UNL     1       6.976  -9.132   6.468  0.00  0.00    +0.060 A 
ATOM     20  C   UNL     1       6.282  -8.013   6.054  0.00  0.00    +0.034 A 
ATOM     21 CL   UNL     1       7.545  -9.242   8.104  0.00  0.00    -0.082 Cl
ATOM     22 CL   UNL     1       8.104 -11.566   6.103  0.00  0.00    -0.082 Cl
ENDBRANCH  11  15
BRANCH   1  24
ATOM     23  N   UNL     1       0.464  -5.635   0.491  0.00  0.00    -0.312 N 
ATOM     24  C   UNL     1       1.775  -5.769   0.775  0.00  0.00    +0.218 C 
ATOM     25  O   UNL     1       2.608  -5.466  -0.053  0.00  0.00    -0.275 OA
ATOM     26  H   UNL     1      -0.202  -5.877   1.154  0.00  0.00    +0.149 HD
BRANCH  23  27
ATOM     27  C   UNL     1       0.046  -5.123  -0.816  0.00  0.00    +0.145 C 
BRANCH  27  28
ATOM     28  C   UNL     1      -1.482  -5.070  -0.878  0.00  0.00    +0.248 C 
BRANCH  28  29
ATOM     29  O   UNL     1      -1.964  -4.118   0.073  0.00  0.00    -0.489 OA
BRANCH  29  34
ATOM     30  C   UNL     1      -5.518  -4.506  -0.603  0.00  0.00    +0.004 A 
ATOM     31  C   UNL     1      -6.052  -3.600   0.296  0.00  0.00    +0.002 A 
ATOM     32  C   UNL     1      -5.218  -2.867   1.120  0.00  0.00    +0.023 A 
ATOM     33  C   UNL     1      -3.848  -3.039   1.048  0.00  0.00    +0.083 A 
ATOM     34  C   UNL     1      -3.311  -3.948   0.146  0.00  0.00    +0.139 A 
ATOM     35  C   UNL     1      -4.150  -4.681  -0.679  0.00  0.00    +0.047 A 
ATOM     36 CL   UNL     1      -2.801  -2.118   2.082  0.00  0.00    -0.080 Cl
ENDBRANCH  29  34
ENDBRANCH  28  29
ENDBRANCH  27  28
ENDBRANCH  23  27
ENDBRANCH   1  24
TORSDOF 6
