REMARK  Name = ZINC22369793
REMARK  12 active torsions:
REMARK  status: ('A' for Active; 'I' for Inactive)
REMARK    1  A    between atoms: C_1  and  C_2
REMARK    2  A    between atoms: C_2  and  C_38
REMARK    3  A    between atoms: C_4  and  N_15
REMARK    4  A    between atoms: C_8  and  O_13
REMARK    5  A    between atoms: O_13  and  C_14
REMARK    6  A    between atoms: C_16  and  C_18
REMARK    7  A    between atoms: C_18  and  N_19
REMARK    8  A    between atoms: N_19  and  C_20
REMARK    9  A    between atoms: N_19  and  S_27
REMARK   10  A    between atoms: S_27  and  C_30
REMARK   11  A    between atoms: C_33  and  O_36
REMARK   12  A    between atoms: O_36  and  C_37
REMARK                            x       y       z     vdW  Elec       q    Type
REMARK                         _______ _______ _______ _____ _____    ______ ____
ROOT
ATOM      1  C   UNL     1       7.150  -1.027  -3.730  0.00  0.00    +0.227 C 
ENDROOT
BRANCH   1   3
ATOM      2  N   UNL     1       6.250  -0.416  -5.952  0.00  0.00    -0.307 N 
ATOM      3  C   UNL     1       6.271  -0.190  -4.624  0.00  0.00    +0.233 C 
ATOM      4  O   UNL     1       5.583   0.688  -4.147  0.00  0.00    -0.274 OA
ATOM      5  H   UNL     1       6.875  -1.212  -6.384  0.00  0.00    +0.149 HD
BRANCH   2   9
ATOM      6  C   UNL     1       3.219   1.266  -8.460  0.00  0.00    +0.055 C 
ATOM      7  C   UNL     1       4.423   0.571  -9.099  0.00  0.00    +0.107 C 
ATOM      8  C   UNL     1       5.061  -0.391  -8.089  0.00  0.00    +0.074 C 
ATOM      9  C   UNL     1       5.396   0.398  -6.821  0.00  0.00    +0.111 C 
ATOM     10  C   UNL     1       6.120   1.668  -7.189  0.00  0.00    +0.018 A 
ATOM     11  C   UNL     1       6.833   2.336  -6.208  0.00  0.00    +0.054 A 
ATOM     12  C   UNL     1       7.508   3.507  -6.510  0.00  0.00    +0.121 A 
ATOM     13  C   UNL     1       7.469   4.014  -7.801  0.00  0.00    +0.049 A 
ATOM     14  C   UNL     1       6.759   3.349  -8.779  0.00  0.00    +0.049 A 
ATOM     15  C   UNL     1       6.083   2.171  -8.477  0.00  0.00    +0.126 A 
ATOM     16  O   UNL     1       5.399   1.544  -9.472  0.00  0.00    -0.486 OA
ATOM     17  C   UNL     1       3.972  -0.206 -10.338  0.00  0.00    +0.055 C 
BRANCH  12  18
ATOM     18  O   UNL     1       8.207   4.160  -5.543  0.00  0.00    -0.495 OA
ATOM     19  C   UNL     1       8.878   5.362  -5.927  0.00  0.00    +0.277 C 
ENDBRANCH  12  18
ENDBRANCH   2   9
ENDBRANCH   1   3
BRANCH   1  20
ATOM     20  N   UNL     1       6.995  -0.587  -2.341  0.00  0.00    -0.194 N 
BRANCH  20  21
ATOM     21  C   UNL     1       7.752   0.484  -1.858  0.00  0.00    +0.052 A 
ATOM     22  C   UNL     1       9.139   0.412  -1.859  0.00  0.00    +0.027 A 
ATOM     23  C   UNL     1       9.886   1.473  -1.386  0.00  0.00    +0.040 A 
ATOM     24  C   UNL     1       9.252   2.604  -0.900  0.00  0.00    +0.124 A 
ATOM     25  C   UNL     1       7.869   2.676  -0.893  0.00  0.00    +0.040 A 
ATOM     26  C   UNL     1       7.119   1.620  -1.371  0.00  0.00    +0.027 A 
ATOM     27  F   UNL     1       9.984   3.639  -0.433  0.00  0.00    -0.205 F 
ENDBRANCH  20  21
BRANCH  20  28
ATOM     28  S   UNL     1       5.921  -1.359  -1.344  0.00  0.00    +0.075 S 
ATOM     29  O   UNL     1       5.677  -0.481  -0.254  0.00  0.00    -0.150 OA
ATOM     30  O   UNL     1       4.878  -1.852  -2.174  0.00  0.00    -0.150 OA
BRANCH  28  31
ATOM     31  C   UNL     1       6.746  -2.768  -0.682  0.00  0.00    +0.109 A 
ATOM     32  C   UNL     1       6.626  -3.995  -1.307  0.00  0.00    +0.032 A 
ATOM     33  C   UNL     1       7.276  -5.101  -0.793  0.00  0.00    +0.047 A 
ATOM     34  C   UNL     1       8.041  -4.980   0.358  0.00  0.00    +0.120 A 
ATOM     35  C   UNL     1       8.156  -3.749   0.986  0.00  0.00    +0.047 A 
ATOM     36  C   UNL     1       7.508  -2.646   0.465  0.00  0.00    +0.032 A 
BRANCH  34  37
ATOM     37  O   UNL     1       8.678  -6.067   0.868  0.00  0.00    -0.495 OA
ATOM     38  C   UNL     1       8.515  -7.303   0.169  0.00  0.00    +0.277 C 
ENDBRANCH  34  37
ENDBRANCH  28  31
ENDBRANCH  20  28
ENDBRANCH   1  20
TORSDOF 8
