REMARK  Name = ZINC36017447
REMARK  13 active torsions:
REMARK  status: ('A' for Active; 'I' for Inactive)
REMARK    1  A    between atoms: C_1  and  C_2
REMARK    2  A    between atoms: C_2  and  O_3
REMARK    3  A    between atoms: O_3  and  C_4
REMARK    4  A    between atoms: C_4  and  C_6
REMARK    5  A    between atoms: C_7  and  C_23
REMARK    6  A    between atoms: N_8  and  C_20
REMARK    7  A    between atoms: C_12  and  C_14
REMARK    8  A    between atoms: C_20  and  C_21
REMARK    9  A    between atoms: C_23  and  N_24
REMARK   10  A    between atoms: N_33  and  C_34
REMARK   11  A    between atoms: C_34  and  C_35
REMARK   12  A    between atoms: C_34  and  C_36
REMARK   13  A    between atoms: C_34  and  C_37
REMARK                            x       y       z     vdW  Elec       q    Type
REMARK                         _______ _______ _______ _____ _____    ______ ____
ROOT
ATOM      1  C   UNL     1       2.655  -4.442  -3.011  0.00  0.00    +0.076 C 
ATOM      2  C   UNL     1       1.478  -3.963  -2.555  0.00  0.00    +0.011 C 
ATOM      3  N   UNL     1       1.001  -2.752  -2.968  0.00  0.00    -0.257 N 
ATOM      4  C   UNL     1       1.642  -1.959  -3.836  0.00  0.00    +0.307 C 
ATOM      5  O   UNL     1       1.138  -0.897  -4.145  0.00  0.00    -0.252 OA
ATOM      6  N   UNL     1       2.827  -2.300  -4.379  0.00  0.00    -0.288 N 
ATOM      7  C   UNL     1       3.431  -3.586  -3.992  0.00  0.00    +0.143 C 
ATOM      8  H   UNL     1       3.274  -1.710  -5.006  0.00  0.00    +0.151 HD
ENDROOT
BRANCH   7   9
ATOM      9  C   UNL     1       4.787  -3.308  -3.396  0.00  0.00    -0.023 A 
ATOM     10  C   UNL     1       4.931  -2.322  -2.438  0.00  0.00    +0.006 A 
ATOM     11  C   UNL     1       6.175  -2.067  -1.890  0.00  0.00    +0.000 A 
ATOM     12  C   UNL     1       7.274  -2.799  -2.301  0.00  0.00    +0.000 A 
ATOM     13  C   UNL     1       7.129  -3.785  -3.258  0.00  0.00    +0.000 A 
ATOM     14  C   UNL     1       5.885  -4.043  -3.802  0.00  0.00    +0.006 A 
ENDBRANCH   7   9
BRANCH   1  15
ATOM     15  C   UNL     1       3.150  -5.696  -2.584  0.00  0.00    +0.339 C 
ATOM     16  O   UNL     1       2.571  -6.313  -1.710  0.00  0.00    -0.245 OA
BRANCH  15  17
ATOM     17  O   UNL     1       4.266  -6.208  -3.145  0.00  0.00    -0.462 OA
BRANCH  17  19
ATOM     18  C   UNL     1       5.977  -7.893  -3.413  0.00  0.00    +0.048 C 
ATOM     19  C   UNL     1       4.709  -7.479  -2.664  0.00  0.00    +0.229 C 
ENDBRANCH  17  19
ENDBRANCH  15  17
ENDBRANCH   1  15
BRANCH   3  20
ATOM     20  C   UNL     1      -0.283  -2.295  -2.432  0.00  0.00    +0.141 C 
BRANCH  20  21
ATOM     21  C   UNL     1      -0.043  -1.417  -1.231  0.00  0.00    -0.015 C 
ATOM     22  C   UNL     1      -0.534  -0.204  -1.197  0.00  0.00    +0.005 C 
ENDBRANCH  20  21
ENDBRANCH   3  20
BRANCH   2  23
ATOM     23  C   UNL     1       0.676  -4.779  -1.573  0.00  0.00    -0.026 C 
BRANCH  23  24
ATOM     24  N   UNL     1      -0.309  -5.590  -2.301  0.00  0.00    +0.384 N 
ATOM     25  C   UNL     1      -1.237  -6.167  -1.331  0.00  0.00    -0.077 C 
ATOM     26  C   UNL     1      -2.586  -6.365  -1.987  0.00  0.00    +0.000 C 
ATOM     27  C   UNL     1      -2.678  -7.797  -2.546  0.00  0.00    +0.107 C 
ATOM     28  N   UNL     1      -1.398  -8.212  -3.157  0.00  0.00    -0.287 N 
ATOM     29  C   UNL     1      -0.607  -7.320  -3.979  0.00  0.00    +0.091 C 
ATOM     30  C   UNL     1       0.385  -6.531  -3.093  0.00  0.00    -0.059 C 
ATOM     31  C   UNL     1      -0.952  -9.465  -2.941  0.00  0.00    +0.303 C 
ATOM     32  O   UNL     1      -1.640 -10.259  -2.330  0.00  0.00    -0.253 OA
ATOM     33  N   UNL     1       0.259  -9.837  -3.402  0.00  0.00    -0.294 N 
ATOM     34  H   UNL     1       0.839  -9.185  -3.825  0.00  0.00    +0.151 HD
ATOM     35  H   UNL     1      -0.830  -4.981  -2.913  0.00  0.00    -0.081 HD
BRANCH  33  36
ATOM     36  C   UNL     1       0.699 -11.228  -3.264  0.00  0.00    +0.028 C 
ATOM     37  C   UNL     1      -0.276 -12.147  -4.001  0.00  0.00    +0.031 C 
ATOM     38  C   UNL     1       2.098 -11.382  -3.864  0.00  0.00    +0.031 C 
ATOM     39  C   UNL     1       0.735 -11.607  -1.782  0.00  0.00    +0.031 C 
ENDBRANCH  33  36
ENDBRANCH  23  24
ENDBRANCH   2  23
TORSDOF 9
