REMARK  Name = ZINC38581792
REMARK  7 active torsions:
REMARK  status: ('A' for Active; 'I' for Inactive)
REMARK    1  A    between atoms: C_1  and  C_2
REMARK    2  A    between atoms: C_5  and  C_38
REMARK    3  A    between atoms: C_6  and  S_8
REMARK    4  A    between atoms: S_8  and  C_11
REMARK    5  A    between atoms: N_23  and  N_27
REMARK    6  A    between atoms: C_24  and  N_26
REMARK    7  A    between atoms: C_28  and  C_29
REMARK                            x       y       z     vdW  Elec       q    Type
REMARK                         _______ _______ _______ _____ _____    ______ ____
ROOT
ATOM      1  C   UNL     1      -1.533  -3.946   2.638  0.00  0.00    +0.224 C 
ATOM      2  C   UNL     1      -1.389  -5.017   1.580  0.00  0.00    +0.111 A 
ATOM      3  C   UNL     1      -1.477  -6.269   2.209  0.00  0.00    +0.166 A 
ATOM      4  N   UNL     1      -1.379  -7.377   1.482  0.00  0.00    -0.227 NA
ATOM      5  C   UNL     1      -1.198  -7.298   0.161  0.00  0.00    +0.091 A 
ATOM      6  C   UNL     1      -1.093  -8.458  -0.627  0.00  0.00    +0.030 A 
ATOM      7  C   UNL     1      -0.910  -8.348  -1.971  0.00  0.00    +0.002 A 
ATOM      8  C   UNL     1      -0.823  -7.098  -2.582  0.00  0.00    +0.002 A 
ATOM      9  C   UNL     1      -0.920  -5.954  -1.851  0.00  0.00    +0.030 A 
ATOM     10  C   UNL     1      -1.111  -6.028  -0.462  0.00  0.00    +0.090 A 
ATOM     11  N   UNL     1      -1.210  -4.921   0.283  0.00  0.00    -0.245 NA
ATOM     12  N   UNL     1      -1.664  -6.139   3.576  0.00  0.00    -0.186 N 
ATOM     13  C   UNL     1      -1.716  -4.721   3.952  0.00  0.00    +0.195 C 
ENDROOT
BRANCH   1  14
ATOM     14  S   UNL     1      -0.037  -2.922   2.710  0.00  0.00    +0.009 S 
ATOM     15  O   UNL     1       1.121  -3.744   2.670  0.00  0.00    -0.169 OA
ATOM     16  O   UNL     1      -0.178  -1.917   3.705  0.00  0.00    -0.169 OA
BRANCH  14  22
ATOM     17  C   UNL     1       2.146  -1.783  -1.901  0.00  0.00    +0.044 C 
ATOM     18  C   UNL     1       1.027  -1.558  -0.917  0.00  0.00    -0.049 A 
ATOM     19  C   UNL     1       0.017  -0.661  -1.212  0.00  0.00    +0.004 A 
ATOM     20  C   UNL     1      -1.009  -0.455  -0.309  0.00  0.00    +0.005 A 
ATOM     21  C   UNL     1      -1.026  -1.145   0.888  0.00  0.00    -0.026 A 
ATOM     22  C   UNL     1      -0.016  -2.042   1.183  0.00  0.00    +0.092 A 
ATOM     23  C   UNL     1       1.008  -2.252   0.278  0.00  0.00    +0.030 A 
ATOM     24  C   UNL     1      -2.144  -0.920   1.873  0.00  0.00    +0.046 C 
ENDBRANCH  14  22
ENDBRANCH   1  14
BRANCH  13  25
ATOM     25  N   UNL     1      -3.016  -4.399   4.556  0.00  0.00    -0.309 NA
ATOM     26  H   UNL     1      -3.113  -4.837   5.459  0.00  0.00    +0.120 HD
ATOM     27  H   UNL     1      -3.147  -3.401   4.621  0.00  0.00    +0.120 HD
ENDBRANCH  13  25
BRANCH  12  28
ATOM     28  N   UNL     1      -1.779  -7.123   4.402  0.00  0.00    -0.185 NA
ATOM     29  C   UNL     1      -1.839  -6.894   5.692  0.00  0.00    +0.136 C 
BRANCH  29  30
ATOM     30  C   UNL     1      -1.871  -7.964   6.592  0.00  0.00    +0.000 C 
ATOM     31  C   UNL     1      -1.940  -7.895   7.984  0.00  0.00    +0.004 A 
ATOM     32  C   UNL     1      -1.998  -6.808   8.883  0.00  0.00    +0.010 A 
ATOM     33  C   UNL     1      -2.061  -7.042  10.219  0.00  0.00    +0.001 A 
ATOM     34  C   UNL     1      -2.070  -8.340  10.735  0.00  0.00    +0.002 A 
ATOM     35  C   UNL     1      -2.016  -9.430   9.930  0.00  0.00    +0.026 A 
ATOM     36  C   UNL     1      -1.950  -9.265   8.522  0.00  0.00    +0.043 A 
ATOM     37  N   UNL     1      -1.890 -10.145   7.543  0.00  0.00    -0.380 N 
ATOM     38  C   UNL     1      -1.843  -9.440   6.259  0.00  0.00    +0.150 C 
ATOM     39  H   UNL     1      -1.884 -11.109   7.655  0.00  0.00    +0.160 HD
ENDBRANCH  29  30
ENDBRANCH  12  28
TORSDOF 5
