REMARK  Name = ZINC39666381
REMARK  9 active torsions:
REMARK  status: ('A' for Active; 'I' for Inactive)
REMARK    1  A    between atoms: C_1  and  C_2
REMARK    2  A    between atoms: C_2  and  C_4
REMARK    3  A    between atoms: C_2  and  O_29
REMARK    4  A    between atoms: C_4  and  N_5
REMARK    5  A    between atoms: C_6  and  C_8
REMARK    6  A    between atoms: C_19  and  C_21
REMARK    7  A    between atoms: C_21  and  C_22
REMARK    8  A    between atoms: C_22  and  C_23
REMARK    9  A    between atoms: O_29  and  C_30
REMARK                            x       y       z     vdW  Elec       q    Type
REMARK                         _______ _______ _______ _____ _____    ______ ____
ROOT
ATOM      1  C   UNL     1      -1.894  -4.323   0.377  0.00  0.00    +0.100 C 
ATOM      2  C   UNL     1      -0.990  -4.845  -0.762  0.00  0.00    +0.121 C 
ATOM      3  N   UNL     1      -1.520  -6.193  -1.073  0.00  0.00    -0.300 N 
ATOM      4  C   UNL     1      -2.991  -6.042  -0.979  0.00  0.00    +0.115 C 
ATOM      5  C   UNL     1      -3.207  -5.110   0.230  0.00  0.00    -0.004 C 
ATOM      6  C   UNL     1      -4.368  -4.157  -0.039  0.00  0.00    -0.010 C 
ATOM      7  C   UNL     1      -5.671  -4.958  -0.122  0.00  0.00    -0.082 C 
ATOM      8  N   UNL     1      -5.886  -5.679   1.138  0.00  0.00    +0.379 N 
ATOM      9  C   UNL     1      -4.813  -6.660   1.343  0.00  0.00    -0.082 C 
ATOM     10  C   UNL     1      -3.474  -5.931   1.488  0.00  0.00    -0.010 C 
ATOM     11  C   UNL     1      -0.821  -7.306  -1.373  0.00  0.00    +0.216 C 
ATOM     12  O   UNL     1      -1.405  -8.344  -1.606  0.00  0.00    -0.276 OA
ATOM     13  H   UNL     1      -5.890  -5.021   1.903  0.00  0.00    -0.086 HD
ATOM     14  H   UNL     1      -6.774  -6.156   1.103  0.00  0.00    -0.086 HD
ENDROOT
BRANCH   1  16
ATOM     15  N   UNL     1      -2.413  -2.083   1.290  0.00  0.00    -0.312 N 
ATOM     16  C   UNL     1      -2.147  -2.846   0.211  0.00  0.00    +0.218 C 
ATOM     17  O   UNL     1      -2.111  -2.345  -0.892  0.00  0.00    -0.275 OA
ATOM     18  H   UNL     1      -2.441  -2.485   2.173  0.00  0.00    +0.149 HD
BRANCH  15  19
ATOM     19  C   UNL     1      -2.658  -0.648   1.130  0.00  0.00    +0.148 C 
BRANCH  19  21
ATOM     20  C   UNL     1      -3.311   1.450   2.318  0.00  0.00    +0.053 C 
ATOM     21  C   UNL     1      -2.932  -0.021   2.498  0.00  0.00    +0.187 C 
BRANCH  21  22
ATOM     22  O   UNL     1      -1.760  -0.116   3.309  0.00  0.00    -0.486 OA
BRANCH  22  23
ATOM     23  C   UNL     1      -1.938  -0.093   4.656  0.00  0.00    +0.139 A 
ATOM     24  C   UNL     1      -3.199   0.133   5.187  0.00  0.00    +0.047 A 
ATOM     25  C   UNL     1      -3.378   0.156   6.557  0.00  0.00    +0.004 A 
ATOM     26  C   UNL     1      -2.300  -0.046   7.399  0.00  0.00    +0.002 A 
ATOM     27  C   UNL     1      -1.041  -0.271   6.874  0.00  0.00    +0.023 A 
ATOM     28  C   UNL     1      -0.858  -0.301   5.504  0.00  0.00    +0.083 A 
ATOM     29 CL   UNL     1       0.721  -0.591   4.845  0.00  0.00    -0.080 Cl
ENDBRANCH  22  23
ENDBRANCH  21  22
ENDBRANCH  19  21
ENDBRANCH  15  19
ENDBRANCH   1  16
BRANCH  11  30
ATOM     30  C   UNL     1       0.684  -7.262  -1.420  0.00  0.00    +0.100 C 
BRANCH  30  31
ATOM     31  C   UNL     1       1.225  -8.647  -1.781  0.00  0.00    +0.044 C 
BRANCH  31  32
ATOM     32  C   UNL     1       2.730  -8.602  -1.827  0.00  0.00    -0.047 A 
ATOM     33  C   UNL     1       3.377  -8.290  -3.009  0.00  0.00    +0.003 A 
ATOM     34  C   UNL     1       4.758  -8.249  -3.051  0.00  0.00    +0.000 A 
ATOM     35  C   UNL     1       5.493  -8.519  -1.912  0.00  0.00    +0.000 A 
ATOM     36  C   UNL     1       4.846  -8.830  -0.730  0.00  0.00    +0.000 A 
ATOM     37  C   UNL     1       3.465  -8.867  -0.686  0.00  0.00    +0.003 A 
ENDBRANCH  31  32
ENDBRANCH  30  31
ENDBRANCH  11  30
TORSDOF 8
