REMARK  Name = ZINC14721606
REMARK  11 active torsions:
REMARK  status: ('A' for Active; 'I' for Inactive)
REMARK    1  A    between atoms: C_1  and  C_2
REMARK    2  A    between atoms: C_2  and  C_3
REMARK    3  A    between atoms: C_2  and  C_4
REMARK    4  A    between atoms: C_4  and  N_5
REMARK    5  A    between atoms: C_6  and  N_29
REMARK    6  A    between atoms: C_7  and  N_14
REMARK    7  A    between atoms: N_14  and  C_15
REMARK    8  A    between atoms: C_15  and  C_16
REMARK    9  A    between atoms: C_16  and  O_17
REMARK   10  A    between atoms: O_17  and  C_18
REMARK   11  A    between atoms: C_19  and  C_21
REMARK                            x       y       z     vdW  Elec       q    Type
REMARK                         _______ _______ _______ _____ _____    ______ ____
ROOT
ATOM      1  N   UNL     1       0.381  -1.126  -0.876  0.00  0.00    -0.280 N 
ATOM      2  C   UNL     1       0.194  -2.117   0.059  0.00  0.00    +0.127 A 
ATOM      3  C   UNL     1       1.014  -2.160   1.168  0.00  0.00    +0.140 A 
ATOM      4  C   UNL     1       2.020  -1.185   1.307  0.00  0.00    +0.277 A 
ATOM      5  O   UNL     1       2.759  -1.199   2.277  0.00  0.00    -0.266 OA
ATOM      6  N   UNL     1       2.161  -0.236   0.361  0.00  0.00    -0.273 N 
ATOM      7  H   UNL     1       2.873   0.460   0.461  0.00  0.00    +0.173 HD
ATOM      8  C   UNL     1       1.355  -0.213  -0.715  0.00  0.00    +0.331 A 
ATOM      9  O   UNL     1       1.508   0.652  -1.556  0.00  0.00    -0.246 OA
ENDROOT
BRANCH   3  10
ATOM     10  N   UNL     1       0.847  -3.163   2.145  0.00  0.00    -0.258 N 
ATOM     11  C   UNL     1       0.544  -2.824   3.414  0.00  0.00    +0.251 C 
ATOM     12  O   UNL     1       0.453  -3.685   4.268  0.00  0.00    -0.270 OA
BRANCH  11  13
ATOM     13  C   UNL     1       0.324  -1.406   3.767  0.00  0.00    +0.039 A 
ATOM     14  C   UNL     1      -0.083  -0.495   2.790  0.00  0.00    +0.014 A 
ATOM     15  C   UNL     1      -0.294   0.825   3.126  0.00  0.00    +0.022 A 
ATOM     16  C   UNL     1      -0.091   1.252   4.428  0.00  0.00    +0.059 A 
ATOM     17  C   UNL     1       0.318   0.354   5.402  0.00  0.00    +0.060 A 
ATOM     18  C   UNL     1       0.526  -0.971   5.078  0.00  0.00    +0.034 A 
ATOM     19 CL   UNL     1       0.568   0.898   7.032  0.00  0.00    -0.082 Cl
ATOM     20 CL   UNL     1      -0.351   2.918   4.842  0.00  0.00    -0.082 Cl
ENDBRANCH  11  13
BRANCH  10  21
ATOM     21  C   UNL     1       1.003  -4.573   1.781  0.00  0.00    +0.142 C 
BRANCH  21  22
ATOM     22  C   UNL     1       2.484  -4.953   1.833  0.00  0.00    +0.179 C 
BRANCH  22  23
ATOM     23  O   UNL     1       2.954  -4.856   3.180  0.00  0.00    -0.381 OA
ATOM     24  C   UNL     1       4.334  -5.191   3.340  0.00  0.00    +0.194 C 
ENDBRANCH  22  23
ENDBRANCH  21  22
ENDBRANCH  10  21
ENDBRANCH   3  10
BRANCH   2  25
ATOM     25  N   UNL     1      -0.798  -3.053  -0.109  0.00  0.00    -0.343 N 
ATOM     26  H   UNL     1      -1.276  -3.108  -0.951  0.00  0.00    +0.144 HD
ATOM     27  H   UNL     1      -1.020  -3.660   0.615  0.00  0.00    +0.144 HD
ENDBRANCH   2  25
BRANCH   1  28
ATOM     28  C   UNL     1      -0.482  -1.069  -2.059  0.00  0.00    +0.131 C 
BRANCH  28  30
ATOM     29  C   UNL     1      -2.542  -0.038  -3.026  0.00  0.00    +0.009 C 
ATOM     30  C   UNL     1      -1.705  -0.200  -1.756  0.00  0.00    +0.003 C 
ATOM     31  C   UNL     1      -2.550  -0.869  -0.670  0.00  0.00    +0.009 C 
ENDBRANCH  28  30
ENDBRANCH   1  28
TORSDOF 8
