REMARK  Name = ZINC00891186
REMARK  7 active torsions:
REMARK  status: ('A' for Active; 'I' for Inactive)
REMARK    1  A    between atoms: C_1  and  C_2
REMARK    2  A    between atoms: C_7  and  N_8
REMARK    3  A    between atoms: C_9  and  C_11
REMARK    4  A    between atoms: C_12  and  C_35
REMARK    5  A    between atoms: C_16  and  C_18
REMARK    6  A    between atoms: C_31  and  C_33
REMARK    7  A    between atoms: C_31  and  C_34
REMARK                            x       y       z     vdW  Elec       q    Type
REMARK                         _______ _______ _______ _____ _____    ______ ____
ROOT
ATOM      1  C   UNL     1      -1.929   2.225   3.388  0.00  0.00    +0.043 C 
ATOM      2  C   UNL     1      -0.603   2.026   3.311  0.00  0.00    +0.014 C 
ATOM      3  N   UNL     1       0.002   1.848   2.097  0.00  0.00    -0.321 N 
ATOM      4  C   UNL     1      -0.730   1.473   1.002  0.00  0.00    +0.016 C 
ATOM      5  C   UNL     1      -2.067   1.650   0.980  0.00  0.00    +0.024 C 
ATOM      6  C   UNL     1      -2.783   2.267   2.155  0.00  0.00    +0.091 C 
ATOM      7  C   UNL     1      -2.831   1.266  -0.136  0.00  0.00    +0.162 C 
ATOM      8  O   UNL     1      -4.035   1.423  -0.118  0.00  0.00    -0.292 OA
ATOM      9  C   UNL     1      -2.182   0.664  -1.353  0.00  0.00    +0.086 C 
ATOM     10  C   UNL     1      -0.748   1.191  -1.465  0.00  0.00    -0.023 C 
ATOM     11  C   UNL     1      -0.006   0.857  -0.169  0.00  0.00    +0.058 C 
ATOM     12  C   UNL     1      -0.772   2.708  -1.668  0.00  0.00    +0.011 C 
ATOM     13  C   UNL     1      -0.042   0.526  -2.648  0.00  0.00    +0.011 C 
ATOM     14  C   UNL     1       0.224   1.998   4.571  0.00  0.00    +0.061 C 
ATOM     15  H   UNL     1       1.086   2.006   1.994  0.00  0.00    +0.152 HD
ENDROOT
BRANCH   6  16
ATOM     16  C   UNL     1      -3.118   3.700   1.834  0.00  0.00    -0.018 A 
ATOM     17  C   UNL     1      -2.103   4.615   1.623  0.00  0.00    +0.055 A 
ATOM     18  C   UNL     1      -2.408   5.934   1.328  0.00  0.00    +0.167 A 
ATOM     19  C   UNL     1      -3.739   6.335   1.242  0.00  0.00    +0.167 A 
ATOM     20  C   UNL     1      -4.751   5.413   1.454  0.00  0.00    +0.065 A 
ATOM     21  C   UNL     1      -4.439   4.096   1.744  0.00  0.00    +0.026 A 
ATOM     22 BR   UNL     1      -5.823   2.838   2.024  0.00  0.00    -0.050 Br
ATOM     23  O   UNL     1      -3.776   7.666   0.942  0.00  0.00    -0.453 OA
ATOM     24  C   UNL     1      -2.460   8.165   1.247  0.00  0.00    +0.466 C 
ATOM     25  O   UNL     1      -1.611   7.014   1.081  0.00  0.00    -0.453 OA
ENDBRANCH   6  16
BRANCH   1  27
ATOM     26  N   UNL     1      -2.536   3.612   5.242  0.00  0.00    -0.281 N 
ATOM     27  C   UNL     1      -2.533   2.398   4.658  0.00  0.00    +0.247 C 
ATOM     28  O   UNL     1      -3.049   1.450   5.221  0.00  0.00    -0.270 OA
ATOM     29  H   UNL     1      -2.127   4.482   4.707  0.00  0.00    +0.155 HD
BRANCH  26  36
ATOM     30  C   UNL     1      -1.313   5.512   6.971  0.00  0.00    +0.045 C 
ATOM     31  C   UNL     1      -2.494   4.684   7.406  0.00  0.00    -0.029 A 
ATOM     32  C   UNL     1      -3.018   4.838   8.674  0.00  0.00    +0.005 A 
ATOM     33  C   UNL     1      -4.098   4.074   9.076  0.00  0.00    +0.000 A 
ATOM     34  C   UNL     1      -4.661   3.157   8.207  0.00  0.00    +0.002 A 
ATOM     35  C   UNL     1      -4.146   3.001   6.936  0.00  0.00    +0.023 A 
ATOM     36  C   UNL     1      -3.061   3.768   6.529  0.00  0.00    +0.037 A 
ENDBRANCH  26  36
ENDBRANCH   1  27
TORSDOF 3
