REMARK  Name = ZINC38743549
REMARK  6 active torsions:
REMARK  status: ('A' for Active; 'I' for Inactive)
REMARK    1  A    between atoms: C_1  and  O_2
REMARK    2  A    between atoms: O_2  and  C_3
REMARK    3  A    between atoms: C_6  and  C_9
REMARK    4  A    between atoms: C_11  and  C_15
REMARK    5  A    between atoms: C_23  and  C_25
REMARK    6  A    between atoms: C_26  and  C_27
REMARK                            x       y       z     vdW  Elec       q    Type
REMARK                         _______ _______ _______ _____ _____    ______ ____
ROOT
ATOM      1  C   UNL     1       4.797  -4.741   5.501  0.00  0.00    +0.206 C 
ATOM      2  N   UNL     1       4.569  -6.064   4.873  0.00  0.00    -0.231 NA
ATOM      3  N   UNL     1       5.007  -7.074   5.851  0.00  0.00    -0.224 NA
ATOM      4  C   UNL     1       4.887  -6.362   7.139  0.00  0.00    +0.240 C 
ATOM      5  N   UNL     1       5.467  -5.022   6.791  0.00  0.00    -0.206 N 
ATOM      6  N   UNL     1       6.421  -4.581   7.683  0.00  0.00    -0.174 NA
ATOM      7  C   UNL     1       6.999  -5.370   8.548  0.00  0.00    +0.118 C 
ATOM      8  S   UNL     1       6.124  -6.955   8.352  0.00  0.00    -0.063 S 
ATOM      9  H   UNL     1       5.085  -6.148   4.010  0.00  0.00    +0.143 HD
ATOM     10  H   UNL     1       4.406  -7.884   5.828  0.00  0.00    +0.144 HD
ENDROOT
BRANCH   1  13
ATOM     11  C   UNL     1       2.577  -2.541   4.295  0.00  0.00    +0.091 C 
ATOM     12  C   UNL     1       2.697  -3.875   4.440  0.00  0.00    +0.034 C 
ATOM     13  C   UNL     1       3.462  -4.032   5.742  0.00  0.00    +0.190 C 
ATOM     14  N   UNL     1       3.679  -2.642   6.174  0.00  0.00    -0.176 NA
ATOM     15  N   UNL     1       3.173  -1.896   5.332  0.00  0.00    -0.154 NA
BRANCH  11  19
ATOM     16  C   UNL     1       0.626  -0.618   1.041  0.00  0.00    +0.120 A 
ATOM     17  C   UNL     1       1.202   0.142   2.050  0.00  0.00    +0.046 A 
ATOM     18  C   UNL     1       1.835  -0.479   3.107  0.00  0.00    +0.013 A 
ATOM     19  C   UNL     1       1.896  -1.870   3.161  0.00  0.00    +0.002 A 
ATOM     20  C   UNL     1       1.317  -2.631   2.146  0.00  0.00    +0.013 A 
ATOM     21  C   UNL     1       0.681  -2.005   1.095  0.00  0.00    +0.046 A 
BRANCH  16  23
ATOM     22  C   UNL     1      -0.017   1.425   0.010  0.00  0.00    +0.277 C 
ATOM     23  O   UNL     1       0.002  -0.004   0.002  0.00  0.00    -0.495 OA
ENDBRANCH  16  23
ENDBRANCH  11  19
ENDBRANCH   1  13
BRANCH   7  24
ATOM     24  C   UNL     1       8.092  -5.052   9.471  0.00  0.00    +0.037 C 
ATOM     25  C   UNL     1       8.619  -3.812   9.490  0.00  0.00    +0.012 C 
BRANCH  25  26
ATOM     26  C   UNL     1       9.717  -3.493  10.417  0.00  0.00    -0.007 A 
ATOM     27  C   UNL     1      10.219  -4.475  11.276  0.00  0.00    +0.011 A 
ATOM     28  C   UNL     1      11.247  -4.169  12.142  0.00  0.00    +0.020 A 
ATOM     29  C   UNL     1      11.783  -2.892  12.163  0.00  0.00    +0.042 A 
ATOM     30  C   UNL     1      11.292  -1.913  11.316  0.00  0.00    +0.040 A 
ATOM     31  C   UNL     1      10.267  -2.207  10.439  0.00  0.00    +0.049 A 
ATOM     32 CL   UNL     1       9.657  -0.981   9.371  0.00  0.00    -0.083 Cl
ATOM     33 CL   UNL     1      13.078  -2.516  13.257  0.00  0.00    -0.083 Cl
ENDBRANCH  25  26
ENDBRANCH   7  24
TORSDOF 5
