REMARK  Name = ZINC03056561
REMARK  7 active torsions:
REMARK  status: ('A' for Active; 'I' for Inactive)
REMARK    1  A    between atoms: C_1  and  N_2
REMARK    2  A    between atoms: N_2  and  C_3
REMARK    3  A    between atoms: N_2  and  C_4
REMARK    4  A    between atoms: C_7  and  C_10
REMARK    5  A    between atoms: N_11  and  N_12
REMARK    6  A    between atoms: C_13  and  C_15
REMARK    7  A    between atoms: C_15  and  C_16
REMARK                            x       y       z     vdW  Elec       q    Type
REMARK                         _______ _______ _______ _____ _____    ______ ____
ROOT
ATOM      1  N   UNL     1       2.405  -4.189  -0.043  0.00  0.00    -0.207 N 
ATOM      2  C   UNL     1       3.583  -4.844  -0.057  0.00  0.00    +0.231 C 
ATOM      3  O   UNL     1       4.623  -4.220  -0.064  0.00  0.00    -0.274 OA
ATOM      4  H   UNL     1       1.573  -4.688  -0.037  0.00  0.00    +0.177 HD
ENDROOT
BRANCH   1   6
ATOM      5  C   UNL     1       1.247  -2.158  -0.021  0.00  0.00    +0.138 C 
ATOM      6  N   UNL     1       2.381  -2.789  -0.035  0.00  0.00    -0.188 NA
BRANCH   5  10
ATOM      7  C   UNL     1       1.177   2.087   0.002  0.00  0.00    +0.029 A 
ATOM      8  C   UNL     1      -0.017   1.373   0.010  0.00  0.00    +0.024 A 
ATOM      9  C   UNL     1       0.002  -0.004   0.002  0.00  0.00    +0.011 A 
ATOM     10  C   UNL     1       1.223  -0.685  -0.013  0.00  0.00    -0.005 A 
ATOM     11  C   UNL     1       2.421   0.036  -0.021  0.00  0.00    +0.011 A 
ATOM     12  C   UNL     1       2.394   1.413  -0.013  0.00  0.00    +0.024 A 
BRANCH   7  14
ATOM     13  C   UNL     1      -0.126   4.193   0.025  0.00  0.00    +0.129 C 
ATOM     14  N   UNL     1       1.155   3.481   0.009  0.00  0.00    -0.336 N 
ATOM     15  C   UNL     1       2.411   4.234   0.001  0.00  0.00    +0.129 C 
ENDBRANCH   7  14
ENDBRANCH   5  10
ENDBRANCH   1   6
BRANCH   2  16
ATOM     16  C   UNL     1       3.607  -6.351  -0.065  0.00  0.00    +0.091 C 
BRANCH  16  17
ATOM     17  C   UNL     1       5.058  -6.837  -0.082  0.00  0.00    +0.025 C 
ATOM     18  C   UNL     1       5.081  -8.332  -0.226  0.00  0.00    +0.199 C 
ATOM     19  O   UNL     1       4.322  -8.852  -1.017  0.00  0.00    -0.278 OA
ATOM     20  N   UNL     1       5.903  -9.115   0.481  0.00  0.00    -0.318 N 
ATOM     21  C   UNL     1       6.828  -8.593   1.483  0.00  0.00    +0.085 C 
ATOM     22  C   UNL     1       7.036  -7.092   1.274  0.00  0.00    -0.063 C 
ATOM     23  H   UNL     1       5.884 -10.071   0.322  0.00  0.00    +0.149 HD
ATOM     24  N   UNL     1       5.717  -6.440   1.173  0.00  0.00    +0.388 N 
ATOM     25  H   UNL     1       5.134  -6.725   1.969  0.00  0.00    -0.085 HD
ATOM     26  H   UNL     1       5.839  -5.421   1.186  0.00  0.00    -0.085 HD
ENDBRANCH  16  17
ENDBRANCH   2  16
TORSDOF 5
