REMARK  Name = ZINC20257970
REMARK  4 active torsions:
REMARK  status: ('A' for Active; 'I' for Inactive)
REMARK    1  A    between atoms: C_1  and  C_2
REMARK    2  A    between atoms: N_8  and  S_9
REMARK    3  A    between atoms: S_9  and  N_12
REMARK    4  A    between atoms: N_12  and  C_13
REMARK                            x       y       z     vdW  Elec       q    Type
REMARK                         _______ _______ _______ _____ _____    ______ ____
ROOT
ATOM      1  S   UNL     1       3.569  -0.497   1.950  0.00  0.00    +0.047 S 
ATOM      2  O   UNL     1       3.567  -1.827   2.452  0.00  0.00    -0.169 OA
ATOM      3  O   UNL     1       4.271  -0.129   0.771  0.00  0.00    -0.169 OA
ENDROOT
BRANCH   1  10
ATOM      4  C   UNL     1       2.908   1.819   0.463  0.00  0.00    -0.010 C 
ATOM      5  C   UNL     1       1.637   1.165   1.010  0.00  0.00    -0.039 C 
ATOM      6  C   UNL     1       0.691   0.833  -0.149  0.00  0.00    -0.012 C 
ATOM      7  C   UNL     1      -0.513   0.056   0.388  0.00  0.00    -0.003 C 
ATOM      8  C   UNL     1      -0.037  -1.257   1.014  0.00  0.00    -0.015 C 
ATOM      9  C   UNL     1       0.900  -0.949   2.185  0.00  0.00    -0.043 C 
ATOM     10  N   UNL     1       1.985  -0.080   1.708  0.00  0.00    +0.444 N 
ATOM     11  H   UNL     1       0.932   0.199   1.549  0.00  0.00    -0.043 HD
ENDBRANCH   1  10
BRANCH   1  12
ATOM     12  N   UNL     1       4.148   0.467   3.166  0.00  0.00    -0.115 NA
BRANCH  12  13
ATOM     13  C   UNL     1       3.549   0.435   4.428  0.00  0.00    +0.086 A 
ATOM     14  C   UNL     1       3.049  -0.759   4.932  0.00  0.00    +0.028 A 
ATOM     15  C   UNL     1       2.461  -0.788   6.181  0.00  0.00    +0.002 A 
ATOM     16  C   UNL     1       2.360   0.373   6.927  0.00  0.00    +0.001 A 
ATOM     17  C   UNL     1       2.852   1.565   6.427  0.00  0.00    +0.017 A 
ATOM     18  C   UNL     1       3.446   1.600   5.180  0.00  0.00    +0.042 A 
ATOM     19 BR   UNL     1       4.116   3.230   4.496  0.00  0.00    -0.048 Br
ENDBRANCH  12  13
ENDBRANCH   1  12
TORSDOF 3
