REMARK  Name = ZINC39684081
REMARK  6 active torsions:
REMARK  status: ('A' for Active; 'I' for Inactive)
REMARK    1  A    between atoms: C_1  and  C_2
REMARK    2  A    between atoms: C_7  and  C_11
REMARK    3  A    between atoms: C_11  and  C_12
REMARK    4  A    between atoms: C_12  and  N_13
REMARK    5  A    between atoms: C_14  and  C_16
REMARK    6  A    between atoms: C_27  and  C_29
REMARK                            x       y       z     vdW  Elec       q    Type
REMARK                         _______ _______ _______ _____ _____    ______ ____
ROOT
ATOM      1  C   UNL     1      -8.814   1.383  -5.665  0.00  0.00    +0.100 C 
ATOM      2  C   UNL     1     -10.076   2.031  -5.052  0.00  0.00    +0.121 C 
ATOM      3  N   UNL     1     -11.188   1.583  -5.923  0.00  0.00    -0.296 N 
ATOM      4  C   UNL     1     -10.863   0.172  -6.239  0.00  0.00    +0.115 C 
ATOM      5  C   UNL     1      -9.335   0.163  -6.444  0.00  0.00    -0.004 C 
ATOM      6  C   UNL     1      -9.000   0.300  -7.926  0.00  0.00    -0.010 C 
ATOM      7  C   UNL     1      -9.477  -0.951  -8.669  0.00  0.00    -0.082 C 
ATOM      8  N   UNL     1      -8.822  -2.137  -8.106  0.00  0.00    +0.379 N 
ATOM      9  C   UNL     1      -9.223  -2.313  -6.705  0.00  0.00    -0.082 C 
ATOM     10  C   UNL     1      -8.735  -1.120  -5.878  0.00  0.00    -0.010 C 
ATOM     11  C   UNL     1     -12.254   2.298  -6.335  0.00  0.00    +0.247 C 
ATOM     12  O   UNL     1     -12.317   3.488  -6.094  0.00  0.00    -0.270 OA
ATOM     13  H   UNL     1      -9.091  -2.952  -8.636  0.00  0.00    -0.086 HD
ATOM     14  H   UNL     1      -7.821  -2.022  -8.156  0.00  0.00    -0.086 HD
ENDROOT
BRANCH  11  15
ATOM     15  C   UNL     1     -13.345   1.635  -7.078  0.00  0.00    +0.037 A 
ATOM     16  C   UNL     1     -13.517   0.243  -6.972  0.00  0.00    +0.013 A 
ATOM     17  C   UNL     1     -14.512  -0.389  -7.645  0.00  0.00    +0.009 A 
ATOM     18  C   UNL     1     -15.388   0.349  -8.463  0.00  0.00    -0.018 A 
ATOM     19  C   UNL     1     -16.425  -0.282  -9.169  0.00  0.00    +0.008 A 
ATOM     20  C   UNL     1     -17.257   0.458  -9.952  0.00  0.00    +0.001 A 
ATOM     21  C   UNL     1     -17.097   1.838 -10.066  0.00  0.00    +0.001 A 
ATOM     22  C   UNL     1     -16.104   2.485  -9.397  0.00  0.00    +0.008 A 
ATOM     23  C   UNL     1     -15.225   1.753  -8.578  0.00  0.00    -0.017 A 
ATOM     24  C   UNL     1     -14.194   2.390  -7.870  0.00  0.00    +0.021 A 
ENDBRANCH  11  15
BRANCH   1  26
ATOM     25  N   UNL     1      -6.539   0.928  -4.808  0.00  0.00    -0.315 N 
ATOM     26  C   UNL     1      -7.867   0.946  -4.578  0.00  0.00    +0.218 C 
ATOM     27  O   UNL     1      -8.299   0.611  -3.495  0.00  0.00    -0.275 OA
ATOM     28  H   UNL     1      -6.193   1.196  -5.674  0.00  0.00    +0.149 HD
BRANCH  25  29
ATOM     29  C   UNL     1      -5.618   0.504  -3.751  0.00  0.00    +0.109 C 
BRANCH  29  30
ATOM     30  C   UNL     1      -4.180   0.575  -4.268  0.00  0.00    +0.056 C 
BRANCH  30  37
ATOM     31  C   UNL     1      -0.440  -2.243  -0.097  0.00  0.00    +0.046 C 
ATOM     32  C   UNL     1      -1.402  -2.316  -1.255  0.00  0.00    -0.027 A 
ATOM     33  C   UNL     1      -1.743  -3.537  -1.794  0.00  0.00    +0.005 A 
ATOM     34  C   UNL     1      -2.627  -3.618  -2.861  0.00  0.00    +0.001 A 
ATOM     35  C   UNL     1      -3.175  -2.486  -3.395  0.00  0.00    +0.010 A 
ATOM     36  C   UNL     1      -2.844  -1.239  -2.865  0.00  0.00    +0.003 A 
ATOM     37  C   UNL     1      -3.232   0.138  -3.181  0.00  0.00    -0.021 A 
ATOM     38  C   UNL     1      -2.584   0.937  -2.319  0.00  0.00    +0.087 A 
ATOM     39  N   UNL     1      -1.812   0.184  -1.476  0.00  0.00    -0.360 N 
ATOM     40  C   UNL     1      -1.952  -1.151  -1.780  0.00  0.00    +0.050 A 
ATOM     41  H   UNL     1      -1.252   0.539  -0.768  0.00  0.00    +0.165 HD
ENDBRANCH  30  37
ENDBRANCH  29  30
ENDBRANCH  25  29
ENDBRANCH   1  26
TORSDOF 5
