REMARK  Name = ZINC49457818
REMARK  2 active torsions:
REMARK  status: ('A' for Active; 'I' for Inactive)
REMARK    1  A    between atoms: C_1  and  C_2
REMARK    2  A    between atoms: C_4  and  C_8
REMARK                            x       y       z     vdW  Elec       q    Type
REMARK                         _______ _______ _______ _____ _____    ______ ____
ROOT
ATOM      1  C   UNL     1       0.041  -3.356  -1.443  0.00  0.00    +0.266 C 
ATOM      2  O   UNL     1      -0.056  -3.303  -2.655  0.00  0.00    -0.268 OA
ATOM      3  N   UNL     1       0.162  -4.550  -0.829  0.00  0.00    -0.293 N 
ATOM      4  C   UNL     1       0.161  -4.583   0.606  0.00  0.00    +0.112 C 
ATOM      5  C   UNL     1       1.044  -5.655   1.168  0.00  0.00    +0.007 C 
ATOM      6  C   UNL     1       2.409  -5.708   0.501  0.00  0.00    +0.008 C 
ATOM      7  C   UNL     1       2.463  -6.579  -0.739  0.00  0.00    -0.009 C 
ATOM      8  C   UNL     1       1.856  -7.958  -0.468  0.00  0.00    +0.007 C 
ATOM      9  C   UNL     1       0.403  -7.737  -0.040  0.00  0.00    -0.009 C 
ATOM     10  C   UNL     1       0.405  -7.008   1.305  0.00  0.00    +0.008 C 
ATOM     11  C   UNL     1      -0.368  -6.947  -1.071  0.00  0.00    +0.026 C 
ATOM     12  C   UNL     1       0.282  -5.741  -1.651  0.00  0.00    +0.077 C 
ATOM     13  C   UNL     1       1.754  -5.975  -1.942  0.00  0.00    +0.026 C 
ENDROOT
BRANCH   1  17
ATOM     14  C   UNL     1      -1.331   0.486   1.570  0.00  0.00    +0.068 C 
ATOM     15  C   UNL     1      -0.556  -0.436   0.664  0.00  0.00    +0.074 A 
ATOM     16  C   UNL     1      -1.028  -1.625   0.101  0.00  0.00    +0.070 A 
ATOM     17  C   UNL     1       0.026  -2.119  -0.649  0.00  0.00    +0.135 A 
ATOM     18  N   UNL     1       1.050  -1.226  -0.502  0.00  0.00    -0.271 N 
ATOM     19  H   UNL     1       1.925  -1.305  -0.913  0.00  0.00    +0.189 HD
ATOM     20  N   UNL     1       0.676  -0.262   0.260  0.00  0.00    -0.177 NA
ATOM     21 BR   UNL     1      -2.742  -2.394   0.317  0.00  0.00    -0.046 Br
ENDBRANCH   1  17
TORSDOF 1
