REMARK  Name = ZINC36545269
REMARK  9 active torsions:
REMARK  status: ('A' for Active; 'I' for Inactive)
REMARK    1  A    between atoms: C_1  and  C_2
REMARK    2  A    between atoms: C_3  and  C_4
REMARK    3  A    between atoms: C_4  and  C_6
REMARK    4  A    between atoms: C_4  and  N_15
REMARK    5  A    between atoms: N_8  and  C_9
REMARK    6  A    between atoms: N_15  and  C_16
REMARK    7  A    between atoms: C_23  and  C_25
REMARK    8  A    between atoms: C_26  and  O_32
REMARK    9  A    between atoms: C_30  and  O_31
REMARK                            x       y       z     vdW  Elec       q    Type
REMARK                         _______ _______ _______ _____ _____    ______ ____
ROOT
ATOM      1  N   UNL     1      -0.263  -2.733  -0.063  0.00  0.00    -0.250 N 
ATOM      2  C   UNL     1      -0.056  -2.511   1.250  0.00  0.00    +0.259 C 
ATOM      3  O   UNL     1       0.957  -1.949   1.620  0.00  0.00    -0.269 OA
ENDROOT
BRANCH   1   4
ATOM      4  C   UNL     1      -1.476  -3.280  -0.497  0.00  0.00    +0.056 A 
ATOM      5  C   UNL     1      -2.569  -2.455  -0.726  0.00  0.00    +0.025 A 
ATOM      6  C   UNL     1      -3.764  -2.998  -1.155  0.00  0.00    +0.002 A 
ATOM      7  C   UNL     1      -3.874  -4.362  -1.356  0.00  0.00    +0.002 A 
ATOM      8  C   UNL     1      -2.788  -5.187  -1.129  0.00  0.00    +0.022 A 
ATOM      9  C   UNL     1      -1.587  -4.650  -0.706  0.00  0.00    +0.062 A 
ATOM     10 CL   UNL     1      -0.221  -5.685  -0.427  0.00  0.00    -0.082 Cl
ENDBRANCH   1   4
BRANCH   2  11
ATOM     11  C   UNL     1      -1.056  -2.950   2.238  0.00  0.00    +0.120 A 
ATOM     12  C   UNL     1      -0.929  -4.199   2.864  0.00  0.00    +0.133 A 
ATOM     13  C   UNL     1      -1.875  -4.602   3.792  0.00  0.00    +0.046 A 
ATOM     14  C   UNL     1      -2.942  -3.779   4.101  0.00  0.00    +0.007 A 
ATOM     15  C   UNL     1      -3.076  -2.546   3.490  0.00  0.00    +0.046 A 
ATOM     16  C   UNL     1      -2.138  -2.120   2.564  0.00  0.00    +0.133 A 
BRANCH  16  17
ATOM     17  O   UNL     1      -2.269  -0.908   1.970  0.00  0.00    -0.506 OA
ATOM     18  H   UNL     1      -2.857  -0.908   1.202  0.00  0.00    +0.292 HD
ENDBRANCH  16  17
BRANCH  12  19
ATOM     19  O   UNL     1       0.116  -5.009   2.562  0.00  0.00    -0.506 OA
ATOM     20  H   UNL     1       0.894  -4.872   3.120  0.00  0.00    +0.292 HD
ENDBRANCH  12  19
ENDBRANCH   2  11
BRANCH   1  21
ATOM     21  C   UNL     1       0.781  -2.401  -1.035  0.00  0.00    +0.190 C 
BRANCH  21  22
ATOM     22  C   UNL     1       2.047  -3.138  -0.684  0.00  0.00    +0.238 C 
ATOM     23  O   UNL     1       2.125  -3.746   0.363  0.00  0.00    -0.273 OA
ATOM     24  N   UNL     1       3.094  -3.122  -1.533  0.00  0.00    -0.311 N 
ATOM     25  H   UNL     1       3.032  -2.635  -2.370  0.00  0.00    +0.149 HD
BRANCH  24  26
ATOM     26  C   UNL     1       4.326  -3.838  -1.191  0.00  0.00    +0.073 C 
ATOM     27  C   UNL     1       5.209  -2.946  -0.316  0.00  0.00    +0.022 C 
ATOM     28  C   UNL     1       6.495  -3.694   0.041  0.00  0.00    +0.002 C 
ATOM     29  C   UNL     1       7.247  -4.056  -1.242  0.00  0.00    +0.000 C 
ATOM     30  C   UNL     1       6.364  -4.948  -2.116  0.00  0.00    +0.002 C 
ATOM     31  C   UNL     1       5.078  -4.200  -2.473  0.00  0.00    +0.022 C 
ENDBRANCH  24  26
ENDBRANCH  21  22
BRANCH  21  34
ATOM     32  C   UNL     1       0.623   1.328  -0.144  0.00  0.00    +0.035 C 
ATOM     33  C   UNL     1       0.282  -0.134  -0.280  0.00  0.00    -0.032 C 
ATOM     34  C   UNL     1       1.039  -0.917  -1.008  0.00  0.00    +0.000 C 
ENDBRANCH  21  34
ENDBRANCH   1  21
TORSDOF 8
