REMARK  Name = ZINC12009221
REMARK  5 active torsions:
REMARK  status: ('A' for Active; 'I' for Inactive)
REMARK    1  A    between atoms: C_4  and  C_7
REMARK    2  A    between atoms: C_8  and  C_9
REMARK    3  A    between atoms: N_11  and  C_12
REMARK    4  A    between atoms: C_14  and  C_31
REMARK    5  A    between atoms: C_23  and  C_25
REMARK                            x       y       z     vdW  Elec       q    Type
REMARK                         _______ _______ _______ _____ _____    ______ ____
ROOT
ATOM      1  C   UNL     1       3.118   1.892  -2.021  0.00  0.00    +0.133 A 
ATOM      2  C   UNL     1       3.050   3.179  -2.446  0.00  0.00    +0.077 A 
ATOM      3  C   UNL     1       4.271   3.490  -3.081  0.00  0.00    +0.130 A 
ATOM      4  N   UNL     1       5.041   2.421  -3.036  0.00  0.00    -0.159 NA
ATOM      5  N   UNL     1       4.345   1.404  -2.371  0.00  0.00    -0.184 N 
ATOM      6  C   UNL     1       4.816   0.130  -2.117  0.00  0.00    +0.234 A 
ATOM      7  N   UNL     1       6.064  -0.213  -2.533  0.00  0.00    -0.291 N 
ATOM      8  H   UNL     1       6.612   0.434  -3.004  0.00  0.00    +0.172 HD
ATOM      9  C   UNL     1       6.544  -1.451  -2.289  0.00  0.00    +0.253 A 
ATOM     10  O   UNL     1       7.665  -1.766  -2.655  0.00  0.00    -0.268 OA
ATOM     11  C   UNL     1       5.728  -2.371  -1.612  0.00  0.00    +0.098 A 
ATOM     12  C   UNL     1       4.462  -1.970  -1.215  0.00  0.00    +0.080 A 
ATOM     13  N   UNL     1       4.045  -0.724  -1.482  0.00  0.00    -0.212 NA
ENDROOT
BRANCH  12  14
ATOM     14  C   UNL     1       3.573  -2.914  -0.498  0.00  0.00    +0.001 A 
ATOM     15  C   UNL     1       4.004  -4.212  -0.225  0.00  0.00    +0.010 A 
ATOM     16  C   UNL     1       3.174  -5.084   0.448  0.00  0.00    +0.001 A 
ATOM     17  C   UNL     1       1.911  -4.678   0.842  0.00  0.00    +0.000 A 
ATOM     18  C   UNL     1       1.476  -3.393   0.569  0.00  0.00    +0.001 A 
ATOM     19  C   UNL     1       2.299  -2.510  -0.099  0.00  0.00    +0.010 A 
ENDBRANCH  12  14
BRANCH   3  20
ATOM     20  C   UNL     1       4.624   4.788  -3.692  0.00  0.00    +0.155 A 
ATOM     21  C   UNL     1       5.803   5.089  -4.300  0.00  0.00    +0.051 A 
ATOM     22  C   UNL     1       5.704   6.426  -4.737  0.00  0.00    +0.042 A 
ATOM     23  C   UNL     1       4.487   6.872  -4.370  0.00  0.00    +0.196 A 
ATOM     24  O   UNL     1       3.837   5.880  -3.739  0.00  0.00    -0.461 OA
ENDBRANCH   3  20
BRANCH   1  27
ATOM     25  C   UNL     1       0.952   1.804  -1.058  0.00  0.00    +0.242 C 
ATOM     26  O   UNL     1       0.770   2.961  -1.388  0.00  0.00    -0.270 OA
ATOM     27  N   UNL     1       2.120   1.196  -1.346  0.00  0.00    -0.267 N 
ATOM     28  H   UNL     1       2.265   0.274  -1.082  0.00  0.00    +0.157 HD
BRANCH  25  30
ATOM     29  C   UNL     1      -1.210   1.716   0.062  0.00  0.00    +0.013 C 
ATOM     30  C   UNL     1      -0.098   1.072  -0.347  0.00  0.00    +0.068 C 
BRANCH  29  34
ATOM     31  C   UNL     1      -1.375   5.953  -0.064  0.00  0.00    +0.000 A 
ATOM     32  C   UNL     1      -2.462   5.208  -0.490  0.00  0.00    +0.001 A 
ATOM     33  C   UNL     1      -2.416   3.831  -0.452  0.00  0.00    +0.008 A 
ATOM     34  C   UNL     1      -1.268   3.186   0.018  0.00  0.00    -0.025 A 
ATOM     35  C   UNL     1      -0.176   3.945   0.452  0.00  0.00    +0.008 A 
ATOM     36  C   UNL     1      -0.235   5.322   0.402  0.00  0.00    +0.001 A 
ENDBRANCH  29  34
ENDBRANCH  25  30
ENDBRANCH   1  27
TORSDOF 5
