REMARK  Name = ZINC13571201
REMARK  7 active torsions:
REMARK  status: ('A' for Active; 'I' for Inactive)
REMARK    1  A    between atoms: C_4  and  C_7
REMARK    2  A    between atoms: C_7  and  C_8
REMARK    3  A    between atoms: C_8  and  C_10
REMARK    4  A    between atoms: C_8  and  N_19
REMARK    5  A    between atoms: N_12  and  C_13
REMARK    6  A    between atoms: C_13  and  C_14
REMARK    7  A    between atoms: C_24  and  O_32
REMARK                            x       y       z     vdW  Elec       q    Type
REMARK                         _______ _______ _______ _____ _____    ______ ____
ROOT
ATOM      1  C   UNL     1       1.679   6.334   2.666  0.00  0.00    +0.165 C 
ENDROOT
BRANCH   1   2
ATOM      2  N   UNL     1       1.589   5.191   1.753  0.00  0.00    -0.287 N 
ATOM      3  C   UNL     1       2.687   4.461   1.477  0.00  0.00    +0.308 C 
ATOM      4  O   UNL     1       3.754   4.751   1.984  0.00  0.00    -0.252 OA
ATOM      5  N   UNL     1       2.604   3.409   0.637  0.00  0.00    -0.245 N 
ATOM      6  C   UNL     1       1.329   3.030   0.006  0.00  0.00    +0.210 C 
ATOM      7  C   UNL     1       1.214   1.528  -0.001  0.00  0.00    +0.206 C 
ATOM      8  N   UNL     1       2.261   0.766  -0.010  0.00  0.00    -0.214 NA
ATOM      9  C   UNL     1       3.529   1.283  -0.012  0.00  0.00    +0.089 A 
ATOM     10  C   UNL     1       3.728   2.629   0.328  0.00  0.00    +0.064 A 
ATOM     11  C   UNL     1       5.003   3.160   0.352  0.00  0.00    +0.026 A 
ATOM     12  C   UNL     1       6.086   2.358   0.034  0.00  0.00    +0.002 A 
ATOM     13  C   UNL     1       5.897   1.031  -0.306  0.00  0.00    +0.002 A 
ATOM     14  C   UNL     1       4.627   0.488  -0.331  0.00  0.00    +0.030 A 
ATOM     15  H   UNL     1       0.738   4.960   1.349  0.00  0.00    +0.151 HD
BRANCH   7  16
ATOM     16  O   UNL     1      -0.011   0.963   0.007  0.00  0.00    -0.494 OA
ATOM     17  H   UNL     1       0.002  -0.004   0.002  0.00  0.00    +0.293 HD
ENDBRANCH   7  16
ENDBRANCH   1   2
BRANCH   1  18
ATOM     18  C   UNL     1       0.575   7.312   2.357  0.00  0.00    +0.234 C 
ATOM     19  O   UNL     1      -0.210   7.077   1.463  0.00  0.00    -0.274 OA
ATOM     20  N   UNL     1       0.461   8.447   3.074  0.00  0.00    -0.307 N 
ATOM     21  H   UNL     1       1.089   8.635   3.789  0.00  0.00    +0.149 HD
BRANCH  20  22
ATOM     22  C   UNL     1      -0.613   9.398   2.774  0.00  0.00    +0.178 C 
BRANCH  22  23
ATOM     23  C   UNL     1      -0.519  10.573   3.712  0.00  0.00    +0.122 A 
ATOM     24  C   UNL     1       0.182  11.700   3.494  0.00  0.00    +0.046 A 
ATOM     25  C   UNL     1      -0.010  12.527   4.624  0.00  0.00    +0.041 A 
ATOM     26  C   UNL     1      -0.817  11.857   5.466  0.00  0.00    +0.195 A 
ATOM     27  O   UNL     1      -1.127  10.676   4.905  0.00  0.00    -0.466 OA
ENDBRANCH  22  23
ENDBRANCH  20  22
ENDBRANCH   1  18
BRANCH   1  28
ATOM     28  C   UNL     1       1.540   5.846   4.109  0.00  0.00    +0.067 C 
BRANCH  28  32
ATOM     29  C   UNL     1       4.861   3.347   5.096  0.00  0.00    +0.000 A 
ATOM     30  C   UNL     1       4.931   4.710   5.318  0.00  0.00    +0.000 A 
ATOM     31  C   UNL     1       3.857   5.518   4.999  0.00  0.00    +0.004 A 
ATOM     32  C   UNL     1       2.712   4.965   4.457  0.00  0.00    -0.045 A 
ATOM     33  C   UNL     1       2.639   3.601   4.240  0.00  0.00    +0.004 A 
ATOM     34  C   UNL     1       3.716   2.793   4.554  0.00  0.00    +0.000 A 
ENDBRANCH  28  32
ENDBRANCH   1  28
TORSDOF 7
