REMARK  Name = ZINC10021205
REMARK  12 active torsions:
REMARK  status: ('A' for Active; 'I' for Inactive)
REMARK    1  A    between atoms: C_1  and  C_2
REMARK    2  A    between atoms: C_4  and  C_35
REMARK    3  A    between atoms: C_5  and  N_9
REMARK    4  A    between atoms: C_6  and  C_8
REMARK    5  A    between atoms: C_10  and  C_12
REMARK    6  A    between atoms: C_12  and  N_13
REMARK    7  A    between atoms: C_14  and  C_16
REMARK    8  A    between atoms: C_16  and  S_17
REMARK    9  A    between atoms: S_17  and  C_18
REMARK   10  A    between atoms: C_21  and  C_24
REMARK   11  A    between atoms: N_22  and  N_23
REMARK   12  A    between atoms: C_24  and  C_25
REMARK                            x       y       z     vdW  Elec       q    Type
REMARK                         _______ _______ _______ _____ _____    ______ ____
ROOT
ATOM      1  S   UNL     1       2.251  -2.944   2.664  0.00  0.00    -0.075 S 
ENDROOT
BRANCH   1   2
ATOM      2  C   UNL     1       1.733  -1.751   3.854  0.00  0.00    +0.209 A 
ATOM      3  N   UNL     1       2.505  -0.913   4.506  0.00  0.00    -0.121 NA
ATOM      4  N   UNL     1       1.795  -0.188   5.294  0.00  0.00    -0.132 NA
ATOM      5  C   UNL     1       0.538  -0.516   5.192  0.00  0.00    +0.155 A 
ATOM      6  N   UNL     1       0.453  -1.524   4.272  0.00  0.00    -0.228 N 
BRANCH   6   7
ATOM      7  N   UNL     1      -0.677  -2.169   3.856  0.00  0.00    -0.295 N 
ATOM      8  H   UNL     1      -1.087  -1.704   3.061  0.00  0.00    +0.163 HD
ATOM      9  H   UNL     1      -0.485  -3.138   3.649  0.00  0.00    +0.163 HD
ENDBRANCH   6   7
BRANCH   5  10
ATOM     10  C   UNL     1      -0.611   0.104   5.946  0.00  0.00    +0.113 C 
BRANCH  10  11
ATOM     11  C   UNL     1      -0.832  -0.649   7.232  0.00  0.00    -0.032 A 
ATOM     12  C   UNL     1      -1.762  -1.642   7.292  0.00  0.00    +0.004 A 
ATOM     13  C   UNL     1      -1.976  -2.353   8.471  0.00  0.00    +0.001 A 
ATOM     14  C   UNL     1      -1.271  -2.068   9.600  0.00  0.00    +0.008 A 
ATOM     15  C   UNL     1      -0.308  -1.046   9.578  0.00  0.00    -0.018 A 
ATOM     16  C   UNL     1      -0.085  -0.326   8.377  0.00  0.00    -0.014 A 
ATOM     17  C   UNL     1       0.879   0.697   8.356  0.00  0.00    +0.009 A 
ATOM     18  C   UNL     1       1.583   0.982   9.485  0.00  0.00    +0.001 A 
ATOM     19  C   UNL     1       1.364   0.275  10.665  0.00  0.00    +0.001 A 
ATOM     20  C   UNL     1       0.439  -0.722  10.724  0.00  0.00    +0.008 A 
ENDBRANCH  10  11
ENDBRANCH   5  10
ENDBRANCH   1   2
BRANCH   1  21
ATOM     21  C   UNL     1       4.034  -2.634   2.663  0.00  0.00    +0.173 C 
BRANCH  21  23
ATOM     22  N   UNL     1       6.042  -3.517   1.520  0.00  0.00    -0.306 N 
ATOM     23  C   UNL     1       4.705  -3.567   1.689  0.00  0.00    +0.224 C 
ATOM     24  O   UNL     1       4.044  -4.364   1.058  0.00  0.00    -0.275 OA
ATOM     25  H   UNL     1       6.571  -2.879   2.025  0.00  0.00    +0.149 HD
BRANCH  22  26
ATOM     26  C   UNL     1       6.695  -4.424   0.573  0.00  0.00    +0.200 C 
BRANCH  26  28
ATOM     27  N   UNL     1       8.989  -4.888  -0.228  0.00  0.00    -0.284 N 
ATOM     28  C   UNL     1       8.179  -4.166   0.572  0.00  0.00    +0.234 C 
ATOM     29  O   UNL     1       8.646  -3.308   1.291  0.00  0.00    -0.274 OA
ATOM     30  H   UNL     1       8.623  -5.609  -0.764  0.00  0.00    +0.155 HD
BRANCH  27  35
ATOM     31  C   UNL     1      14.533  -3.710  -0.464  0.00  0.00    +0.044 C 
ATOM     32  C   UNL     1      13.060  -4.023  -0.401  0.00  0.00    -0.050 A 
ATOM     33  C   UNL     1      12.640  -5.316  -0.151  0.00  0.00    +0.008 A 
ATOM     34  C   UNL     1      11.290  -5.606  -0.093  0.00  0.00    -0.029 A 
ATOM     35  C   UNL     1      10.356  -4.597  -0.286  0.00  0.00    +0.039 A 
ATOM     36  C   UNL     1      10.782  -3.300  -0.542  0.00  0.00    -0.029 A 
ATOM     37  C   UNL     1      12.132  -3.016  -0.594  0.00  0.00    +0.008 A 
ATOM     38  C   UNL     1       9.771  -2.204  -0.757  0.00  0.00    +0.045 C 
ATOM     39  C   UNL     1      10.833  -7.016   0.180  0.00  0.00    +0.045 C 
ENDBRANCH  27  35
ENDBRANCH  26  28
ENDBRANCH  22  26
ENDBRANCH  21  23
ENDBRANCH   1  21
TORSDOF 9
