REMARK  Name = ZINC05948293
REMARK  15 active torsions:
REMARK  status: ('A' for Active; 'I' for Inactive)
REMARK    1  A    between atoms: C_1  and  C_2
REMARK    2  A    between atoms: C_2  and  O_3
REMARK    3  A    between atoms: O_3  and  C_4
REMARK    4  A    between atoms: C_4  and  C_6
REMARK    5  A    between atoms: C_9  and  N_12
REMARK    6  A    between atoms: N_12  and  C_13
REMARK    7  A    between atoms: C_13  and  N_15
REMARK    8  A    between atoms: N_15  and  C_16
REMARK    9  A    between atoms: N_15  and  C_24
REMARK   10  A    between atoms: C_16  and  C_17
REMARK   11  A    between atoms: C_22  and  C_23
REMARK   12  A    between atoms: C_26  and  C_32
REMARK   13  A    between atoms: C_26  and  C_33
REMARK   14  A    between atoms: C_28  and  C_30
REMARK   15  A    between atoms: C_28  and  C_31
REMARK                            x       y       z     vdW  Elec       q    Type
REMARK                         _______ _______ _______ _____ _____    ______ ____
ROOT
ATOM      1  N   UNL     1       4.283  -5.608  -7.424  0.00  0.00    -0.305 N 
ENDROOT
BRANCH   1   2
ATOM      2  C   UNL     1       5.009  -4.693  -8.314  0.00  0.00    +0.073 C 
ATOM      3  C   UNL     1       4.397  -4.762  -9.714  0.00  0.00    +0.009 C 
ATOM      4  C   UNL     1       5.150  -3.824 -10.656  0.00  0.00    -0.072 C 
ATOM      5  N   UNL     1       6.582  -4.085 -10.660  0.00  0.00    +0.386 N 
ATOM      6  C   UNL     1       7.243  -4.245  -9.374  0.00  0.00    -0.072 C 
ATOM      7  C   UNL     1       6.470  -5.134  -8.407  0.00  0.00    +0.009 C 
ATOM      8  C   UNL     1       7.539  -2.893  -8.718  0.00  0.00    -0.010 C 
ATOM      9  C   UNL     1       8.607  -4.928  -9.635  0.00  0.00    -0.010 C 
ATOM     10  C   UNL     1       4.831  -2.368 -10.319  0.00  0.00    -0.010 C 
ATOM     11  C   UNL     1       4.624  -4.089 -12.085  0.00  0.00    -0.010 C 
ATOM     12  H   UNL     1       6.754  -4.926 -11.216  0.00  0.00    -0.084 HD
ATOM     13  H   UNL     1       7.045  -3.328 -11.169  0.00  0.00    -0.084 HD
ENDBRANCH   1   2
BRANCH   1  14
ATOM     14  C   UNL     1       3.616  -5.123  -6.358  0.00  0.00    +0.138 C 
ATOM     15  S   UNL     1       2.866  -6.197  -5.256  0.00  0.00    -0.018 S 
BRANCH  14  16
ATOM     16  N   UNL     1       3.540  -3.792  -6.159  0.00  0.00    -0.297 N 
ATOM     17  H   UNL     1       2.700  -3.328  -6.300  0.00  0.00    +0.154 HD
BRANCH  16  21
ATOM     18  C   UNL     1       6.910  -1.672  -4.939  0.00  0.00    +0.059 A 
ATOM     19  C   UNL     1       5.734  -0.991  -5.266  0.00  0.00    +0.017 A 
ATOM     20  C   UNL     1       4.622  -1.694  -5.669  0.00  0.00    +0.024 A 
ATOM     21  C   UNL     1       4.668  -3.083  -5.751  0.00  0.00    +0.033 A 
ATOM     22  C   UNL     1       5.836  -3.765  -5.426  0.00  0.00    +0.024 A 
ATOM     23  C   UNL     1       6.954  -3.067  -5.028  0.00  0.00    +0.017 A 
BRANCH  18  24
ATOM     24  C   UNL     1       8.104  -0.922  -4.507  0.00  0.00    +0.339 C 
ATOM     25  O   UNL     1       9.127  -1.515  -4.228  0.00  0.00    -0.245 OA
BRANCH  24  26
ATOM     26  O   UNL     1       8.060   0.422  -4.422  0.00  0.00    -0.461 OA
BRANCH  26  28
ATOM     27  C   UNL     1       9.012   2.595  -3.962  0.00  0.00    +0.048 C 
ATOM     28  C   UNL     1       9.253   1.085  -3.997  0.00  0.00    +0.229 C 
ENDBRANCH  26  28
ENDBRANCH  24  26
ENDBRANCH  18  24
ENDBRANCH  16  21
ENDBRANCH  14  16
ENDBRANCH   1  14
BRANCH   1  29
ATOM     29  C   UNL     1       4.283  -7.048  -7.695  0.00  0.00    +0.142 C 
BRANCH  29  30
ATOM     30  C   UNL     1       3.020  -7.420  -8.429  0.00  0.00    -0.027 A 
ATOM     31  C   UNL     1       2.102  -6.443  -8.765  0.00  0.00    +0.005 A 
ATOM     32  C   UNL     1       0.944  -6.785  -9.438  0.00  0.00    +0.000 A 
ATOM     33  C   UNL     1       0.705  -8.104  -9.775  0.00  0.00    +0.000 A 
ATOM     34  C   UNL     1       1.623  -9.081  -9.440  0.00  0.00    +0.003 A 
ATOM     35  C   UNL     1       2.783  -8.738  -8.771  0.00  0.00    -0.046 A 
ATOM     36  C   UNL     1       3.788  -9.803  -8.410  0.00  0.00    +0.044 C 
ENDBRANCH  29  30
ENDBRANCH   1  29
TORSDOF 9
