REMARK  Name = ZINC09008647
REMARK  11 active torsions:
REMARK  status: ('A' for Active; 'I' for Inactive)
REMARK    1  A    between atoms: C_1  and  C_2
REMARK    2  A    between atoms: C_2  and  O_3
REMARK    3  A    between atoms: O_3  and  C_4
REMARK    4  A    between atoms: C_4  and  C_6
REMARK    5  A    between atoms: C_6  and  N_60
REMARK    6  A    between atoms: C_7  and  C_29
REMARK    7  A    between atoms: C_16  and  C_18
REMARK    8  A    between atoms: C_21  and  O_26
REMARK    9  A    between atoms: C_23  and  O_24
REMARK   10  A    between atoms: O_24  and  C_25
REMARK   11  A    between atoms: O_26  and  C_27
REMARK                            x       y       z     vdW  Elec       q    Type
REMARK                         _______ _______ _______ _____ _____    ______ ____
ROOT
ATOM      1  C   UNL     1      -0.550   0.895   2.925  0.00  0.00    -0.001 C 
ATOM      2  C   UNL     1       0.876   1.226   3.274  0.00  0.00    -0.035 A 
ATOM      3  C   UNL     1       1.270   1.234   4.600  0.00  0.00    +0.019 A 
ATOM      4  C   UNL     1       2.578   1.533   4.935  0.00  0.00    +0.018 A 
ATOM      5  C   UNL     1       3.500   1.826   3.946  0.00  0.00    +0.017 A 
ATOM      6  C   UNL     1       3.114   1.821   2.620  0.00  0.00    +0.024 A 
ATOM      7  C   UNL     1       1.801   1.521   2.283  0.00  0.00    +0.028 A 
ATOM      8  N   UNL     1       1.409   1.518   0.938  0.00  0.00    -0.353 N 
ATOM      9  C   UNL     1       0.108   0.922   0.596  0.00  0.00    +0.053 C 
ATOM     10 BR   UNL     1       3.107   1.541   6.750  0.00  0.00    -0.050 Br
ATOM     11  H   UNL     1       1.980   1.897   0.251  0.00  0.00    +0.145 HD
ATOM     12  N   UNL     1      -0.876   1.419   1.585  0.00  0.00    +0.409 N 
ATOM     13  H   UNL     1      -0.837   2.445   1.609  0.00  0.00    -0.076 HD
ENDROOT
BRANCH   9  14
ATOM     14  C   UNL     1      -0.305   1.359  -0.786  0.00  0.00    -0.002 A 
ATOM     15  C   UNL     1      -1.115   2.467  -0.947  0.00  0.00    +0.010 A 
ATOM     16  C   UNL     1      -1.495   2.870  -2.212  0.00  0.00    +0.046 A 
ATOM     17  C   UNL     1      -1.064   2.162  -3.326  0.00  0.00    +0.124 A 
ATOM     18  C   UNL     1      -0.252   1.050  -3.167  0.00  0.00    +0.091 A 
ATOM     19  C   UNL     1       0.133   0.651  -1.896  0.00  0.00    +0.127 A 
BRANCH  19  20
ATOM     20  O   UNL     1       0.934  -0.435  -1.738  0.00  0.00    -0.495 OA
ATOM     21  C   UNL     1       1.347  -1.115  -2.925  0.00  0.00    +0.277 C 
ENDBRANCH  19  20
BRANCH  17  22
ATOM     22  O   UNL     1      -1.439   2.558  -4.570  0.00  0.00    -0.495 OA
ATOM     23  C   UNL     1      -2.276   3.713  -4.659  0.00  0.00    +0.277 C 
ENDBRANCH  17  22
ENDBRANCH   9  14
BRANCH   1  24
ATOM     24  C   UNL     1      -1.471   1.534   3.932  0.00  0.00    -0.057 A 
ATOM     25  C   UNL     1      -1.786   2.876   3.828  0.00  0.00    +0.002 A 
ATOM     26  C   UNL     1      -2.635   3.460   4.749  0.00  0.00    +0.000 A 
ATOM     27  C   UNL     1      -3.160   2.705   5.781  0.00  0.00    +0.000 A 
ATOM     28  C   UNL     1      -2.842   1.365   5.888  0.00  0.00    +0.000 A 
ATOM     29  C   UNL     1      -1.997   0.779   4.964  0.00  0.00    +0.002 A 
ENDBRANCH   1  24
BRANCH  12  30
ATOM     30  C   UNL     1      -2.240   1.000   1.195  0.00  0.00    +0.048 C 
BRANCH  30  31
ATOM     31  C   UNL     1      -2.357  -0.502   1.223  0.00  0.00    +0.290 C 
ATOM     32  O   UNL     1      -1.379  -1.181   1.426  0.00  0.00    -0.253 OA
BRANCH  31  33
ATOM     33  O   UNL     1      -3.549  -1.085   1.023  0.00  0.00    -0.466 OA
BRANCH  33  35
ATOM     34  C   UNL     1      -5.020  -3.015   0.815  0.00  0.00    +0.048 C 
ATOM     35  C   UNL     1      -3.588  -2.536   1.063  0.00  0.00    +0.228 C 
ENDBRANCH  33  35
ENDBRANCH  31  33
ENDBRANCH  30  31
ENDBRANCH  12  30
TORSDOF 8
