REMARK  Name = ZINC15947241
REMARK  11 active torsions:
REMARK  status: ('A' for Active; 'I' for Inactive)
REMARK    1  A    between atoms: C_1  and  C_2
REMARK    2  A    between atoms: C_2  and  N_3
REMARK    3  A    between atoms: C_11  and  O_35
REMARK    4  A    between atoms: C_13  and  C_16
REMARK    5  A    between atoms: C_19  and  O_22
REMARK    6  A    between atoms: O_22  and  C_23
REMARK    7  A    between atoms: C_23  and  C_25
REMARK    8  A    between atoms: C_28  and  C_31
REMARK    9  A    between atoms: C_31  and  C_32
REMARK   10  A    between atoms: C_31  and  C_33
REMARK   11  A    between atoms: C_31  and  C_34
REMARK                            x       y       z     vdW  Elec       q    Type
REMARK                         _______ _______ _______ _____ _____    ______ ____
ROOT
ATOM      1  N   UNL     1       1.101   0.003  -1.139  0.00  0.00    +0.383 N 
ATOM      2  C   UNL     1       0.921  -1.454  -1.152  0.00  0.00    -0.074 C 
ATOM      3  C   UNL     1       1.260  -2.017  -2.536  0.00  0.00    +0.018 C 
ATOM      4  C   UNL     1       2.641  -1.505  -2.924  0.00  0.00    -0.027 A 
ATOM      5  C   UNL     1       3.178  -0.446  -2.272  0.00  0.00    -0.021 A 
ATOM      6  S   UNL     1       4.758  -0.203  -3.033  0.00  0.00    -0.080 S 
ATOM      7  C   UNL     1       4.716  -1.431  -4.148  0.00  0.00    +0.080 A 
ATOM      8  C   UNL     1       3.478  -2.060  -3.968  0.00  0.00    +0.067 A 
ATOM      9  C   UNL     1       3.157  -3.206  -4.857  0.00  0.00    +0.220 C 
ATOM     10  N   UNL     1       4.128  -3.712  -5.568  0.00  0.00    -0.223 NA
ATOM     11  C   UNL     1       5.516  -3.272  -5.503  0.00  0.00    +0.224 C 
ATOM     12  N   UNL     1       5.619  -1.859  -5.094  0.00  0.00    -0.313 N 
ATOM     13  C   UNL     1       2.540   0.325  -1.160  0.00  0.00    -0.035 C 
ATOM     14  H   UNL     1       6.287  -1.265  -5.471  0.00  0.00    +0.149 HD
ATOM     15  H   UNL     1       0.655   0.404  -1.951  0.00  0.00    -0.081 HD
ENDROOT
BRANCH  11  16
ATOM     16  C   UNL     1       6.257  -4.126  -4.506  0.00  0.00    -0.005 A 
ATOM     17  C   UNL     1       7.319  -3.596  -3.797  0.00  0.00    +0.011 A 
ATOM     18  C   UNL     1       8.000  -4.377  -2.884  0.00  0.00    +0.047 A 
ATOM     19  C   UNL     1       7.616  -5.694  -2.677  0.00  0.00    +0.132 A 
ATOM     20  C   UNL     1       6.550  -6.224  -3.389  0.00  0.00    +0.047 A 
ATOM     21  C   UNL     1       5.869  -5.437  -4.298  0.00  0.00    +0.011 A 
BRANCH  19  22
ATOM     22  O   UNL     1       8.285  -6.465  -1.779  0.00  0.00    -0.422 OA
BRANCH  22  23
ATOM     23  C   UNL     1       8.152  -6.172  -0.471  0.00  0.00    +0.344 C 
ATOM     24  O   UNL     1       7.371  -5.311  -0.118  0.00  0.00    -0.245 OA
BRANCH  23  25
ATOM     25  C   UNL     1       8.955  -6.897   0.534  0.00  0.00    +0.059 A 
ATOM     26  C   UNL     1       9.858  -7.883   0.132  0.00  0.00    +0.015 A 
ATOM     27  C   UNL     1      10.605  -8.556   1.076  0.00  0.00    +0.005 A 
ATOM     28  C   UNL     1      10.462  -8.256   2.419  0.00  0.00    -0.042 A 
ATOM     29  C   UNL     1       9.569  -7.280   2.825  0.00  0.00    +0.005 A 
ATOM     30  C   UNL     1       8.820  -6.595   1.891  0.00  0.00    +0.015 A 
BRANCH  28  31
ATOM     31  C   UNL     1      11.281  -8.996   3.444  0.00  0.00    -0.013 C 
ATOM     32  C   UNL     1      12.769  -8.768   3.169  0.00  0.00    +0.015 C 
ATOM     33  C   UNL     1      10.936  -8.480   4.842  0.00  0.00    +0.015 C 
ATOM     34  C   UNL     1      10.971 -10.492   3.362  0.00  0.00    +0.015 C 
ENDBRANCH  28  31
ENDBRANCH  23  25
ENDBRANCH  22  23
ENDBRANCH  19  22
ENDBRANCH  11  16
BRANCH   1  36
ATOM     35  C   UNL     1       0.567   2.088   0.029  0.00  0.00    -0.017 C 
ATOM     36  C   UNL     1       0.493   0.561   0.076  0.00  0.00    -0.082 C 
ENDBRANCH   1  36
BRANCH   9  37
ATOM     37  O   UNL     1       1.903  -3.709  -4.928  0.00  0.00    -0.492 OA
ATOM     38  H   UNL     1       1.811  -4.453  -5.538  0.00  0.00    +0.294 HD
ENDBRANCH   9  37
TORSDOF 7
