REMARK  Name = ZINC08299751
REMARK  7 active torsions:
REMARK  status: ('A' for Active; 'I' for Inactive)
REMARK    1  A    between atoms: C_3  and  C_6
REMARK    2  A    between atoms: C_6  and  N_7
REMARK    3  A    between atoms: C_8  and  C_10
REMARK    4  A    between atoms: C_18  and  C_20
REMARK    5  A    between atoms: C_20  and  N_21
REMARK    6  A    between atoms: C_23  and  C_26
REMARK    7  A    between atoms: C_26  and  O_31
REMARK                            x       y       z     vdW  Elec       q    Type
REMARK                         _______ _______ _______ _____ _____    ______ ____
ROOT
ATOM      1  C   UNL     1       4.685   0.802  -3.089  0.00  0.00    +0.061 C 
ATOM      2  C   UNL     1       4.568   2.153  -3.799  0.00  0.00    -0.065 C 
ATOM      3  C   UNL     1       6.817   2.760  -3.134  0.00  0.00    -0.078 C 
ATOM      4  C   UNL     1       6.997   1.426  -2.404  0.00  0.00    -0.015 C 
ATOM      5  C   UNL     1       6.152   0.357  -3.109  0.00  0.00    -0.004 C 
ATOM      6  C   UNL     1       6.613   0.255  -4.569  0.00  0.00    -0.010 C 
ATOM      7  C   UNL     1       6.443   1.621  -5.238  0.00  0.00    -0.046 C 
ATOM      8  N   UNL     1       5.894   2.602  -4.277  0.00  0.00    +0.383 N 
ATOM      9  H   UNL     1       5.789   3.508  -4.749  0.00  0.00    -0.081 HD
ENDROOT
BRANCH   1  11
ATOM     10  N   UNL     1       2.952   1.322  -1.401  0.00  0.00    -0.308 N 
ATOM     11  C   UNL     1       4.218   0.939  -1.663  0.00  0.00    +0.215 C 
ATOM     12  O   UNL     1       4.981   0.705  -0.750  0.00  0.00    -0.276 OA
ATOM     13  H   UNL     1       2.342   1.509  -2.131  0.00  0.00    +0.149 HD
BRANCH  10  14
ATOM     14  C   UNL     1       2.499   1.455  -0.015  0.00  0.00    +0.178 C 
BRANCH  14  17
ATOM     15  C   UNL     1      -1.159   1.903   0.017  0.00  0.00    +0.041 A 
ATOM     16  C   UNL     1      -0.013   1.076   0.008  0.00  0.00    +0.046 A 
ATOM     17  C   UNL     1       1.057   1.892   0.002  0.00  0.00    +0.122 A 
ATOM     18  O   UNL     1       0.621   3.162   0.013  0.00  0.00    -0.466 OA
ATOM     19  C   UNL     1      -0.722   3.175   0.026  0.00  0.00    +0.195 A 
ENDBRANCH  14  17
ENDBRANCH  10  14
ENDBRANCH   1  11
BRANCH   7  20
ATOM     20  C   UNL     1       7.802   2.119  -5.733  0.00  0.00    +0.130 C 
BRANCH  20  21
ATOM     21  N   UNL     1       7.623   3.369  -6.477  0.00  0.00    -0.253 N 
ATOM     22  C   UNL     1       8.247   4.541  -6.220  0.00  0.00    +0.136 A 
ATOM     23  C   UNL     1       7.793   5.420  -7.143  0.00  0.00    +0.114 A 
ATOM     24  N   UNL     1       6.919   4.754  -7.905  0.00  0.00    -0.132 NA
ATOM     25  N   UNL     1       6.841   3.540  -7.485  0.00  0.00    -0.065 NA
BRANCH  23  26
ATOM     26  C   UNL     1       8.190   6.868  -7.282  0.00  0.00    +0.111 C 
ATOM     27  C   UNL     1       6.941   7.769  -7.190  0.00  0.00    +0.041 C 
ATOM     28  C   UNL     1       7.215   8.903  -8.209  0.00  0.00    +0.003 C 
ATOM     29  C   UNL     1       7.914   8.156  -9.372  0.00  0.00    +0.003 C 
ATOM     30  C   UNL     1       8.808   7.114  -8.670  0.00  0.00    +0.041 C 
BRANCH  26  31
ATOM     31  O   UNL     1       9.125   7.219  -6.260  0.00  0.00    -0.382 OA
ATOM     32  H   UNL     1       8.790   7.096  -5.362  0.00  0.00    +0.211 HD
ENDBRANCH  26  31
ENDBRANCH  23  26
ENDBRANCH  20  21
ENDBRANCH   7  20
TORSDOF 7
