REMARK  Name = ZINC58913178
REMARK  8 active torsions:
REMARK  status: ('A' for Active; 'I' for Inactive)
REMARK    1  A    between atoms: C_1  and  C_2
REMARK    2  A    between atoms: C_7  and  N_8
REMARK    3  A    between atoms: C_9  and  C_11
REMARK    4  A    between atoms: N_13  and  N_14
REMARK    5  A    between atoms: C_15  and  C_16
REMARK    6  A    between atoms: C_18  and  C_29
REMARK    7  A    between atoms: N_19  and  C_22
REMARK    8  A    between atoms: C_20  and  C_21
REMARK                            x       y       z     vdW  Elec       q    Type
REMARK                         _______ _______ _______ _____ _____    ______ ____
ROOT
ATOM      1  C   UNL     1      -0.166   0.044   4.867  0.00  0.00    +0.318 C 
ATOM      2  O   UNL     1      -0.183   1.259   4.872  0.00  0.00    -0.263 OA
ATOM      3  N   UNL     1      -0.248  -0.635   6.028  0.00  0.00    -0.199 N 
ATOM      4  H   UNL     1      -0.235  -1.605   6.024  0.00  0.00    +0.178 HD
ENDROOT
BRANCH   1   6
ATOM      5  N   UNL     1       0.025  -0.015   2.416  0.00  0.00    -0.277 N 
ATOM      6  C   UNL     1      -0.056  -0.695   3.577  0.00  0.00    +0.305 C 
ATOM      7  O   UNL     1      -0.040  -1.909   3.572  0.00  0.00    -0.265 OA
ATOM      8  H   UNL     1       0.078   0.953   2.424  0.00  0.00    +0.155 HD
BRANCH   5  15
ATOM      9  C   UNL     1      -1.268   1.182   0.182  0.00  0.00    +0.046 C 
ATOM     10  C   UNL     1      -0.586  -0.159   0.085  0.00  0.00    -0.028 A 
ATOM     11  C   UNL     1      -0.571  -0.841  -1.116  0.00  0.00    +0.025 A 
ATOM     12  C   UNL     1       0.054  -2.072  -1.206  0.00  0.00    +0.041 A 
ATOM     13  C   UNL     1       0.667  -2.623  -0.094  0.00  0.00    +0.022 A 
ATOM     14  C   UNL     1       0.655  -1.945   1.109  0.00  0.00    +0.025 A 
ATOM     15  C   UNL     1       0.033  -0.706   1.201  0.00  0.00    +0.037 A 
ATOM     16 CL   UNL     1       0.070  -2.927  -2.717  0.00  0.00    -0.084 Cl
ENDBRANCH   5  15
ENDBRANCH   1   6
BRANCH   3  17
ATOM     17  N   UNL     1      -0.351   0.059   7.240  0.00  0.00    -0.187 NA
ATOM     18  C   UNL     1      -0.430  -0.596   8.360  0.00  0.00    +0.140 C 
BRANCH  18  19
ATOM     19  C   UNL     1      -0.539   0.134   9.634  0.00  0.00    +0.016 A 
ATOM     20  C   UNL     1      -0.629  -0.449  10.977  0.00  0.00    +0.032 A 
ATOM     21  C   UNL     1      -0.711   0.582  11.838  0.00  0.00    +0.022 A 
ATOM     22  N   UNL     1      -0.679   1.751  11.133  0.00  0.00    -0.317 N 
ATOM     23  C   UNL     1      -0.570   1.490   9.803  0.00  0.00    +0.030 A 
ATOM     24  C   UNL     1      -0.498   2.518   8.703  0.00  0.00    +0.064 C 
ATOM     25  C   UNL     1      -0.822   0.466  13.336  0.00  0.00    +0.064 C 
BRANCH  22  26
ATOM     26  C   UNL     1      -0.743   3.033  11.697  0.00  0.00    +0.047 A 
ATOM     27  C   UNL     1      -1.833   3.853  11.438  0.00  0.00    +0.027 A 
ATOM     28  C   UNL     1      -1.894   5.115  11.995  0.00  0.00    +0.017 A 
ATOM     29  C   UNL     1      -0.870   5.562  12.812  0.00  0.00    +0.018 A 
ATOM     30  C   UNL     1       0.217   4.747  13.072  0.00  0.00    +0.017 A 
ATOM     31  C   UNL     1       0.280   3.482  12.521  0.00  0.00    +0.027 A 
ATOM     32 BR   UNL     1      -0.957   7.291  13.573  0.00  0.00    -0.050 Br
ENDBRANCH  22  26
ENDBRANCH  18  19
ENDBRANCH   3  17
TORSDOF 5
