REMARK  Name = ZINC05431373
REMARK  11 active torsions:
REMARK  status: ('A' for Active; 'I' for Inactive)
REMARK    1  A    between atoms: C_1  and  C_2
REMARK    2  A    between atoms: C_5  and  C_29
REMARK    3  A    between atoms: C_10  and  C_28
REMARK    4  A    between atoms: C_13  and  N_27
REMARK    5  A    between atoms: C_14  and  C_17
REMARK    6  A    between atoms: N_19  and  C_20
REMARK    7  A    between atoms: C_20  and  C_21
REMARK    8  A    between atoms: C_21  and  C_22
REMARK    9  A    between atoms: N_31  and  C_32
REMARK   10  A    between atoms: C_32  and  C_33
REMARK   11  A    between atoms: C_33  and  C_34
REMARK                            x       y       z     vdW  Elec       q    Type
REMARK                         _______ _______ _______ _____ _____    ______ ____
ROOT
ATOM      1  C   UNL     1      -4.172   1.052  -2.308  0.00  0.00    +0.047 C 
ATOM      2  C   UNL     1      -4.862   1.540  -1.060  0.00  0.00    -0.006 A 
ATOM      3  C   UNL     1      -6.224   1.755  -1.070  0.00  0.00    +0.008 A 
ATOM      4  C   UNL     1      -6.880   2.203   0.068  0.00  0.00    +0.015 A 
ATOM      5  C   UNL     1      -6.170   2.442   1.237  0.00  0.00    +0.066 A 
ATOM      6  C   UNL     1      -4.769   2.225   1.262  0.00  0.00    +0.119 A 
ATOM      7  C   UNL     1      -4.121   1.769   0.096  0.00  0.00    +0.157 A 
ATOM      8  O   UNL     1      -2.786   1.555   0.092  0.00  0.00    -0.451 OA
ATOM      9  C   UNL     1      -2.076   1.785   1.217  0.00  0.00    +0.161 A 
ATOM     10  C   UNL     1      -0.718   1.572   1.248  0.00  0.00    +0.042 A 
ATOM     11  C   UNL     1       0.018   1.806   2.415  0.00  0.00    +0.207 A 
ATOM     12  O   UNL     1       1.224   1.613   2.414  0.00  0.00    -0.286 OA
ATOM     13  C   UNL     1      -0.641   2.281   3.643  0.00  0.00    +0.087 A 
ATOM     14  C   UNL     1      -2.010   2.503   3.651  0.00  0.00    +0.090 A 
ATOM     15  C   UNL     1      -2.777   2.255   2.422  0.00  0.00    +0.121 A 
ATOM     16  N   UNL     1      -4.080   2.453   2.387  0.00  0.00    -0.239 NA
ATOM     17  C   UNL     1      -0.013   1.086   0.008  0.00  0.00    +0.052 C 
ENDROOT
BRANCH  14  18
ATOM     18  C   UNL     1      -2.683   2.977   4.870  0.00  0.00    +0.248 C 
ATOM     19  O   UNL     1      -2.802   4.171   5.074  0.00  0.00    -0.270 OA
ATOM     20  N   UNL     1      -3.168   2.090   5.761  0.00  0.00    -0.311 N 
ATOM     21  H   UNL     1      -3.074   1.138   5.598  0.00  0.00    +0.149 HD
BRANCH  20  22
ATOM     22  C   UNL     1      -3.839   2.562   6.974  0.00  0.00    +0.112 C 
BRANCH  22  23
ATOM     23  C   UNL     1      -4.291   1.362   7.808  0.00  0.00    +0.093 C 
BRANCH  23  24
ATOM     24  C   UNL     1      -4.981   1.848   9.056  0.00  0.00    +0.106 A 
ATOM     25  C   UNL     1      -6.297   2.096   9.182  0.00  0.00    +0.044 A 
ATOM     26  C   UNL     1      -6.507   2.530  10.511  0.00  0.00    +0.041 A 
ATOM     27  C   UNL     1      -5.307   2.520  11.118  0.00  0.00    +0.195 A 
ATOM     28  O   UNL     1      -4.387   2.101  10.234  0.00  0.00    -0.468 OA
ENDBRANCH  23  24
ENDBRANCH  22  23
ENDBRANCH  20  22
ENDBRANCH  14  18
BRANCH   5  29
ATOM     29  C   UNL     1      -6.870   2.919   2.446  0.00  0.00    +0.246 C 
ATOM     30  O   UNL     1      -6.245   3.127   3.468  0.00  0.00    -0.270 OA
ATOM     31  N   UNL     1      -8.202   3.124   2.418  0.00  0.00    -0.311 N 
ATOM     32  H   UNL     1      -8.701   2.958   1.602  0.00  0.00    +0.149 HD
BRANCH  31  33
ATOM     33  C   UNL     1      -8.896   3.598   3.618  0.00  0.00    +0.112 C 
BRANCH  33  34
ATOM     34  C   UNL     1     -10.389   3.747   3.318  0.00  0.00    +0.093 C 
BRANCH  34  35
ATOM     35  C   UNL     1     -11.103   4.234   4.552  0.00  0.00    +0.106 A 
ATOM     36  C   UNL     1     -11.310   5.520   4.885  0.00  0.00    +0.044 A 
ATOM     37  C   UNL     1     -12.014   5.518   6.112  0.00  0.00    +0.041 A 
ATOM     38  C   UNL     1     -12.194   4.230   6.455  0.00  0.00    +0.195 A 
ATOM     39  O   UNL     1     -11.646   3.456   5.504  0.00  0.00    -0.468 OA
ENDBRANCH  34  35
ENDBRANCH  33  34
ENDBRANCH  31  33
ENDBRANCH   5  29
BRANCH  13  40
ATOM     40  N   UNL     1       0.100   2.505   4.781  0.00  0.00    -0.354 N 
ATOM     41  H   UNL     1       1.058   2.350   4.774  0.00  0.00    +0.142 HD
ATOM     42  H   UNL     1      -0.335   2.818   5.589  0.00  0.00    +0.142 HD
ENDBRANCH  13  40
TORSDOF 9
