REMARK  Name = ZINC08439716
REMARK  12 active torsions:
REMARK  status: ('A' for Active; 'I' for Inactive)
REMARK    1  A    between atoms: C_1  and  C_2
REMARK    2  A    between atoms: C_2  and  C_3
REMARK    3  A    between atoms: C_3  and  C_4
REMARK    4  A    between atoms: C_4  and  O_5
REMARK    5  A    between atoms: O_5  and  C_6
REMARK    6  A    between atoms: C_9  and  C_12
REMARK    7  A    between atoms: C_19  and  N_38
REMARK    8  A    between atoms: C_20  and  C_36
REMARK    9  A    between atoms: N_28  and  C_31
REMARK   10  A    between atoms: C_31  and  C_32
REMARK   11  A    between atoms: C_32  and  O_34
REMARK   12  A    between atoms: O_34  and  C_35
REMARK                            x       y       z     vdW  Elec       q    Type
REMARK                         _______ _______ _______ _____ _____    ______ ____
ROOT
ATOM      1  C   UNL     1      -3.413  -8.132  -0.009  0.00  0.00    +0.101 A 
ATOM      2  C   UNL     1      -4.369  -8.850   0.715  0.00  0.00    +0.066 A 
ATOM      3  C   UNL     1      -4.201 -10.177   0.436  0.00  0.00    +0.224 A 
ATOM      4  N   UNL     1      -3.175 -10.287  -0.432  0.00  0.00    -0.246 N 
ATOM      5  H   UNL     1      -2.830 -11.113  -0.806  0.00  0.00    +0.192 HD
ATOM      6  N   UNL     1      -2.696  -8.995  -0.704  0.00  0.00    -0.171 NA
ATOM      7  O   UNL     1      -4.978 -11.143   0.986  0.00  0.00    -0.423 OA
ATOM      8  C   UNL     1      -5.765 -10.805   2.028  0.00  0.00    +0.201 C 
ATOM      9  C   UNL     1      -6.018  -9.526   2.393  0.00  0.00    +0.110 C 
ATOM     10  C   UNL     1      -5.433  -8.355   1.653  0.00  0.00    +0.145 C 
ATOM     11  C   UNL     1      -6.491  -7.592   0.922  0.00  0.00    -0.001 A 
ATOM     12  C   UNL     1      -7.362  -7.965  -0.079  0.00  0.00    +0.007 A 
ATOM     13  C   UNL     1      -8.236  -6.992  -0.550  0.00  0.00    +0.000 A 
ATOM     14  C   UNL     1      -8.231  -5.712  -0.036  0.00  0.00    +0.002 A 
ATOM     15  C   UNL     1      -7.359  -5.329   0.971  0.00  0.00    +0.024 A 
ATOM     16  C   UNL     1      -6.476  -6.296   1.453  0.00  0.00    +0.042 A 
ATOM     17  N   UNL     1      -5.512  -6.192   2.441  0.00  0.00    -0.259 N 
ATOM     18  C   UNL     1      -4.851  -7.354   2.627  0.00  0.00    +0.241 C 
ATOM     19  O   UNL     1      -3.960  -7.558   3.424  0.00  0.00    -0.274 OA
ENDROOT
BRANCH   1  23
ATOM     20  C   UNL     1      -2.913  -3.908   0.009  0.00  0.00    +0.121 A 
ATOM     21  C   UNL     1      -1.821  -4.735   0.232  0.00  0.00    +0.046 A 
ATOM     22  C   UNL     1      -1.980  -6.105   0.227  0.00  0.00    +0.013 A 
ATOM     23  C   UNL     1      -3.239  -6.658  -0.002  0.00  0.00    +0.003 A 
ATOM     24  C   UNL     1      -4.333  -5.825  -0.226  0.00  0.00    +0.013 A 
ATOM     25  C   UNL     1      -4.168  -4.455  -0.214  0.00  0.00    +0.046 A 
BRANCH  20  26
ATOM     26  O   UNL     1      -2.753  -2.558   0.015  0.00  0.00    -0.492 OA
BRANCH  26  27
ATOM     27  C   UNL     1      -1.434  -2.062   0.251  0.00  0.00    +0.229 C 
BRANCH  27  28
ATOM     28  C   UNL     1      -1.451  -0.532   0.220  0.00  0.00    +0.041 C 
BRANCH  28  30
ATOM     29  C   UNL     1      -0.056   1.528   0.443  0.00  0.00    +0.004 C 
ATOM     30  C   UNL     1      -0.038  -0.001   0.473  0.00  0.00    -0.000 C 
ENDBRANCH  28  30
ENDBRANCH  27  28
ENDBRANCH  26  27
ENDBRANCH  20  26
ENDBRANCH   1  23
BRANCH   8  31
ATOM     31  N   UNL     1      -6.342 -11.814   2.759  0.00  0.00    -0.328 N 
ATOM     32  H   UNL     1      -6.178 -12.740   2.520  0.00  0.00    +0.145 HD
ATOM     33  H   UNL     1      -6.912 -11.601   3.513  0.00  0.00    +0.145 HD
ENDBRANCH   8  31
BRANCH   9  34
ATOM     34  C   UNL     1      -6.869  -9.281   3.519  0.00  0.00    +0.102 C 
ATOM     35  N   UNL     1      -7.544  -9.087   4.412  0.00  0.00    -0.191 NA
ENDBRANCH   9  34
BRANCH  17  36
ATOM     36  C   UNL     1      -5.242  -4.966   3.195  0.00  0.00    +0.234 C 
BRANCH  36  37
ATOM     37  C   UNL     1      -6.106  -4.934   4.429  0.00  0.00    +0.325 C 
ATOM     38  O   UNL     1      -6.871  -5.843   4.654  0.00  0.00    -0.249 OA
BRANCH  37  39
ATOM     39  O   UNL     1      -6.028  -3.897   5.277  0.00  0.00    -0.467 OA
ATOM     40  C   UNL     1      -6.877  -3.932   6.426  0.00  0.00    +0.280 C 
ENDBRANCH  37  39
ENDBRANCH  36  37
ENDBRANCH  17  36
TORSDOF 10
