REMARK  Name = ZINC36313812
REMARK  19 active torsions:
REMARK  status: ('A' for Active; 'I' for Inactive)
REMARK    1  A    between atoms: C_1  and  C_2
REMARK    2  A    between atoms: C_2  and  C_3
REMARK    3  A    between atoms: C_3  and  C_4
REMARK    4  A    between atoms: C_4  and  O_5
REMARK    5  A    between atoms: O_5  and  C_6
REMARK    6  A    between atoms: C_6  and  C_7
REMARK    7  A    between atoms: C_7  and  C_9
REMARK    8  A    between atoms: C_7  and  O_36
REMARK    9  A    between atoms: C_9  and  N_10
REMARK   10  A    between atoms: N_10  and  C_11
REMARK   11  A    between atoms: N_10  and  C_32
REMARK   12  A    between atoms: C_11  and  C_12
REMARK   13  A    between atoms: C_13  and  C_26
REMARK   14  A    between atoms: N_15  and  C_25
REMARK   15  A    between atoms: C_16  and  O_17
REMARK   16  A    between atoms: O_17  and  C_18
REMARK   17  A    between atoms: C_32  and  C_33
REMARK   18  A    between atoms: C_33  and  C_34
REMARK   19  A    between atoms: C_33  and  C_35
REMARK                            x       y       z     vdW  Elec       q    Type
REMARK                         _______ _______ _______ _____ _____    ______ ____
ROOT
ATOM      1  C   UNL     1      -7.826  -7.737  -0.285  0.00  0.00    +0.025 A 
ATOM      2  C   UNL     1      -8.713  -7.882   0.799  0.00  0.00    +0.098 A 
ATOM      3  N   UNL     1      -9.902  -8.179   0.319  0.00  0.00    -0.168 NA
ATOM      4  N   UNL     1      -9.810  -8.233  -1.078  0.00  0.00    -0.235 N 
ATOM      5  C   UNL     1      -8.528  -7.952  -1.427  0.00  0.00    +0.221 A 
ATOM      6  C   UNL     1     -10.908  -8.533  -2.001  0.00  0.00    +0.176 C 
ENDROOT
BRANCH   2   7
ATOM      7  C   UNL     1      -8.367  -7.726   2.234  0.00  0.00    +0.002 A 
ATOM      8  C   UNL     1      -9.222  -7.033   3.088  0.00  0.00    +0.010 A 
ATOM      9  C   UNL     1      -8.895  -6.892   4.422  0.00  0.00    +0.001 A 
ATOM     10  C   UNL     1      -7.722  -7.437   4.910  0.00  0.00    +0.000 A 
ATOM     11  C   UNL     1      -6.869  -8.126   4.067  0.00  0.00    +0.001 A 
ATOM     12  C   UNL     1      -7.189  -8.278   2.733  0.00  0.00    +0.010 A 
ENDBRANCH   2   7
BRANCH   1  13
ATOM     13  C   UNL     1      -6.361  -7.397  -0.194  0.00  0.00    -0.035 C 
BRANCH  13  14
ATOM     14  N   UNL     1      -6.180  -5.952  -0.391  0.00  0.00    +0.384 N 
ATOM     15  H   UNL     1      -6.550  -5.687  -1.291  0.00  0.00    -0.081 HD
BRANCH  14  16
ATOM     16  C   UNL     1      -4.749  -5.626  -0.333  0.00  0.00    -0.044 C 
BRANCH  16  17
ATOM     17  C   UNL     1      -4.039  -6.227  -1.547  0.00  0.00    +0.124 C 
BRANCH  17  18
ATOM     18  O   UNL     1      -4.040  -7.652  -1.442  0.00  0.00    -0.391 OA
ATOM     19  H   UNL     1      -3.592  -7.989  -0.654  0.00  0.00    +0.210 HD
ENDBRANCH  17  18
BRANCH  17  20
ATOM     20  C   UNL     1      -2.596  -5.720  -1.597  0.00  0.00    +0.189 C 
BRANCH  20  21
ATOM     21  O   UNL     1      -1.968  -6.188  -2.793  0.00  0.00    -0.377 OA
BRANCH  21  22
ATOM     22  C   UNL     1      -0.610  -5.769  -2.938  0.00  0.00    +0.160 C 
BRANCH  22  23
ATOM     23  C   UNL     1      -0.042  -6.324  -4.245  0.00  0.00    +0.028 C 
BRANCH  23  25
ATOM     24  C   UNL     1       1.980  -6.431  -5.708  0.00  0.00    +0.004 C 
ATOM     25  C   UNL     1       1.412  -5.875  -4.401  0.00  0.00    -0.001 C 
ENDBRANCH  23  25
ENDBRANCH  22  23
ENDBRANCH  21  22
ENDBRANCH  20  21
ENDBRANCH  17  20
ENDBRANCH  16  17
ENDBRANCH  14  16
BRANCH  14  26
ATOM     26  C   UNL     1      -6.893  -5.222   0.666  0.00  0.00    -0.075 C 
BRANCH  26  27
ATOM     27  C   UNL     1      -6.837  -3.721   0.375  0.00  0.00    -0.034 C 
ATOM     28  C   UNL     1      -7.588  -3.426  -0.926  0.00  0.00    +0.005 C 
ATOM     29  C   UNL     1      -7.490  -2.953   1.526  0.00  0.00    +0.005 C 
ENDBRANCH  26  27
ENDBRANCH  14  26
ENDBRANCH  13  14
ENDBRANCH   1  13
BRANCH   5  30
ATOM     30  O   UNL     1      -8.036  -7.900  -2.691  0.00  0.00    -0.435 OA
BRANCH  30  31
ATOM     31  C   UNL     1      -7.597  -9.057  -3.253  0.00  0.00    +0.165 A 
ATOM     32  C   UNL     1      -7.755 -10.260  -2.582  0.00  0.00    +0.049 A 
ATOM     33  C   UNL     1      -7.309 -11.434  -3.156  0.00  0.00    +0.004 A 
ATOM     34  C   UNL     1      -6.704 -11.412  -4.399  0.00  0.00    +0.003 A 
ATOM     35  C   UNL     1      -6.543 -10.215  -5.072  0.00  0.00    +0.042 A 
ATOM     36  C   UNL     1      -6.994  -9.037  -4.505  0.00  0.00    +0.165 A 
ATOM     37  F   UNL     1      -6.843  -7.868  -5.165  0.00  0.00    -0.202 F 
ENDBRANCH  30  31
ENDBRANCH   5  30
TORSDOF 15
