REMARK  Name = ZINC05358042
REMARK  4 active torsions:
REMARK  status: ('A' for Active; 'I' for Inactive)
REMARK    1  A    between atoms: C_5  and  C_7
REMARK    2  A    between atoms: C_16  and  C_18
REMARK    3  A    between atoms: C_18  and  S_19
REMARK    4  A    between atoms: S_19  and  C_20
REMARK                            x       y       z     vdW  Elec       q    Type
REMARK                         _______ _______ _______ _____ _____    ______ ____
ROOT
ATOM      1  C   UNL     1      -2.514   1.661   0.023  0.00  0.00    +0.005 A 
ATOM      2  C   UNL     1      -3.367   1.744  -1.027  0.00  0.00    +0.056 A 
ATOM      3  S   UNL     1      -4.714   0.679  -0.550  0.00  0.00    -0.076 S 
ATOM      4  C   UNL     1      -4.112   0.159   1.036  0.00  0.00    +0.116 A 
ATOM      5  C   UNL     1      -2.879   0.820   1.157  0.00  0.00    +0.080 A 
ATOM      6  C   UNL     1      -2.160   0.574   2.370  0.00  0.00    +0.260 A 
ATOM      7  O   UNL     1      -1.079   1.103   2.567  0.00  0.00    -0.267 OA
ATOM      8  N   UNL     1      -2.696  -0.250   3.290  0.00  0.00    -0.310 N 
ATOM      9  H   UNL     1      -2.198  -0.425   4.139  0.00  0.00    +0.170 HD
ATOM     10  C   UNL     1      -3.898  -0.847   3.088  0.00  0.00    +0.121 A 
ATOM     11  N   UNL     1      -4.577  -0.642   1.991  0.00  0.00    -0.226 NA
ENDROOT
BRANCH   1  16
ATOM     12  C   UNL     1      -0.057   4.505   0.027  0.00  0.00    +0.001 A 
ATOM     13  C   UNL     1       1.146   3.823   0.011  0.00  0.00    +0.001 A 
ATOM     14  C   UNL     1       1.164   2.440   0.004  0.00  0.00    +0.020 A 
ATOM     15  C   UNL     1      -0.021   1.732   0.012  0.00  0.00    +0.049 A 
ATOM     16  C   UNL     1      -1.238   2.414   0.021  0.00  0.00    +0.002 A 
ATOM     17  C   UNL     1      -1.248   3.808   0.035  0.00  0.00    +0.010 A 
ATOM     18 CL   UNL     1       0.002  -0.004   0.002  0.00  0.00    -0.083 Cl
ENDBRANCH   1  16
BRANCH  10  19
ATOM     19  C   UNL     1      -4.458  -1.761   4.146  0.00  0.00    +0.150 C 
BRANCH  19  20
ATOM     20  S   UNL     1      -6.063  -2.406   3.600  0.00  0.00    -0.089 S 
BRANCH  20  21
ATOM     21  C   UNL     1      -6.580  -3.444   4.927  0.00  0.00    +0.160 A 
ATOM     22  N   UNL     1      -5.969  -3.711   6.065  0.00  0.00    -0.133 NA
ATOM     23  N   UNL     1      -6.558  -4.560   6.975  0.00  0.00    -0.125 NA
ATOM     24  C   UNL     1      -7.729  -5.101   6.704  0.00  0.00    +0.180 A 
ATOM     25  S   UNL     1      -8.074  -4.408   5.095  0.00  0.00    -0.025 S 
ATOM     26  N   UNL     1      -8.494  -5.974   7.470  0.00  0.00    -0.336 N 
ATOM     27  H   UNL     1      -8.174  -6.265   8.338  0.00  0.00    +0.144 HD
ATOM     28  H   UNL     1      -9.347  -6.292   7.136  0.00  0.00    +0.144 HD
ENDBRANCH  20  21
ENDBRANCH  19  20
ENDBRANCH  10  19
TORSDOF 4
