REMARK  Name = ZINC38658448
REMARK  10 active torsions:
REMARK  status: ('A' for Active; 'I' for Inactive)
REMARK    1  A    between atoms: C_1  and  O_2
REMARK    2  A    between atoms: O_2  and  C_3
REMARK    3  A    between atoms: C_6  and  C_11
REMARK    4  A    between atoms: C_8  and  O_9
REMARK    5  A    between atoms: O_9  and  C_10
REMARK    6  A    between atoms: C_16  and  O_25
REMARK    7  A    between atoms: C_20  and  N_24
REMARK    8  A    between atoms: C_21  and  C_22
REMARK    9  A    between atoms: O_25  and  C_26
REMARK   10  A    between atoms: C_26  and  C_28
REMARK                            x       y       z     vdW  Elec       q    Type
REMARK                         _______ _______ _______ _____ _____    ______ ____
ROOT
ATOM      1  C   UNL     1       2.531  -2.563   4.289  0.00  0.00    +0.098 C 
ATOM      2  C   UNL     1       1.863  -2.179   5.582  0.00  0.00    +0.008 A 
ATOM      3  C   UNL     1       0.611  -2.689   5.879  0.00  0.00    +0.012 A 
ATOM      4  C   UNL     1      -0.017  -2.348   7.060  0.00  0.00    +0.047 A 
ATOM      5  C   UNL     1       0.607  -1.490   7.955  0.00  0.00    +0.135 A 
ATOM      6  C   UNL     1       1.860  -0.978   7.661  0.00  0.00    +0.093 A 
ATOM      7  C   UNL     1       2.490  -1.321   6.472  0.00  0.00    +0.138 A 
ATOM      8  O   UNL     1       3.717  -0.812   6.199  0.00  0.00    -0.441 OA
ATOM      9  C   UNL     1       4.501  -1.405   5.284  0.00  0.00    +0.199 C 
ATOM     10  C   UNL     1       3.999  -2.245   4.352  0.00  0.00    +0.098 C 
ENDROOT
BRANCH   1  14
ATOM     11  C   UNL     1       0.748  -0.381   1.072  0.00  0.00    +0.162 A 
ATOM     12  C   UNL     1       1.367   0.294   2.112  0.00  0.00    +0.050 A 
ATOM     13  C   UNL     1       1.942  -0.414   3.151  0.00  0.00    +0.008 A 
ATOM     14  C   UNL     1       1.902  -1.796   3.155  0.00  0.00    -0.031 A 
ATOM     15  C   UNL     1       1.287  -2.476   2.120  0.00  0.00    +0.054 A 
ATOM     16  C   UNL     1       0.703  -1.772   1.079  0.00  0.00    +0.162 A 
BRANCH  11  18
ATOM     17  C   UNL     1       0.266   1.739   0.109  0.00  0.00    +0.277 C 
ATOM     18  O   UNL     1       0.181   0.314   0.050  0.00  0.00    -0.491 OA
ENDBRANCH  11  18
BRANCH  16  19
ATOM     19  O   UNL     1       0.092  -2.439   0.063  0.00  0.00    -0.491 OA
ATOM     20  C   UNL     1       0.084  -3.866   0.137  0.00  0.00    +0.277 C 
ENDBRANCH  16  19
ENDBRANCH   1  14
BRANCH   9  21
ATOM     21  N   UNL     1       5.849  -1.150   5.295  0.00  0.00    -0.328 N 
ATOM     22  H   UNL     1       6.223  -0.548   5.958  0.00  0.00    +0.145 HD
ATOM     23  H   UNL     1       6.428  -1.571   4.641  0.00  0.00    +0.145 HD
ENDBRANCH   9  21
BRANCH  10  24
ATOM     24  C   UNL     1       4.888  -2.845   3.403  0.00  0.00    +0.101 C 
ATOM     25  N   UNL     1       5.594  -3.321   2.651  0.00  0.00    -0.191 NA
ENDBRANCH  10  24
BRANCH   5  26
ATOM     26  O   UNL     1      -0.010  -1.153   9.118  0.00  0.00    -0.422 OA
BRANCH  26  27
ATOM     27  C   UNL     1      -0.152  -2.108  10.059  0.00  0.00    +0.346 C 
ATOM     28  O   UNL     1       0.356  -3.199   9.898  0.00  0.00    -0.244 OA
BRANCH  27  29
ATOM     29  C   UNL     1      -0.926  -1.827  11.284  0.00  0.00    +0.078 A 
ATOM     30  C   UNL     1      -1.517  -0.575  11.469  0.00  0.00    +0.018 A 
ATOM     31  C   UNL     1      -2.238  -0.319  12.615  0.00  0.00    +0.021 A 
ATOM     32  C   UNL     1      -2.378  -1.300  13.584  0.00  0.00    +0.042 A 
ATOM     33  C   UNL     1      -1.795  -2.544  13.408  0.00  0.00    +0.040 A 
ATOM     34  C   UNL     1      -1.075  -2.815  12.261  0.00  0.00    +0.056 A 
ATOM     35 CL   UNL     1      -0.351  -4.377  12.037  0.00  0.00    -0.083 Cl
ATOM     36 CL   UNL     1      -3.287  -0.969  15.025  0.00  0.00    -0.083 Cl
ENDBRANCH  27  29
ENDBRANCH  26  27
ENDBRANCH   5  26
TORSDOF 8
