REMARK  Name = ZINC36316010
REMARK  18 active torsions:
REMARK  status: ('A' for Active; 'I' for Inactive)
REMARK    1  A    between atoms: C_1  and  C_2
REMARK    2  A    between atoms: C_5  and  O_8
REMARK    3  A    between atoms: O_8  and  C_9
REMARK    4  A    between atoms: C_10  and  C_21
REMARK    5  A    between atoms: C_11  and  C_15
REMARK    6  A    between atoms: N_13  and  C_14
REMARK    7  A    between atoms: C_21  and  N_22
REMARK    8  A    between atoms: N_22  and  C_23
REMARK    9  A    between atoms: N_22  and  C_29
REMARK   10  A    between atoms: C_23  and  C_24
REMARK   11  A    between atoms: C_29  and  C_30
REMARK   12  A    between atoms: C_30  and  C_32
REMARK   13  A    between atoms: C_30  and  O_38
REMARK   14  A    between atoms: C_32  and  O_33
REMARK   15  A    between atoms: O_33  and  C_34
REMARK   16  A    between atoms: C_34  and  C_35
REMARK   17  A    between atoms: C_35  and  C_36
REMARK   18  A    between atoms: C_35  and  C_37
REMARK                            x       y       z     vdW  Elec       q    Type
REMARK                         _______ _______ _______ _____ _____    ______ ____
ROOT
ATOM      1  C   UNL     1       0.309  -4.569   1.983  0.00  0.00    +0.221 A 
ATOM      2  C   UNL     1       0.072  -5.895   1.814  0.00  0.00    +0.025 A 
ATOM      3  C   UNL     1      -0.512  -6.382   2.999  0.00  0.00    +0.098 A 
ATOM      4  N   UNL     1      -0.619  -5.379   3.844  0.00  0.00    -0.168 NA
ATOM      5  N   UNL     1      -0.104  -4.230   3.231  0.00  0.00    -0.235 N 
ATOM      6  C   UNL     1      -0.028  -2.895   3.830  0.00  0.00    +0.176 C 
ENDROOT
BRANCH   3   7
ATOM      7  C   UNL     1      -0.935  -7.782   3.250  0.00  0.00    +0.002 A 
ATOM      8  C   UNL     1      -1.619  -8.493   2.267  0.00  0.00    +0.010 A 
ATOM      9  C   UNL     1      -2.010  -9.795   2.506  0.00  0.00    +0.001 A 
ATOM     10  C   UNL     1      -1.722 -10.395   3.719  0.00  0.00    +0.000 A 
ATOM     11  C   UNL     1      -1.043  -9.693   4.699  0.00  0.00    +0.001 A 
ATOM     12  C   UNL     1      -0.643  -8.392   4.469  0.00  0.00    +0.010 A 
ENDBRANCH   3   7
BRANCH   1  13
ATOM     13  O   UNL     1       0.866  -3.733   1.069  0.00  0.00    -0.438 OA
BRANCH  13  18
ATOM     14  C   UNL     1      -2.587  -0.746  -2.229  0.00  0.00    +0.044 C 
ATOM     15  C   UNL     1      -1.663  -1.545  -1.346  0.00  0.00    -0.050 A 
ATOM     16  C   UNL     1      -0.298  -1.335  -1.407  0.00  0.00    +0.007 A 
ATOM     17  C   UNL     1       0.551  -2.067  -0.600  0.00  0.00    +0.046 A 
ATOM     18  C   UNL     1       0.033  -3.012   0.274  0.00  0.00    +0.130 A 
ATOM     19  C   UNL     1      -1.338  -3.220   0.334  0.00  0.00    +0.046 A 
ATOM     20  C   UNL     1      -2.183  -2.482  -0.473  0.00  0.00    +0.007 A 
ENDBRANCH  13  18
ENDBRANCH   1  13
BRANCH   2  21
ATOM     21  C   UNL     1       0.379  -6.702   0.579  0.00  0.00    -0.035 C 
BRANCH  21  22
ATOM     22  N   UNL     1       1.790  -7.112   0.600  0.00  0.00    +0.389 N 
ATOM     23  H   UNL     1       2.377  -6.294   0.672  0.00  0.00    -0.081 HD
BRANCH  22  24
ATOM     24  C   UNL     1       2.108  -7.836  -0.637  0.00  0.00    -0.003 C 
BRANCH  24  25
ATOM     25  C   UNL     1       1.864  -6.938  -1.822  0.00  0.00    +0.089 A 
ATOM     26  C   UNL     1       2.786  -6.172  -2.432  0.00  0.00    +0.042 A 
ATOM     27  C   UNL     1       2.128  -5.499  -3.487  0.00  0.00    +0.041 A 
ATOM     28  C   UNL     1       0.842  -5.894  -3.459  0.00  0.00    +0.195 A 
ATOM     29  O   UNL     1       0.689  -6.770  -2.452  0.00  0.00    -0.470 OA
ENDBRANCH  24  25
ENDBRANCH  22  24
BRANCH  22  30
ATOM     30  C   UNL     1       2.028  -7.988   1.755  0.00  0.00    -0.044 C 
BRANCH  30  31
ATOM     31  C   UNL     1       3.530  -8.241   1.902  0.00  0.00    +0.124 C 
BRANCH  31  32
ATOM     32  O   UNL     1       3.984  -9.055   0.819  0.00  0.00    -0.391 OA
ATOM     33  H   UNL     1       3.553  -9.919   0.769  0.00  0.00    +0.210 HD
ENDBRANCH  31  32
BRANCH  31  34
ATOM     34  C   UNL     1       3.799  -8.958   3.227  0.00  0.00    +0.189 C 
BRANCH  34  35
ATOM     35  O   UNL     1       5.209  -9.091   3.419  0.00  0.00    -0.377 OA
BRANCH  35  36
ATOM     36  C   UNL     1       5.570  -9.751   4.633  0.00  0.00    +0.163 C 
BRANCH  36  37
ATOM     37  C   UNL     1       7.095  -9.836   4.733  0.00  0.00    +0.009 C 
ATOM     38  C   UNL     1       7.678  -8.426   4.849  0.00  0.00    +0.009 C 
ATOM     39  C   UNL     1       7.480 -10.651   5.970  0.00  0.00    +0.009 C 
ENDBRANCH  36  37
ENDBRANCH  35  36
ENDBRANCH  34  35
ENDBRANCH  31  34
ENDBRANCH  30  31
ENDBRANCH  22  30
ENDBRANCH  21  22
ENDBRANCH   2  21
TORSDOF 14
