REMARK  Name = ZINC03633116
REMARK  11 active torsions:
REMARK  status: ('A' for Active; 'I' for Inactive)
REMARK    1  A    between atoms: C_1  and  C_2
REMARK    2  A    between atoms: C_2  and  C_3
REMARK    3  A    between atoms: C_3  and  N_4
REMARK    4  A    between atoms: N_4  and  C_5
REMARK    5  A    between atoms: N_4  and  C_8
REMARK    6  A    between atoms: C_5  and  C_6
REMARK    7  A    between atoms: C_6  and  C_7
REMARK    8  A    between atoms: C_8  and  C_9
REMARK    9  A    between atoms: C_10  and  C_20
REMARK   10  A    between atoms: N_22  and  N_23
REMARK   11  A    between atoms: C_24  and  C_25
REMARK                            x       y       z     vdW  Elec       q    Type
REMARK                         _______ _______ _______ _____ _____    ______ ____
ROOT
ATOM      1  C   UNL     1       0.156  -2.025   3.670  0.00  0.00    +0.063 A 
ATOM      2  C   UNL     1       0.305  -0.884   4.405  0.00  0.00    +0.170 A 
ATOM      3  N   UNL     1      -0.725  -0.794   5.266  0.00  0.00    -0.124 NA
ATOM      4  N   UNL     1      -1.505  -1.807   5.113  0.00  0.00    -0.058 NA
ATOM      5  N   UNL     1      -0.982  -2.619   4.096  0.00  0.00    -0.194 N 
ATOM      6  C   UNL     1      -1.530  -3.814   3.617  0.00  0.00    +0.240 A 
ATOM      7  C   UNL     1      -2.768  -4.439   4.088  0.00  0.00    +0.206 A 
ATOM      8  N   UNL     1      -2.958  -5.537   3.410  0.00  0.00    -0.032 NA
ATOM      9  O   UNL     1      -1.885  -5.672   2.494  0.00  0.00    -0.239 OA
ATOM     10  N   UNL     1      -1.029  -4.557   2.671  0.00  0.00    -0.027 NA
ATOM     11  N   UNL     1      -3.599  -3.947   5.089  0.00  0.00    -0.337 N 
ATOM     12  H   UNL     1      -3.376  -3.118   5.541  0.00  0.00    +0.144 HD
ATOM     13  H   UNL     1      -4.402  -4.432   5.335  0.00  0.00    +0.144 HD
ENDROOT
BRANCH   2  14
ATOM     14  C   UNL     1       1.408   0.086   4.278  0.00  0.00    +0.285 C 
ATOM     15  O   UNL     1       2.290  -0.099   3.460  0.00  0.00    -0.267 OA
ATOM     16  N   UNL     1       1.440   1.179   5.067  0.00  0.00    -0.202 N 
ATOM     17  H   UNL     1       0.737   1.327   5.718  0.00  0.00    +0.178 HD
BRANCH  16  18
ATOM     18  N   UNL     1       2.489   2.100   4.945  0.00  0.00    -0.187 NA
ATOM     19  C   UNL     1       2.519   3.153   5.706  0.00  0.00    +0.140 C 
BRANCH  19  20
ATOM     20  C   UNL     1       3.621   4.121   5.579  0.00  0.00    +0.020 A 
ATOM     21  C   UNL     1       3.791   5.259   6.304  0.00  0.00    +0.093 A 
ATOM     22  N   UNL     1       4.927   5.895   5.901  0.00  0.00    -0.360 N 
ATOM     23  H   UNL     1       5.258   6.728   6.272  0.00  0.00    +0.165 HD
ATOM     24  C   UNL     1       5.539   5.185   4.890  0.00  0.00    +0.047 A 
ATOM     25  C   UNL     1       4.758   4.043   4.645  0.00  0.00    +0.008 A 
ATOM     26  C   UNL     1       5.145   3.130   3.666  0.00  0.00    +0.010 A 
ATOM     27  C   UNL     1       6.297   3.351   2.944  0.00  0.00    +0.001 A 
ATOM     28  C   UNL     1       7.071   4.477   3.187  0.00  0.00    +0.002 A 
ATOM     29  C   UNL     1       6.697   5.393   4.146  0.00  0.00    +0.026 A 
ENDBRANCH  19  20
ENDBRANCH  16  18
ENDBRANCH   2  14
BRANCH   1  30
ATOM     30  C   UNL     1       1.078  -2.523   2.587  0.00  0.00    -0.020 C 
BRANCH  30  31
ATOM     31  N   UNL     1       0.654  -1.975   1.292  0.00  0.00    +0.383 N 
ATOM     32  H   UNL     1      -0.316  -2.204   1.131  0.00  0.00    -0.081 HD
BRANCH  31  33
ATOM     33  C   UNL     1       0.817  -0.515   1.300  0.00  0.00    -0.079 C 
BRANCH  33  35
ATOM     34  C   UNL     1       0.288   1.598   0.077  0.00  0.00    +0.002 C 
ATOM     35  C   UNL     1       0.238   0.070   0.011  0.00  0.00    -0.022 C 
ENDBRANCH  33  35
ENDBRANCH  31  33
BRANCH  31  36
ATOM     36  C   UNL     1       1.477  -2.554   0.222  0.00  0.00    -0.079 C 
BRANCH  36  37
ATOM     37  C   UNL     1       1.198  -4.055   0.119  0.00  0.00    -0.022 C 
ATOM     38  C   UNL     1       1.955  -4.633  -1.079  0.00  0.00    +0.002 C 
ENDBRANCH  36  37
ENDBRANCH  31  36
ENDBRANCH  30  31
ENDBRANCH   1  30
TORSDOF 9
