REMARK  Name = ZINC38831933
REMARK  12 active torsions:
REMARK  status: ('A' for Active; 'I' for Inactive)
REMARK    1  A    between atoms: C_1  and  C_2
REMARK    2  A    between atoms: N_7  and  C_9
REMARK    3  A    between atoms: C_9  and  C_10
REMARK    4  A    between atoms: C_14  and  C_16
REMARK    5  A    between atoms: C_16  and  N_17
REMARK    6  A    between atoms: C_18  and  C_20
REMARK    7  A    between atoms: N_23  and  S_35
REMARK    8  A    between atoms: C_26  and  C_31
REMARK    9  A    between atoms: C_31  and  C_32
REMARK   10  A    between atoms: C_31  and  C_33
REMARK   11  A    between atoms: C_31  and  C_34
REMARK   12  A    between atoms: S_35  and  C_38
REMARK                            x       y       z     vdW  Elec       q    Type
REMARK                         _______ _______ _______ _____ _____    ______ ____
ROOT
ATOM      1  N   UNL     1       3.703  -6.601  -0.614  0.00  0.00    -0.308 N 
ATOM      2  C   UNL     1       4.599  -7.187  -1.433  0.00  0.00    +0.256 C 
ATOM      3  O   UNL     1       5.690  -7.506  -1.010  0.00  0.00    -0.272 OA
ATOM      4  H   UNL     1       2.830  -6.347  -0.953  0.00  0.00    +0.149 HD
ENDROOT
BRANCH   2   5
ATOM      5  C   UNL     1       4.245  -7.447  -2.875  0.00  0.00    +0.277 C 
ATOM      6  C   UNL     1       3.105  -8.473  -2.948  0.00  0.00    +0.185 C 
ATOM      7  N   UNL     1       2.829  -8.730  -4.372  0.00  0.00    -0.200 N 
ATOM      8  C   UNL     1       3.927  -8.866  -5.236  0.00  0.00    +0.093 A 
ATOM      9  C   UNL     1       3.750  -9.386  -6.508  0.00  0.00    +0.032 A 
ATOM     10  C   UNL     1       4.835  -9.514  -7.357  0.00  0.00    -0.040 A 
ATOM     11  C   UNL     1       6.093  -9.124  -6.937  0.00  0.00    +0.008 A 
ATOM     12  C   UNL     1       6.275  -8.606  -5.668  0.00  0.00    +0.048 A 
ATOM     13  C   UNL     1       5.194  -8.476  -4.809  0.00  0.00    +0.144 A 
ATOM     14  O   UNL     1       5.384  -7.970  -3.562  0.00  0.00    -0.476 OA
BRANCH  10  15
ATOM     15  C   UNL     1       4.644 -10.079  -8.741  0.00  0.00    -0.013 C 
ATOM     16  C   UNL     1       3.666  -9.199  -9.521  0.00  0.00    +0.015 C 
ATOM     17  C   UNL     1       5.991 -10.113  -9.467  0.00  0.00    +0.015 C 
ATOM     18  C   UNL     1       4.084 -11.499  -8.639  0.00  0.00    +0.015 C 
ENDBRANCH  10  15
BRANCH   7  19
ATOM     19  S   UNL     1       1.276  -8.856  -4.934  0.00  0.00    +0.043 S 
ATOM     20  O   UNL     1       0.477  -8.242  -3.933  0.00  0.00    -0.155 OA
ATOM     21  O   UNL     1       1.323  -8.325  -6.251  0.00  0.00    -0.155 OA
ATOM     22  C   UNL     1       0.944 -10.639  -4.991  0.00  0.00    +0.218 C 
ENDBRANCH   7  19
ENDBRANCH   2   5
BRANCH   1  23
ATOM     23  C   UNL     1       4.047  -6.349   0.787  0.00  0.00    +0.139 C 
BRANCH  23  28
ATOM     24  C   UNL     1       1.710  -3.708   2.135  0.00  0.00    -0.064 A 
ATOM     25  C   UNL     1       0.745  -4.482   2.752  0.00  0.00    +0.002 A 
ATOM     26  C   UNL     1       0.849  -5.861   2.733  0.00  0.00    +0.001 A 
ATOM     27  C   UNL     1       1.918  -6.465   2.097  0.00  0.00    +0.005 A 
ATOM     28  C   UNL     1       2.882  -5.691   1.480  0.00  0.00    -0.030 A 
ATOM     29  C   UNL     1       2.776  -4.312   1.495  0.00  0.00    +0.007 A 
BRANCH  24  30
ATOM     30  C   UNL     1       1.597  -2.205   2.156  0.00  0.00    -0.043 C 
BRANCH  30  36
ATOM     31  C   UNL     1       0.104   1.713  -0.370  0.00  0.00    +0.005 C 
ATOM     32  C   UNL     1       0.105   0.184  -0.324  0.00  0.00    -0.031 C 
ATOM     33  C   UNL     1      -1.339  -0.328  -0.296  0.00  0.00    -0.001 C 
ATOM     34  C   UNL     1      -1.326  -1.854  -0.170  0.00  0.00    -0.018 C 
ATOM     35  C   UNL     1      -0.546  -2.251   1.085  0.00  0.00    -0.078 C 
ATOM     36  N   UNL     1       0.832  -1.756   0.986  0.00  0.00    +0.383 N 
ATOM     37  C   UNL     1       0.833  -0.289   0.937  0.00  0.00    -0.075 C 
ATOM     38  H   UNL     1       1.259  -2.119   0.147  0.00  0.00    -0.081 HD
ENDBRANCH  30  36
ENDBRANCH  24  30
ENDBRANCH  23  28
ENDBRANCH   1  23
TORSDOF 7
