REMARK  Name = ZINC20304887
REMARK  6 active torsions:
REMARK  status: ('A' for Active; 'I' for Inactive)
REMARK    1  A    between atoms: C_5  and  S_8
REMARK    2  A    between atoms: S_8  and  N_11
REMARK    3  A    between atoms: N_11  and  C_12
REMARK    4  A    between atoms: C_12  and  C_14
REMARK    5  A    between atoms: C_12  and  C_16
REMARK    6  A    between atoms: C_14  and  O_15
REMARK                            x       y       z     vdW  Elec       q    Type
REMARK                         _______ _______ _______ _____ _____    ______ ____
ROOT
ATOM      1  S   UNL     1       2.671   4.069  -0.001  0.00  0.00    +0.062 S 
ATOM      2  O   UNL     1       2.388   5.343   0.559  0.00  0.00    -0.153 OA
ATOM      3  O   UNL     1       3.662   3.204   0.536  0.00  0.00    -0.153 OA
ENDROOT
BRANCH   1   8
ATOM      4  C   UNL     1      -0.013   1.076   0.008  0.00  0.00    +0.037 A 
ATOM      5  C   UNL     1      -1.220   1.751   0.017  0.00  0.00    +0.021 A 
ATOM      6  C   UNL     1      -1.239   3.134   0.031  0.00  0.00    +0.037 A 
ATOM      7  C   UNL     1      -0.050   3.842   0.023  0.00  0.00    +0.070 A 
ATOM      8  C   UNL     1       1.157   3.167   0.008  0.00  0.00    +0.142 A 
ATOM      9  C   UNL     1       1.176   1.784   0.000  0.00  0.00    +0.070 A 
ATOM     10 CL   UNL     1       2.691   0.936  -0.018  0.00  0.00    -0.081 Cl
ATOM     11 CL   UNL     1      -0.074   5.578   0.033  0.00  0.00    -0.081 Cl
ATOM     12 BR   UNL     1      -2.844   0.783   0.020  0.00  0.00    -0.050 Br
ENDBRANCH   1   8
BRANCH   1  13
ATOM     13  N   UNL     1       3.077   4.328  -1.585  0.00  0.00    -0.174 NA
ATOM     14  H   UNL     1       3.889   3.737  -2.036  0.00  0.00    +0.149 HD
BRANCH  13  15
ATOM     15  C   UNL     1       2.227   5.169  -2.431  0.00  0.00    +0.214 C 
BRANCH  15  16
ATOM     16  C   UNL     1       2.762   6.578  -2.438  0.00  0.00    +0.376 C 
ATOM     17  O   UNL     1       3.752   6.851  -1.802  0.00  0.00    -0.244 OA
ATOM     18  O   UNL     1       2.139   7.529  -3.152  0.00  0.00    -0.244 OA
ENDBRANCH  15  16
BRANCH  15  19
ATOM     19  C   UNL     1       2.223   4.618  -3.859  0.00  0.00    +0.187 C 
BRANCH  19  20
ATOM     20  O   UNL     1       3.535   4.726  -4.415  0.00  0.00    -0.393 OA
ATOM     21  H   UNL     1       3.728   4.378  -5.440  0.00  0.00    +0.209 HD
ENDBRANCH  19  20
ENDBRANCH  15  19
ENDBRANCH  13  15
ENDBRANCH   1  13
TORSDOF 6
