REMARK  Name = ZINC03585104
REMARK  10 active torsions:
REMARK  status: ('A' for Active; 'I' for Inactive)
REMARK    1  A    between atoms: C_1  and  N_48
REMARK    2  A    between atoms: C_2  and  C_3
REMARK    3  A    between atoms: C_2  and  N_48
REMARK    4  A    between atoms: C_11  and  C_12
REMARK    5  A    between atoms: C_11  and  N_48
REMARK    6  A    between atoms: N_14  and  C_15
REMARK    7  A    between atoms: C_15  and  C_16
REMARK    8  A    between atoms: C_16  and  C_17
REMARK    9  A    between atoms: C_20  and  S_23
REMARK   10  A    between atoms: S_23  and  N_26
REMARK                            x       y       z     vdW  Elec       q    Type
REMARK                         _______ _______ _______ _____ _____    ______ ____
ROOT
ATOM      1  C   UNL     1      -0.543   1.446  -3.655  0.00  0.00    +0.196 C 
ATOM      2  O   UNL     1      -1.540   2.130  -3.753  0.00  0.00    -0.278 OA
ATOM      3  N   UNL     1      -0.067   1.120  -2.437  0.00  0.00    -0.317 N 
ATOM      4  H   UNL     1       0.730   0.573  -2.358  0.00  0.00    +0.149 HD
ENDROOT
BRANCH   1   5
ATOM      5  C   UNL     1       0.162   0.960  -4.895  0.00  0.00    +0.019 C 
BRANCH   5   7
ATOM      6  C   UNL     1      -0.465   2.910  -6.186  0.00  0.00    -0.095 C 
ATOM      7  N   UNL     1      -0.576   1.440  -6.082  0.00  0.00    +0.386 N 
ATOM      8  H   UNL     1      -1.566   1.186  -5.984  0.00  0.00    -0.081 HD
BRANCH   7   9
ATOM      9  C   UNL     1      -0.037   0.805  -7.303  0.00  0.00    -0.041 C 
BRANCH   9  10
ATOM     10  C   UNL     1      -0.940   1.136  -8.463  0.00  0.00    -0.044 A 
ATOM     11  C   UNL     1      -0.538   2.058  -9.410  0.00  0.00    +0.003 A 
ATOM     12  C   UNL     1      -1.366   2.363 -10.475  0.00  0.00    +0.002 A 
ATOM     13  C   UNL     1      -2.597   1.745 -10.592  0.00  0.00    +0.021 A 
ATOM     14  C   UNL     1      -3.001   0.822  -9.645  0.00  0.00    +0.059 A 
ATOM     15  C   UNL     1      -2.168   0.512  -8.582  0.00  0.00    +0.061 A 
ATOM     16 CL   UNL     1      -2.671  -0.652  -7.397  0.00  0.00    -0.082 Cl
ATOM     17 CL   UNL     1      -4.547   0.046  -9.793  0.00  0.00    -0.082 Cl
ENDBRANCH   9  10
ENDBRANCH   7   9
ENDBRANCH   5   7
ENDBRANCH   1   5
BRANCH   3  18
ATOM     18  C   UNL     1      -0.753   1.593  -1.232  0.00  0.00    +0.109 C 
BRANCH  18  19
ATOM     19  C   UNL     1      -0.013   1.086   0.008  0.00  0.00    +0.054 C 
BRANCH  19  20
ATOM     20  C   UNL     1      -0.718   1.572   1.248  0.00  0.00    -0.046 A 
ATOM     21  C   UNL     1      -0.360   2.779   1.819  0.00  0.00    +0.005 A 
ATOM     22  C   UNL     1      -1.010   3.227   2.953  0.00  0.00    +0.029 A 
ATOM     23  C   UNL     1      -2.012   2.463   3.523  0.00  0.00    +0.105 A 
ATOM     24  C   UNL     1      -2.366   1.254   2.955  0.00  0.00    +0.029 A 
ATOM     25  C   UNL     1      -1.719   0.808   1.818  0.00  0.00    +0.005 A 
BRANCH  23  26
ATOM     26  S   UNL     1      -2.837   3.032   4.972  0.00  0.00    +0.056 S 
ATOM     27  O   UNL     1      -2.695   4.446   4.992  0.00  0.00    -0.153 OA
ATOM     28  O   UNL     1      -4.107   2.394   4.993  0.00  0.00    -0.153 OA
BRANCH  26  29
ATOM     29  N   UNL     1      -1.995   2.453   6.274  0.00  0.00    -0.204 NA
ATOM     30  H   UNL     1      -1.981   2.954   7.105  0.00  0.00    +0.144 HD
ATOM     31  H   UNL     1      -1.514   1.613   6.207  0.00  0.00    +0.144 HD
ENDBRANCH  26  29
ENDBRANCH  23  26
ENDBRANCH  19  20
ENDBRANCH  18  19
ENDBRANCH   3  18
TORSDOF 9
