REMARK  Name = ZINC50650395
REMARK  3 active torsions:
REMARK  status: ('A' for Active; 'I' for Inactive)
REMARK    1  A    between atoms: C_4  and  N_8
REMARK    2  A    between atoms: N_8  and  S_9
REMARK    3  A    between atoms: S_9  and  C_12
REMARK                            x       y       z     vdW  Elec       q    Type
REMARK                         _______ _______ _______ _____ _____    ______ ____
ROOT
ATOM      1  S   UNL     1       3.650  -2.307  -0.046  0.00  0.00    +0.092 S 
ATOM      2  O   UNL     1       3.118  -2.728   1.203  0.00  0.00    -0.148 OA
ATOM      3  O   UNL     1       3.093  -2.715  -1.288  0.00  0.00    -0.148 OA
ENDROOT
BRANCH   1   4
ATOM      4  C   UNL     1       5.341  -2.803  -0.065  0.00  0.00    +0.115 A 
ATOM      5  C   UNL     1       6.012  -2.990  -1.267  0.00  0.00    +0.046 A 
ATOM      6  C   UNL     1       7.337  -3.378  -1.248  0.00  0.00    +0.086 A 
ATOM      7  N   UNL     1       7.969  -3.572  -0.106  0.00  0.00    -0.350 N 
ATOM      8  C   UNL     1       7.364  -3.404   1.060  0.00  0.00    +0.095 A 
ATOM      9  C   UNL     1       6.031  -3.008   1.115  0.00  0.00    +0.070 A 
ATOM     10  N   UNL     1       8.068  -3.619   2.239  0.00  0.00    -0.345 N 
ATOM     11  H   UNL     1       8.999  -3.891   2.205  0.00  0.00    +0.144 HD
ATOM     12  H   UNL     1       7.629  -3.497   3.095  0.00  0.00    +0.144 HD
ATOM     13  H   UNL     1       8.900  -3.844  -0.121  0.00  0.00    +0.166 HD
ENDBRANCH   1   4
BRANCH   1  14
ATOM     14  N   UNL     1       3.625  -0.651  -0.037  0.00  0.00    -0.092 NA
BRANCH  14  18
ATOM     15  C   UNL     1      -0.017   1.379   0.010  0.00  0.00    +0.006 A 
ATOM     16  C   UNL     1       1.169   2.090   0.002  0.00  0.00    +0.040 A 
ATOM     17  C   UNL     1       2.379   1.420  -0.013  0.00  0.00    +0.151 A 
ATOM     18  C   UNL     1       2.402   0.030  -0.021  0.00  0.00    +0.144 A 
ATOM     19  C   UNL     1       1.208  -0.681  -0.013  0.00  0.00    +0.151 A 
ATOM     20  C   UNL     1       0.002  -0.004   0.002  0.00  0.00    +0.040 A 
ATOM     21  F   UNL     1       1.226  -2.032  -0.021  0.00  0.00    -0.203 F 
ATOM     22  F   UNL     1       3.537   2.116  -0.021  0.00  0.00    -0.203 F 
ENDBRANCH  14  18
ENDBRANCH   1  14
TORSDOF 3
