REMARK  Name = ZINC32674827
REMARK  9 active torsions:
REMARK  status: ('A' for Active; 'I' for Inactive)
REMARK    1  A    between atoms: C_1  and  C_2
REMARK    2  A    between atoms: C_2  and  C_3
REMARK    3  A    between atoms: C_2  and  C_4
REMARK    4  A    between atoms: C_4  and  C_6
REMARK    5  A    between atoms: C_4  and  N_22
REMARK    6  A    between atoms: N_8  and  C_9
REMARK    7  A    between atoms: N_13  and  C_15
REMARK    8  A    between atoms: C_15  and  C_16
REMARK    9  A    between atoms: C_23  and  C_25
REMARK                            x       y       z     vdW  Elec       q    Type
REMARK                         _______ _______ _______ _____ _____    ______ ____
ROOT
ATOM      1  C   UNL     1       1.423   1.615  -0.003  0.00  0.00    +0.161 C 
ENDROOT
BRANCH   1   2
ATOM      2  C   UNL     1       2.187   1.018   1.151  0.00  0.00    +0.234 C 
ATOM      3  O   UNL     1       2.670   1.741   1.997  0.00  0.00    -0.274 OA
ATOM      4  N   UNL     1       2.334  -0.318   1.242  0.00  0.00    -0.313 N 
ATOM      5  H   UNL     1       1.896  -0.973   0.475  0.00  0.00    +0.149 HD
BRANCH   4   6
ATOM      6  C   UNL     1       3.077  -0.898   2.363  0.00  0.00    +0.055 C 
ATOM      7  C   UNL     1       4.578  -1.012   2.011  0.00  0.00    +0.002 C 
ATOM      8  C   UNL     1       4.978  -2.373   2.634  0.00  0.00    -0.077 C 
ATOM      9  N   UNL     1       3.782  -3.222   2.394  0.00  0.00    +0.384 N 
ATOM     10  C   UNL     1       2.613  -2.344   2.621  0.00  0.00    -0.056 C 
ATOM     11  H   UNL     1       3.778  -3.645   1.378  0.00  0.00    -0.081 HD
BRANCH   9  12
ATOM     12  C   UNL     1       3.761  -4.373   3.306  0.00  0.00    -0.043 C 
BRANCH  12  13
ATOM     13  C   UNL     1       4.817  -5.364   2.889  0.00  0.00    -0.064 A 
ATOM     14  C   UNL     1       4.506  -6.369   1.993  0.00  0.00    +0.002 A 
ATOM     15  C   UNL     1       5.476  -7.276   1.607  0.00  0.00    +0.000 A 
ATOM     16  C   UNL     1       6.754  -7.182   2.124  0.00  0.00    +0.000 A 
ATOM     17  C   UNL     1       7.064  -6.179   3.024  0.00  0.00    +0.000 A 
ATOM     18  C   UNL     1       6.096  -5.270   3.406  0.00  0.00    +0.002 A 
ENDBRANCH  12  13
ENDBRANCH   9  12
ENDBRANCH   4   6
ENDBRANCH   1   2
BRANCH   1  19
ATOM     19  N   UNL     1       1.406   3.075   0.126  0.00  0.00    -0.303 N 
ATOM     20  C   UNL     1       1.250   3.846  -0.969  0.00  0.00    +0.220 C 
ATOM     21  O   UNL     1       1.124   3.331  -2.060  0.00  0.00    -0.275 OA
ATOM     22  H   UNL     1       1.520   3.541   1.115  0.00  0.00    +0.149 HD
BRANCH  20  23
ATOM     23  C   UNL     1       1.233   5.347  -0.837  0.00  0.00    +0.048 C 
ATOM     24  C   UNL     1       2.557   5.821  -0.236  0.00  0.00    +0.019 C 
ATOM     25  C   UNL     1       2.540   7.345  -0.102  0.00  0.00    -0.009 C 
ATOM     26  C   UNL     1       2.351   7.977  -1.482  0.00  0.00    +0.007 C 
ATOM     27  C   UNL     1       1.027   7.502  -2.084  0.00  0.00    -0.009 C 
ATOM     28  C   UNL     1       1.044   5.978  -2.218  0.00  0.00    +0.019 C 
ATOM     29  C   UNL     1      -0.127   7.920  -1.170  0.00  0.00    +0.007 C 
ATOM     30  C   UNL     1       0.061   7.289   0.211  0.00  0.00    -0.009 C 
ATOM     31  C   UNL     1       1.386   7.763   0.812  0.00  0.00    +0.007 C 
ATOM     32  C   UNL     1       0.079   5.765   0.077  0.00  0.00    +0.019 C 
ENDBRANCH  20  23
ENDBRANCH   1  19
BRANCH   1  34
ATOM     33  C   UNL     1      -0.753   1.593  -1.232  0.00  0.00    +0.009 C 
ATOM     34  C   UNL     1      -0.013   1.086   0.008  0.00  0.00    +0.012 C 
ATOM     35  C   UNL     1      -0.729   1.579   1.267  0.00  0.00    +0.009 C 
ENDBRANCH   1  34
TORSDOF 7
