REMARK  Name = ZINC52701117
REMARK  10 active torsions:
REMARK  status: ('A' for Active; 'I' for Inactive)
REMARK    1  A    between atoms: C_1  and  C_2
REMARK    2  A    between atoms: C_2  and  C_3
REMARK    3  A    between atoms: C_3  and  C_4
REMARK    4  A    between atoms: C_4  and  N_5
REMARK    5  A    between atoms: C_9  and  C_11
REMARK    6  A    between atoms: C_11  and  C_13
REMARK    7  A    between atoms: C_11  and  N_14
REMARK    8  A    between atoms: C_17  and  C_20
REMARK    9  A    between atoms: C_24  and  C_31
REMARK   10  A    between atoms: C_27  and  C_30
REMARK                            x       y       z     vdW  Elec       q    Type
REMARK                         _______ _______ _______ _____ _____    ______ ____
ROOT
ATOM      1  N   UNL     1       3.208  -7.514  -5.254  0.00  0.00    +0.387 N 
ATOM      2  C   UNL     1       3.878  -7.894  -4.004  0.00  0.00    -0.077 C 
ATOM      3  C   UNL     1       3.922  -9.419  -3.889  0.00  0.00    -0.006 C 
ATOM      4  C   UNL     1       4.695  -9.993  -5.080  0.00  0.00    +0.072 C 
ATOM      5  C   UNL     1       4.031  -9.529  -6.379  0.00  0.00    -0.006 C 
ATOM      6  C   UNL     1       3.982  -7.999  -6.402  0.00  0.00    -0.077 C 
ATOM      7  H   UNL     1       2.285  -7.921  -5.275  0.00  0.00    -0.081 HD
ENDROOT
BRANCH   4   8
ATOM      8  C   UNL     1       4.676 -11.499  -5.015  0.00  0.00    +0.219 C 
ATOM      9  O   UNL     1       3.838 -12.122  -5.630  0.00  0.00    -0.275 OA
ATOM     10  N   UNL     1       5.592 -12.153  -4.272  0.00  0.00    -0.296 N 
ATOM     11  C   UNL     1       6.666 -11.424  -3.579  0.00  0.00    +0.139 C 
ATOM     12  C   UNL     1       6.689 -11.874  -2.114  0.00  0.00    +0.133 C 
ATOM     13  O   UNL     1       6.754 -13.302  -2.062  0.00  0.00    -0.371 OA
ATOM     14  C   UNL     1       5.624 -13.960  -2.639  0.00  0.00    +0.133 C 
ATOM     15  C   UNL     1       5.543 -13.616  -4.126  0.00  0.00    +0.139 C 
ATOM     16  C   UNL     1       5.773 -15.474  -2.469  0.00  0.00    +0.039 C 
ATOM     17  C   UNL     1       5.417 -11.393  -1.412  0.00  0.00    +0.039 C 
ENDBRANCH   4   8
BRANCH   1  18
ATOM     18  C   UNL     1       3.098  -6.050  -5.323  0.00  0.00    +0.017 C 
ATOM     19  C   UNL     1       2.390  -5.653  -6.620  0.00  0.00    -0.004 C 
BRANCH  18  24
ATOM     20  N   UNL     1       1.966  -2.592  -2.180  0.00  0.00    -0.299 N 
ATOM     21  C   UNL     1       1.780  -3.848  -2.635  0.00  0.00    +0.306 C 
ATOM     22  O   UNL     1       0.971  -4.576  -2.094  0.00  0.00    -0.252 OA
ATOM     23  N   UNL     1       2.490  -4.295  -3.689  0.00  0.00    -0.242 N 
ATOM     24  C   UNL     1       2.304  -5.550  -4.144  0.00  0.00    +0.207 C 
ATOM     25  O   UNL     1       1.497  -6.277  -3.604  0.00  0.00    -0.277 OA
ATOM     26  H   UNL     1       2.612  -2.011  -2.612  0.00  0.00    +0.150 HD
ATOM     27  H   UNL     1       3.135  -3.714  -4.121  0.00  0.00    +0.159 HD
BRANCH  20  28
ATOM     28  C   UNL     1       1.194  -2.106  -1.034  0.00  0.00    +0.106 C 
BRANCH  28  29
ATOM     29  C   UNL     1       1.595  -0.662  -0.725  0.00  0.00    +0.018 C 
BRANCH  29  31
ATOM     30  C   UNL     1       1.189   1.290   0.781  0.00  0.00    +0.004 C 
ATOM     31  C   UNL     1       0.789  -0.154   0.472  0.00  0.00    -0.002 C 
ENDBRANCH  29  31
ENDBRANCH  28  29
ENDBRANCH  20  28
ENDBRANCH  18  24
ENDBRANCH   1  18
TORSDOF 6
