REMARK  Name = ZINC39635082
REMARK  9 active torsions:
REMARK  status: ('A' for Active; 'I' for Inactive)
REMARK    1  A    between atoms: C_1  and  O_2
REMARK    2  A    between atoms: O_2  and  C_3
REMARK    3  A    between atoms: C_6  and  C_9
REMARK    4  A    between atoms: C_9  and  C_10
REMARK    5  A    between atoms: C_10  and  N_11
REMARK    6  A    between atoms: C_12  and  C_14
REMARK    7  A    between atoms: C_25  and  C_27
REMARK    8  A    between atoms: C_31  and  O_32
REMARK    9  A    between atoms: O_32  and  C_33
REMARK                            x       y       z     vdW  Elec       q    Type
REMARK                         _______ _______ _______ _____ _____    ______ ____
ROOT
ATOM      1  C   UNL     1       2.236  -4.487   8.794  0.00  0.00    +0.100 C 
ATOM      2  C   UNL     1       2.664  -5.919   8.403  0.00  0.00    +0.121 C 
ATOM      3  N   UNL     1       2.447  -6.722   9.629  0.00  0.00    -0.296 N 
ATOM      4  C   UNL     1       1.183  -6.196  10.196  0.00  0.00    +0.115 C 
ATOM      5  C   UNL     1       1.263  -4.673   9.971  0.00  0.00    -0.004 C 
ATOM      6  C   UNL     1      -0.113  -4.120   9.611  0.00  0.00    -0.010 C 
ATOM      7  C   UNL     1      -1.046  -4.263  10.817  0.00  0.00    -0.082 C 
ATOM      8  N   UNL     1      -0.487  -3.534  11.961  0.00  0.00    +0.379 N 
ATOM      9  C   UNL     1       0.793  -4.131  12.358  0.00  0.00    -0.082 C 
ATOM     10  C   UNL     1       1.805  -3.982  11.218  0.00  0.00    -0.010 C 
ATOM     11  C   UNL     1       3.224  -7.709  10.118  0.00  0.00    +0.251 C 
ATOM     12  O   UNL     1       4.290  -7.963   9.589  0.00  0.00    -0.270 OA
ATOM     13  H   UNL     1      -0.341  -2.569  11.704  0.00  0.00    -0.086 HD
ATOM     14  H   UNL     1      -1.133  -3.578  12.735  0.00  0.00    -0.086 HD
ENDROOT
BRANCH  11  15
ATOM     15  C   UNL     1       2.784  -8.479  11.291  0.00  0.00    +0.087 A 
ATOM     16  C   UNL     1       1.455  -8.771  11.505  0.00  0.00    +0.063 A 
ATOM     17  S   UNL     1       1.448  -9.645  12.937  0.00  0.00    -0.081 S 
ATOM     18  C   UNL     1       3.189  -9.658  13.304  0.00  0.00    +0.120 A 
ATOM     19  C   UNL     1       3.726  -8.969  12.271  0.00  0.00    +0.158 A 
ATOM     20 CL   UNL     1       4.002 -10.382  14.656  0.00  0.00    -0.072 Cl
BRANCH  19  21
ATOM     21  O   UNL     1       5.065  -8.748  12.165  0.00  0.00    -0.492 OA
ATOM     22  C   UNL     1       5.578  -7.563  12.775  0.00  0.00    +0.277 C 
ENDBRANCH  19  21
ENDBRANCH  11  15
BRANCH   1  24
ATOM     23  N   UNL     1       1.455  -2.469   7.595  0.00  0.00    -0.315 N 
ATOM     24  C   UNL     1       1.540  -3.813   7.639  0.00  0.00    +0.218 C 
ATOM     25  O   UNL     1       1.056  -4.481   6.750  0.00  0.00    -0.275 OA
ATOM     26  H   UNL     1       1.842  -1.935   8.306  0.00  0.00    +0.149 HD
BRANCH  23  27
ATOM     27  C   UNL     1       0.779  -1.814   6.473  0.00  0.00    +0.109 C 
BRANCH  27  28
ATOM     28  C   UNL     1       0.823  -0.297   6.665  0.00  0.00    +0.054 C 
BRANCH  28  32
ATOM     29  C   UNL     1      -1.150   1.613   3.391  0.00  0.00    +0.120 A 
ATOM     30  C   UNL     1      -1.868   1.257   4.523  0.00  0.00    +0.046 A 
ATOM     31  C   UNL     1      -1.228   0.639   5.580  0.00  0.00    +0.007 A 
ATOM     32  C   UNL     1       0.127   0.377   5.510  0.00  0.00    -0.046 A 
ATOM     33  C   UNL     1       0.846   0.731   4.383  0.00  0.00    +0.007 A 
ATOM     34  C   UNL     1       0.209   1.343   3.321  0.00  0.00    +0.046 A 
BRANCH  29  36
ATOM     35  C   UNL     1      -3.178   2.467   2.491  0.00  0.00    +0.277 C 
ATOM     36  O   UNL     1      -1.778   2.220   2.349  0.00  0.00    -0.495 OA
ENDBRANCH  29  36
ENDBRANCH  28  32
ENDBRANCH  27  28
ENDBRANCH  23  27
ENDBRANCH   1  24
TORSDOF 7
