REMARK  Name = ZINC16519094
REMARK  9 active torsions:
REMARK  status: ('A' for Active; 'I' for Inactive)
REMARK    1  A    between atoms: C_1  and  C_2
REMARK    2  A    between atoms: C_2  and  C_4
REMARK    3  A    between atoms: C_2  and  N_7
REMARK    4  A    between atoms: C_4  and  C_5
REMARK    5  A    between atoms: C_4  and  C_6
REMARK    6  A    between atoms: N_7  and  C_8
REMARK    7  A    between atoms: C_8  and  C_10
REMARK    8  A    between atoms: C_8  and  C_11
REMARK    9  A    between atoms: N_13  and  C_14
REMARK                            x       y       z     vdW  Elec       q    Type
REMARK                         _______ _______ _______ _____ _____    ______ ____
ROOT
ATOM      1  C   UNL     1      -5.410  -1.214  -2.511  0.00  0.00    +0.045 A 
ATOM      2  C   UNL     1      -6.189  -1.167  -1.355  0.00  0.00    +0.024 A 
ATOM      3  C   UNL     1      -7.491  -1.620  -1.373  0.00  0.00    +0.003 A 
ATOM      4  C   UNL     1      -8.046  -2.129  -2.538  0.00  0.00    +0.012 A 
ATOM      5  C   UNL     1      -7.288  -2.185  -3.701  0.00  0.00    +0.035 A 
ATOM      6  C   UNL     1      -5.959  -1.719  -3.693  0.00  0.00    +0.054 A 
ATOM      7  C   UNL     1      -5.158  -1.772  -4.931  0.00  0.00    +0.196 C 
ATOM      8  O   UNL     1      -3.953  -1.619  -4.890  0.00  0.00    -0.287 OA
ATOM      9  C   UNL     1      -5.838  -2.016  -6.222  0.00  0.00    +0.033 A 
ATOM     10  C   UNL     1      -5.175  -1.792  -7.424  0.00  0.00    +0.012 A 
ATOM     11  C   UNL     1      -5.827  -2.026  -8.623  0.00  0.00    +0.001 A 
ATOM     12  C   UNL     1      -7.133  -2.480  -8.634  0.00  0.00    +0.001 A 
ATOM     13  C   UNL     1      -7.807  -2.708  -7.447  0.00  0.00    +0.012 A 
ATOM     14  C   UNL     1      -7.167  -2.478  -6.233  0.00  0.00    +0.033 A 
ATOM     15  C   UNL     1      -7.867  -2.724  -4.951  0.00  0.00    +0.195 C 
ATOM     16  O   UNL     1      -8.909  -3.349  -4.927  0.00  0.00    -0.287 OA
ENDROOT
BRANCH   1  19
ATOM     17  C   UNL     1      -3.349  -0.906  -1.377  0.00  0.00    +0.203 C 
ATOM     18  O   UNL     1      -3.788  -1.524  -0.431  0.00  0.00    -0.277 OA
ATOM     19  N   UNL     1      -4.097  -0.756  -2.489  0.00  0.00    -0.286 N 
ATOM     20  H   UNL     1      -3.719  -0.329  -3.273  0.00  0.00    +0.155 HD
BRANCH  17  21
ATOM     21  C   UNL     1      -1.969  -0.306  -1.311  0.00  0.00    +0.014 C 
ATOM     22  C   UNL     1      -2.062   1.210  -1.492  0.00  0.00    -0.004 C 
BRANCH  21  23
ATOM     23  N   UNL     1      -1.366  -0.607  -0.006  0.00  0.00    +0.388 N 
ATOM     24  H   UNL     1      -1.398  -1.603   0.158  0.00  0.00    -0.084 HD
ATOM     25  H   UNL     1      -1.879  -0.131   0.720  0.00  0.00    -0.084 HD
BRANCH  23  27
ATOM     26  C   UNL     1       0.617  -0.340   1.405  0.00  0.00    -0.013 C 
ATOM     27  C   UNL     1       0.032  -0.154   0.004  0.00  0.00    -0.071 C 
BRANCH  27  28
ATOM     28  C   UNL     1       0.842  -0.976  -1.000  0.00  0.00    -0.032 C 
ATOM     29  C   UNL     1       2.297  -0.504  -0.989  0.00  0.00    +0.005 C 
ATOM     30  C   UNL     1       0.782  -2.455  -0.615  0.00  0.00    +0.005 C 
ENDBRANCH  27  28
ENDBRANCH  23  27
ENDBRANCH  21  23
ENDBRANCH  17  21
ENDBRANCH   1  19
TORSDOF 5
