REMARK  Name = ZINC15144347
REMARK  10 active torsions:
REMARK  status: ('A' for Active; 'I' for Inactive)
REMARK    1  A    between atoms: C_1  and  C_2
REMARK    2  A    between atoms: C_2  and  C_3
REMARK    3  A    between atoms: C_3  and  N_57
REMARK    4  A    between atoms: C_4  and  C_5
REMARK    5  A    between atoms: C_4  and  N_57
REMARK    6  A    between atoms: C_5  and  C_7
REMARK    7  A    between atoms: C_9  and  C_13
REMARK    8  A    between atoms: C_20  and  C_21
REMARK    9  A    between atoms: C_20  and  N_57
REMARK   10  A    between atoms: N_23  and  C_24
REMARK                            x       y       z     vdW  Elec       q    Type
REMARK                         _______ _______ _______ _____ _____    ______ ____
ROOT
ATOM      1  N   UNL     1      -0.613   1.587  -1.360  0.00  0.00    +0.390 N 
ATOM      2  H   UNL     1      -0.739   2.601  -1.262  0.00  0.00    -0.081 HD
ENDROOT
BRANCH   1   3
ATOM      3  C   UNL     1      -1.927   0.961  -1.613  0.00  0.00    -0.078 C 
BRANCH   3   5
ATOM      4  C   UNL     1      -3.979   1.082  -3.035  0.00  0.00    +0.002 C 
ATOM      5  C   UNL     1      -2.555   1.610  -2.849  0.00  0.00    -0.022 C 
ENDBRANCH   3   5
ENDBRANCH   1   3
BRANCH   1   6
ATOM      6  C   UNL     1      -0.032   1.053  -0.110  0.00  0.00    +0.003 C 
BRANCH   6   7
ATOM      7  C   UNL     1      -0.865   1.524   1.053  0.00  0.00    +0.148 C 
ATOM      8  O   UNL     1      -1.845   2.213   0.858  0.00  0.00    -0.294 OA
BRANCH   7   9
ATOM      9  C   UNL     1      -0.493   1.149   2.421  0.00  0.00    +0.033 A 
ATOM     10  C   UNL     1      -1.173   1.512   3.609  0.00  0.00    +0.043 A 
ATOM     11  C   UNL     1      -0.490   0.952   4.646  0.00  0.00    +0.103 A 
ATOM     12  N   UNL     1       0.586   0.259   4.134  0.00  0.00    -0.356 N 
ATOM     13  H   UNL     1       1.236  -0.234   4.658  0.00  0.00    +0.165 HD
ATOM     14  C   UNL     1       0.588   0.367   2.797  0.00  0.00    +0.094 A 
BRANCH  11  15
ATOM     15  C   UNL     1      -0.840   1.068   6.067  0.00  0.00    +0.263 C 
ATOM     16  O   UNL     1      -1.817   1.710   6.403  0.00  0.00    -0.268 OA
ATOM     17  N   UNL     1      -0.078   0.463   7.000  0.00  0.00    -0.296 N 
ATOM     18  C   UNL     1       1.122  -0.345   6.735  0.00  0.00    +0.108 C 
ATOM     19  C   UNL     1       1.644  -0.850   8.096  0.00  0.00    +0.020 C 
ATOM     20  C   UNL     1       0.385  -0.775   8.999  0.00  0.00    +0.020 C 
ATOM     21  C   UNL     1      -0.313   0.497   8.455  0.00  0.00    +0.108 C 
ENDBRANCH  11  15
ENDBRANCH   7   9
ENDBRANCH   6   7
ENDBRANCH   1   6
BRANCH   1  22
ATOM     22  C   UNL     1       0.299   1.323  -2.494  0.00  0.00    +0.019 C 
BRANCH  22  23
ATOM     23  C   UNL     1       1.438   2.308  -2.436  0.00  0.00    +0.201 C 
ATOM     24  O   UNL     1       1.537   3.067  -1.495  0.00  0.00    -0.278 OA
ATOM     25  N   UNL     1       2.346   2.347  -3.431  0.00  0.00    -0.286 N 
ATOM     26  H   UNL     1       2.316   1.687  -4.142  0.00  0.00    +0.155 HD
BRANCH  25  27
ATOM     27  C   UNL     1       3.334   3.339  -3.439  0.00  0.00    +0.052 A 
ATOM     28  C   UNL     1       3.117   4.543  -2.783  0.00  0.00    +0.026 A 
ATOM     29  C   UNL     1       4.093   5.520  -2.792  0.00  0.00    +0.022 A 
ATOM     30  C   UNL     1       5.288   5.300  -3.454  0.00  0.00    +0.042 A 
ATOM     31  C   UNL     1       5.509   4.101  -4.109  0.00  0.00    +0.041 A 
ATOM     32  C   UNL     1       4.537   3.118  -4.099  0.00  0.00    +0.064 A 
ATOM     33 CL   UNL     1       4.816   1.612  -4.916  0.00  0.00    -0.082 Cl
ATOM     34 CL   UNL     1       6.513   6.530  -3.463  0.00  0.00    -0.083 Cl
ENDBRANCH  25  27
ENDBRANCH  22  23
ENDBRANCH   1  22
TORSDOF 9
