REMARK  Name = ZINC33033565
REMARK  8 active torsions:
REMARK  status: ('A' for Active; 'I' for Inactive)
REMARK    1  A    between atoms: C_1  and  C_2
REMARK    2  A    between atoms: C_5  and  N_33
REMARK    3  A    between atoms: C_6  and  S_8
REMARK    4  A    between atoms: S_8  and  N_11
REMARK    5  A    between atoms: N_11  and  C_12
REMARK    6  A    between atoms: C_14  and  C_24
REMARK    7  A    between atoms: C_17  and  N_18
REMARK    8  A    between atoms: C_34  and  C_36
REMARK                            x       y       z     vdW  Elec       q    Type
REMARK                         _______ _______ _______ _____ _____    ______ ____
ROOT
ATOM      1  C   UNL     1      -1.530   4.254   1.735  0.00  0.00    +0.070 A 
ATOM      2  C   UNL     1      -0.797   4.194   0.565  0.00  0.00    +0.039 A 
ATOM      3  C   UNL     1       0.600   4.179   0.620  0.00  0.00    +0.039 A 
ATOM      4  C   UNL     1       1.250   4.213   1.856  0.00  0.00    +0.015 A 
ATOM      5  C   UNL     1       0.515   4.268   3.020  0.00  0.00    +0.026 A 
ATOM      6  C   UNL     1      -0.874   4.288   2.969  0.00  0.00    +0.052 A 
ENDROOT
BRANCH   3   7
ATOM      7  C   UNL     1       1.387   4.121  -0.627  0.00  0.00    +0.247 C 
ATOM      8  O   UNL     1       2.418   3.477  -0.665  0.00  0.00    -0.270 OA
ATOM      9  N   UNL     1       0.964   4.782  -1.722  0.00  0.00    -0.298 N 
ATOM     10  C   UNL     1      -0.340   5.405  -1.695  0.00  0.00    +0.108 C 
ATOM     11  C   UNL     1      -1.412   4.403  -2.172  0.00  0.00    +0.019 C 
ATOM     12  C   UNL     1      -1.285   4.170  -3.618  0.00  0.00    +0.002 C 
ATOM     13  C   UNL     1       0.039   3.538  -4.039  0.00  0.00    +0.002 C 
ATOM     14  C   UNL     1       1.075   4.620  -4.217  0.00  0.00    +0.019 C 
ATOM     15  C   UNL     1       1.848   4.834  -2.903  0.00  0.00    +0.108 C 
ENDBRANCH   3   7
BRANCH   6  16
ATOM     16  N   UNL     1      -1.613   4.344   4.149  0.00  0.00    -0.332 N 
ATOM     17  C   UNL     1      -0.753   4.125   5.320  0.00  0.00    +0.086 C 
ATOM     18  C   UNL     1      -1.613   4.114   6.586  0.00  0.00    -0.063 C 
ATOM     19  N   UNL     1      -2.333   5.390   6.697  0.00  0.00    +0.381 N 
ATOM     20  C   UNL     1      -3.193   5.609   5.525  0.00  0.00    -0.063 C 
ATOM     21  C   UNL     1      -2.334   5.620   4.259  0.00  0.00    +0.086 C 
ATOM     22  H   UNL     1      -2.961   5.380   7.600  0.00  0.00    -0.086 HD
ATOM     23  H   UNL     1      -1.609   6.216   6.763  0.00  0.00    -0.086 HD
ENDBRANCH   6  16
BRANCH   1  24
ATOM     24  N   UNL     1      -2.929   4.275   1.685  0.00  0.00    -0.214 N 
ATOM     25  H   UNL     1      -3.467   5.234   1.725  0.00  0.00    +0.174 HD
BRANCH  24  26
ATOM     26  S   UNL     1      -3.775   2.857   1.565  0.00  0.00    +0.074 S 
ATOM     27  O   UNL     1      -3.181   2.119   0.505  0.00  0.00    -0.150 OA
ATOM     28  O   UNL     1      -5.153   3.203   1.573  0.00  0.00    -0.150 OA
BRANCH  26  34
ATOM     29  C   UNL     1      -5.317   0.997   6.198  0.00  0.00    +0.044 C 
ATOM     30  C   UNL     1      -4.233   1.118   5.158  0.00  0.00    -0.048 A 
ATOM     31  C   UNL     1      -3.005   0.518   5.369  0.00  0.00    +0.005 A 
ATOM     32  C   UNL     1      -2.010   0.627   4.418  0.00  0.00    +0.025 A 
ATOM     33  C   UNL     1      -2.244   1.339   3.248  0.00  0.00    +0.060 A 
ATOM     34  C   UNL     1      -3.476   1.945   3.043  0.00  0.00    +0.130 A 
ATOM     35  C   UNL     1      -4.469   1.828   3.996  0.00  0.00    +0.034 A 
BRANCH  33  36
ATOM     36  N   UNL     1      -1.237   1.452   2.283  0.00  0.00    -0.284 N 
ATOM     37  C   UNL     1      -0.196   0.596   2.292  0.00  0.00    +0.214 C 
ATOM     38  O   UNL     1      -0.166  -0.314   3.093  0.00  0.00    -0.276 OA
ATOM     39  C   UNL     1       0.929   0.767   1.304  0.00  0.00    +0.109 C 
ATOM     40  H   UNL     1      -1.296   2.238   1.516  0.00  0.00    +0.155 HD
ENDBRANCH  33  36
ENDBRANCH  26  34
ENDBRANCH  24  26
ENDBRANCH   1  24
TORSDOF 6
