REMARK  Name = ZINC04834428
REMARK  8 active torsions:
REMARK  status: ('A' for Active; 'I' for Inactive)
REMARK    1  A    between atoms: C_1  and  C_2
REMARK    2  A    between atoms: C_7  and  N_12
REMARK    3  A    between atoms: C_9  and  C_11
REMARK    4  A    between atoms: C_13  and  C_15
REMARK    5  A    between atoms: C_20  and  N_21
REMARK    6  A    between atoms: N_21  and  C_22
REMARK    7  A    between atoms: C_22  and  C_23
REMARK    8  A    between atoms: C_23  and  O_24
REMARK                            x       y       z     vdW  Elec       q    Type
REMARK                         _______ _______ _______ _____ _____    ______ ____
ROOT
ATOM      1  C   UNL     1       5.848   1.493   1.932  0.00  0.00    +0.058 A 
ATOM      2  C   UNL     1       6.158   2.606   1.152  0.00  0.00    +0.015 A 
ATOM      3  C   UNL     1       7.462   3.058   1.064  0.00  0.00    +0.013 A 
ATOM      4  C   UNL     1       8.481   2.407   1.753  0.00  0.00    +0.035 A 
ATOM      5  C   UNL     1       8.186   1.283   2.545  0.00  0.00    +0.055 A 
ATOM      6  C   UNL     1       6.864   0.827   2.640  0.00  0.00    +0.051 A 
ATOM      7  C   UNL     1       9.261   0.591   3.277  0.00  0.00    +0.196 C 
ATOM      8  O   UNL     1       9.003  -0.380   3.961  0.00  0.00    -0.287 OA
ATOM      9  C   UNL     1      10.653   1.079   3.180  0.00  0.00    +0.033 A 
ATOM     10  C   UNL     1      11.673   0.431   3.870  0.00  0.00    +0.012 A 
ATOM     11  C   UNL     1      12.974   0.894   3.774  0.00  0.00    +0.001 A 
ATOM     12  C   UNL     1      13.268   2.000   2.996  0.00  0.00    +0.001 A 
ATOM     13  C   UNL     1      12.266   2.656   2.304  0.00  0.00    +0.012 A 
ATOM     14  C   UNL     1      10.952   2.203   2.389  0.00  0.00    +0.033 A 
ATOM     15  C   UNL     1       9.874   2.897   1.655  0.00  0.00    +0.195 C 
ATOM     16  O   UNL     1      10.131   3.868   0.971  0.00  0.00    -0.287 OA
ENDROOT
BRANCH   1  18
ATOM     17  N   UNL     1       3.463   1.724   1.438  0.00  0.00    -0.308 N 
ATOM     18  C   UNL     1       4.453   1.018   2.019  0.00  0.00    +0.246 C 
ATOM     19  O   UNL     1       4.197  -0.009   2.616  0.00  0.00    -0.270 OA
ATOM     20  H   UNL     1       3.667   2.545   0.962  0.00  0.00    +0.149 HD
BRANCH  17  26
ATOM     21  C   UNL     1      -0.971   1.865  -0.745  0.00  0.00    +0.008 C 
ATOM     22  C   UNL     1      -0.169   1.313   0.435  0.00  0.00    -0.009 C 
ATOM     23  C   UNL     1      -0.792   1.798   1.746  0.00  0.00    +0.003 C 
ATOM     24  C   UNL     1       0.010   1.246   2.926  0.00  0.00    +0.002 C 
ATOM     25  C   UNL     1       1.456   1.738   2.836  0.00  0.00    +0.022 C 
ATOM     26  C   UNL     1       2.078   1.253   1.525  0.00  0.00    +0.076 C 
ATOM     27  C   UNL     1       1.277   1.805   0.344  0.00  0.00    +0.009 C 
ATOM     28  C   UNL     1       1.298   3.334   0.384  0.00  0.00    +0.009 C 
ENDBRANCH  17  26
ENDBRANCH   1  18
BRANCH   6  29
ATOM     29  N   UNL     1       6.562  -0.272   3.419  0.00  0.00    -0.341 N 
ATOM     30  H   UNL     1       5.918  -0.886   2.943  0.00  0.00    +0.146 HD
BRANCH  29  31
ATOM     31  C   UNL     1       6.032   0.139   4.726  0.00  0.00    +0.129 C 
BRANCH  31  32
ATOM     32  C   UNL     1       5.808  -1.099   5.597  0.00  0.00    +0.174 C 
BRANCH  32  33
ATOM     33  O   UNL     1       7.065  -1.718   5.877  0.00  0.00    -0.393 OA
ATOM     34  H   UNL     1       6.999  -2.511   6.426  0.00  0.00    +0.209 HD
ENDBRANCH  32  33
ENDBRANCH  31  32
ENDBRANCH  29  31
ENDBRANCH   6  29
TORSDOF 6
