REMARK  Name = ZINC22782914
REMARK  5 active torsions:
REMARK  status: ('A' for Active; 'I' for Inactive)
REMARK    1  A    between atoms: C_5  and  C_6
REMARK    2  A    between atoms: C_6  and  N_7
REMARK    3  A    between atoms: N_10  and  C_13
REMARK    4  A    between atoms: C_13  and  C_14
REMARK    5  A    between atoms: N_16  and  N_17
REMARK                            x       y       z     vdW  Elec       q    Type
REMARK                         _______ _______ _______ _____ _____    ______ ____
ROOT
ATOM      1  C   UNL     1       5.009  -3.085  -5.723  0.00  0.00    +0.213 C 
ATOM      2  O   UNL     1       4.059  -3.577  -5.152  0.00  0.00    -0.276 OA
ATOM      3  N   UNL     1       5.305  -3.459  -6.984  0.00  0.00    -0.225 N 
ATOM      4  H   UNL     1       6.166  -3.013  -7.502  0.00  0.00    +0.173 HD
ENDROOT
BRANCH   3   5
ATOM      5  N   UNL     1       4.515  -4.416  -7.634  0.00  0.00    -0.137 N 
ATOM      6  C   UNL     1       3.620  -4.130  -8.602  0.00  0.00    +0.263 C 
ATOM      7  O   UNL     1       3.356  -3.038  -9.057  0.00  0.00    -0.271 OA
ATOM      8  C   UNL     1       3.015  -5.457  -8.999  0.00  0.00    +0.114 C 
ATOM      9  C   UNL     1       3.301  -5.753 -10.467  0.00  0.00    +0.035 C 
ATOM     10  C   UNL     1       2.706  -7.112 -10.842  0.00  0.00    +0.003 C 
ATOM     11  C   UNL     1       1.196  -7.094 -10.592  0.00  0.00    +0.000 C 
ATOM     12  C   UNL     1       0.927  -6.821  -9.111  0.00  0.00    +0.003 C 
ATOM     13  C   UNL     1       1.515  -5.460  -8.729  0.00  0.00    +0.035 C 
ATOM     14  N   UNL     1       3.696  -6.431  -8.136  0.00  0.00    -0.284 N 
ATOM     15  C   UNL     1       4.559  -5.729  -7.376  0.00  0.00    +0.326 C 
ATOM     16  O   UNL     1       5.293  -6.231  -6.548  0.00  0.00    -0.251 OA
ATOM     17  H   UNL     1       3.445  -7.500  -8.208  0.00  0.00    +0.151 HD
ENDBRANCH   3   5
BRANCH   1  18
ATOM     18  C   UNL     1       5.859  -2.056  -5.024  0.00  0.00    +0.020 C 
BRANCH  18  22
ATOM     19  N   UNL     1       5.803  -1.874  -0.804  0.00  0.00    -0.301 NA
ATOM     20  C   UNL     1       5.528  -0.638  -1.550  0.00  0.00    +0.066 C 
ATOM     21  C   UNL     1       6.063  -0.777  -2.977  0.00  0.00    -0.063 C 
ATOM     22  N   UNL     1       5.427  -1.933  -3.625  0.00  0.00    +0.387 N 
ATOM     23  C   UNL     1       5.702  -3.169  -2.879  0.00  0.00    -0.063 C 
ATOM     24  C   UNL     1       5.167  -3.029  -1.452  0.00  0.00    +0.066 C 
ATOM     25  H   UNL     1       4.339  -1.769  -3.622  0.00  0.00    -0.081 HD
BRANCH  19  26
ATOM     26  C   UNL     1       5.371  -1.751   0.595  0.00  0.00    +0.126 C 
BRANCH  26  31
ATOM     27  C   UNL     1       6.013   0.616   1.412  0.00  0.00    +0.013 A 
ATOM     28  C   UNL     1       6.934   1.377   2.105  0.00  0.00    +0.023 A 
ATOM     29  C   UNL     1       8.018   0.766   2.647  0.00  0.00    +0.055 A 
ATOM     30  S   UNL     1       7.753  -0.936   2.179  0.00  0.00    -0.085 S 
ATOM     31  C   UNL     1       6.218  -0.719   1.294  0.00  0.00    +0.005 A 
ATOM     32 BR   UNL     1       9.442   1.523   3.634  0.00  0.00    -0.043 Br
ENDBRANCH  26  31
ENDBRANCH  19  26
ENDBRANCH  18  22
ENDBRANCH   1  18
TORSDOF 5
