REMARK  Name = ZINC33724171
REMARK  4 active torsions:
REMARK  status: ('A' for Active; 'I' for Inactive)
REMARK    1  A    between atoms: N_9  and  C_10
REMARK    2  A    between atoms: C_10  and  C_12
REMARK    3  A    between atoms: C_10  and  O_19
REMARK    4  A    between atoms: C_12  and  C_14
REMARK                            x       y       z     vdW  Elec       q    Type
REMARK                         _______ _______ _______ _____ _____    ______ ____
ROOT
ATOM      1  C   UNL     1       0.002  -0.004   0.002  0.00  0.00    +0.002 A 
ATOM      2  C   UNL     1       1.205  -0.685  -0.013  0.00  0.00    +0.002 A 
ATOM      3  C   UNL     1       2.398   0.015  -0.021  0.00  0.00    +0.026 A 
ATOM      4  C   UNL     1       2.388   1.401  -0.013  0.00  0.00    +0.071 A 
ATOM      5  C   UNL     1       1.175   2.089   0.002  0.00  0.00    +0.065 A 
ATOM      6  C   UNL     1      -0.017   1.378   0.010  0.00  0.00    +0.026 A 
ATOM      7  N   UNL     1       1.436   3.464   0.007  0.00  0.00    -0.263 N 
ATOM      8  N   UNL     1       2.787   3.660  -0.005  0.00  0.00    -0.158 NA
ATOM      9  N   UNL     1       3.420   2.349  -0.018  0.00  0.00    -0.214 N 
ATOM     10  H   UNL     1       0.755   4.328   0.018  0.00  0.00    +0.168 HD
ATOM     11  H   UNL     1       3.082   4.196   0.798  0.00  0.00    +0.168 HD
ENDROOT
BRANCH   9  12
ATOM     12  C   UNL     1       4.298   2.176   1.147  0.00  0.00    +0.292 C 
BRANCH  12  13
ATOM     13  C   UNL     1       5.393   3.210   1.108  0.00  0.00    +0.218 C 
ATOM     14  O   UNL     1       5.730   3.698   0.048  0.00  0.00    -0.287 OA
BRANCH  13  15
ATOM     15  C   UNL     1       6.028   3.613   2.303  0.00  0.00    +0.059 A 
ATOM     16  C   UNL     1       7.048   4.541   2.486  0.00  0.00    +0.019 A 
ATOM     17  C   UNL     1       7.484   4.743   3.769  0.00  0.00    +0.008 A 
ATOM     18  C   UNL     1       6.911   4.042   4.784  0.00  0.00    +0.046 A 
ATOM     19  S   UNL     1       5.725   3.069   3.975  0.00  0.00    -0.094 S 
ENDBRANCH  13  15
ENDBRANCH  12  13
BRANCH  12  20
ATOM     20  O   UNL     1       3.536   2.334   2.345  0.00  0.00    -0.366 OA
ATOM     21  H   UNL     1       4.027   2.239   3.325  0.00  0.00    +0.212 HD
ENDBRANCH  12  20
ENDBRANCH   9  12
TORSDOF 4
