REMARK  Name = ZINC09449814
REMARK  11 active torsions:
REMARK  status: ('A' for Active; 'I' for Inactive)
REMARK    1  A    between atoms: C_3  and  C_6
REMARK    2  A    between atoms: C_7  and  C_8
REMARK    3  A    between atoms: C_7  and  N_31
REMARK    4  A    between atoms: N_10  and  C_11
REMARK    5  A    between atoms: C_11  and  C_12
REMARK    6  A    between atoms: C_12  and  N_13
REMARK    7  A    between atoms: C_14  and  C_16
REMARK    8  A    between atoms: C_16  and  N_23
REMARK    9  A    between atoms: C_17  and  C_18
REMARK   10  A    between atoms: C_24  and  C_26
REMARK   11  A    between atoms: C_32  and  C_34
REMARK                            x       y       z     vdW  Elec       q    Type
REMARK                         _______ _______ _______ _____ _____    ______ ____
ROOT
ATOM      1  C   UNL     1      -1.643   5.625   0.243  0.00  0.00    +0.123 C 
ENDROOT
BRANCH   1   4
ATOM      2  C   UNL     1      -3.136   3.705   0.395  0.00  0.00    +0.258 C 
ATOM      3  O   UNL     1      -4.047   4.469   0.656  0.00  0.00    -0.269 OA
ATOM      4  N   UNL     1      -1.909   4.189   0.120  0.00  0.00    -0.309 N 
ATOM      5  H   UNL     1      -1.201   3.587  -0.159  0.00  0.00    +0.149 HD
BRANCH   2   7
ATOM      6  C   UNL     1      -3.670   1.632  -0.790  0.00  0.00    +0.074 C 
ATOM      7  C   UNL     1      -3.374   2.260   0.379  0.00  0.00    +0.100 C 
BRANCH   6  10
ATOM      8  C   UNL     1      -3.728   2.903  -4.169  0.00  0.00    +0.042 A 
ATOM      9  C   UNL     1      -3.825   1.828  -3.270  0.00  0.00    +0.049 A 
ATOM     10  C   UNL     1      -3.647   2.356  -2.008  0.00  0.00    +0.130 A 
ATOM     11  O   UNL     1      -3.443   3.683  -2.140  0.00  0.00    -0.463 OA
ATOM     12  C   UNL     1      -3.494   4.015  -3.439  0.00  0.00    +0.195 A 
ENDBRANCH   6  10
BRANCH   7  13
ATOM     13  N   UNL     1      -3.296   1.524   1.567  0.00  0.00    -0.275 N 
ATOM     14  C   UNL     1      -2.887   2.122   2.704  0.00  0.00    +0.284 C 
ATOM     15  O   UNL     1      -2.484   3.271   2.676  0.00  0.00    -0.266 OA
ATOM     16  H   UNL     1      -3.536   0.585   1.573  0.00  0.00    +0.155 HD
BRANCH  14  17
ATOM     17  C   UNL     1      -2.927   1.389   3.973  0.00  0.00    +0.189 A 
ATOM     18  C   UNL     1      -2.544   1.873   5.191  0.00  0.00    +0.054 A 
ATOM     19  C   UNL     1      -2.750   0.839   6.119  0.00  0.00    +0.042 A 
ATOM     20  C   UNL     1      -3.243  -0.216   5.434  0.00  0.00    +0.196 A 
ATOM     21  O   UNL     1      -3.354   0.121   4.143  0.00  0.00    -0.458 OA
ENDBRANCH  14  17
ENDBRANCH   7  13
ENDBRANCH   2   7
ENDBRANCH   1   4
BRANCH   1  22
ATOM     22  C   UNL     1      -0.184   5.907  -0.123  0.00  0.00    +0.123 C 
BRANCH  22  23
ATOM     23  N   UNL     1       0.082   7.342   0.000  0.00  0.00    -0.309 N 
ATOM     24  C   UNL     1       1.309   7.826  -0.275  0.00  0.00    +0.258 C 
ATOM     25  O   UNL     1       2.171   7.087  -0.713  0.00  0.00    -0.269 OA
ATOM     26  H   UNL     1      -0.626   7.944   0.279  0.00  0.00    +0.149 HD
BRANCH  24  27
ATOM     27  C   UNL     1       1.606   9.243  -0.046  0.00  0.00    +0.100 C 
ATOM     28  C   UNL     1       2.113   9.647   1.149  0.00  0.00    +0.074 C 
BRANCH  28  29
ATOM     29  C   UNL     1       2.454   8.688   2.134  0.00  0.00    +0.130 A 
ATOM     30  C   UNL     1       2.880   8.957   3.418  0.00  0.00    +0.049 A 
ATOM     31  C   UNL     1       3.101   7.715   4.035  0.00  0.00    +0.042 A 
ATOM     32  C   UNL     1       2.809   6.760   3.126  0.00  0.00    +0.195 A 
ATOM     33  O   UNL     1       2.415   7.347   1.986  0.00  0.00    -0.463 OA
ENDBRANCH  28  29
BRANCH  27  34
ATOM     34  N   UNL     1       1.367  10.180  -1.058  0.00  0.00    -0.275 N 
ATOM     35  C   UNL     1       0.766   9.798  -2.202  0.00  0.00    +0.284 C 
ATOM     36  O   UNL     1       0.339   8.664  -2.316  0.00  0.00    -0.266 OA
ATOM     37  H   UNL     1       1.635  11.104  -0.935  0.00  0.00    +0.155 HD
BRANCH  35  38
ATOM     38  C   UNL     1       0.627  10.749  -3.309  0.00  0.00    +0.189 A 
ATOM     39  C   UNL     1       0.042  10.494  -4.517  0.00  0.00    +0.054 A 
ATOM     40  C   UNL     1       0.129  11.679  -5.265  0.00  0.00    +0.042 A 
ATOM     41  C   UNL     1       0.756  12.593  -4.492  0.00  0.00    +0.196 A 
ATOM     42  O   UNL     1       1.049  12.031  -3.312  0.00  0.00    -0.458 OA
ENDBRANCH  35  38
ENDBRANCH  27  34
ENDBRANCH  24  27
ENDBRANCH  22  23
ENDBRANCH   1  22
TORSDOF 11
