REMARK  Name = ZINC64179130
REMARK  7 active torsions:
REMARK  status: ('A' for Active; 'I' for Inactive)
REMARK    1  A    between atoms: C_1  and  O_2
REMARK    2  A    between atoms: O_2  and  C_3
REMARK    3  A    between atoms: C_6  and  C_9
REMARK    4  A    between atoms: N_15  and  C_16
REMARK    5  A    between atoms: C_16  and  C_17
REMARK    6  A    between atoms: C_17  and  C_18
REMARK    7  A    between atoms: C_23  and  C_26
REMARK                            x       y       z     vdW  Elec       q    Type
REMARK                         _______ _______ _______ _____ _____    ______ ____
ROOT
ATOM      1  C   UNL     1      -2.585  -6.493   1.070  0.00  0.00    +0.217 C 
ATOM      2  O   UNL     1      -2.082  -6.704  -0.014  0.00  0.00    -0.276 OA
ATOM      3  N   UNL     1      -2.100  -7.106   2.168  0.00  0.00    -0.301 N 
ATOM      4  C   UNL     1      -2.702  -6.866   3.486  0.00  0.00    +0.108 C 
ATOM      5  C   UNL     1      -1.601  -6.434   4.460  0.00  0.00    +0.027 C 
ATOM      6  C   UNL     1      -0.485  -7.481   4.459  0.00  0.00    +0.020 C 
ATOM      7  C   UNL     1       0.122  -7.582   3.058  0.00  0.00    +0.027 C 
ATOM      8  C   UNL     1      -0.964  -8.032   2.068  0.00  0.00    +0.108 C 
ENDROOT
BRANCH   6   9
ATOM      9  C   UNL     1       0.585  -7.076   5.441  0.00  0.00    -0.038 C 
ATOM     10  C   UNL     1       1.005  -7.775   6.520  0.00  0.00    -0.001 A 
ATOM     11  C   UNL     1       0.608  -9.071   7.081  0.00  0.00    +0.010 A 
ATOM     12  C   UNL     1       1.225  -9.519   8.198  0.00  0.00    +0.001 A 
ATOM     13  C   UNL     1       2.231  -8.778   8.832  0.00  0.00    +0.002 A 
ATOM     14  C   UNL     1       2.651  -7.579   8.376  0.00  0.00    +0.026 A 
ATOM     15  C   UNL     1       2.071  -7.011   7.207  0.00  0.00    +0.043 A 
ATOM     16  N   UNL     1       2.300  -5.885   6.578  0.00  0.00    -0.380 N 
ATOM     17  C   UNL     1       1.409  -5.808   5.415  0.00  0.00    +0.145 C 
ATOM     18  H   UNL     1       2.953  -5.215   6.836  0.00  0.00    +0.160 HD
ENDBRANCH   6   9
BRANCH   1  19
ATOM     19  C   UNL     1      -3.751  -5.546   1.189  0.00  0.00    +0.117 C 
BRANCH  19  20
ATOM     20  C   UNL     1      -4.100  -4.991  -0.194  0.00  0.00    +0.135 C 
BRANCH  20  27
ATOM     21  C   UNL     1      -4.947  -2.612   0.025  0.00  0.00    +0.163 A 
ATOM     22  H   UNL     1      -8.054  -2.879   0.173  0.00  0.00    +0.191 HD
ATOM     23  N   UNL     1      -6.108  -2.028   0.126  0.00  0.00    -0.153 NA
ATOM     24  N   UNL     1      -7.097  -3.022   0.112  0.00  0.00    -0.254 N 
ATOM     25  C   UNL     1      -6.474  -4.213  -0.001  0.00  0.00    +0.176 A 
ATOM     26  S   UNL     1      -7.230  -5.747  -0.065  0.00  0.00    -0.011 S 
ATOM     27  N   UNL     1      -5.148  -3.976  -0.062  0.00  0.00    -0.303 N 
BRANCH  21  31
ATOM     28  C   UNL     1      -1.178  -0.650  -0.047  0.00  0.00    +0.120 A 
ATOM     29  C   UNL     1      -1.255  -1.989   0.311  0.00  0.00    +0.046 A 
ATOM     30  C   UNL     1      -2.476  -2.629   0.335  0.00  0.00    +0.015 A 
ATOM     31  C   UNL     1      -3.635  -1.929   0.000  0.00  0.00    +0.019 A 
ATOM     32  C   UNL     1      -3.554  -0.583  -0.359  0.00  0.00    +0.015 A 
ATOM     33  C   UNL     1      -2.331   0.052  -0.376  0.00  0.00    +0.046 A 
BRANCH  28  35
ATOM     34  C   UNL     1       1.171  -0.803   0.279  0.00  0.00    +0.277 C 
ATOM     35  O   UNL     1       0.026  -0.022  -0.070  0.00  0.00    -0.495 OA
ENDBRANCH  28  35
ENDBRANCH  21  31
ENDBRANCH  20  27
ENDBRANCH  19  20
ENDBRANCH   1  19
TORSDOF 6
