REMARK  Name = ZINC21176889
REMARK  9 active torsions:
REMARK  status: ('A' for Active; 'I' for Inactive)
REMARK    1  A    between atoms: C_1  and  C_2
REMARK    2  A    between atoms: C_15  and  C_17
REMARK    3  A    between atoms: C_17  and  C_19
REMARK    4  A    between atoms: C_17  and  S_20
REMARK    5  A    between atoms: S_20  and  C_21
REMARK    6  A    between atoms: C_24  and  C_27
REMARK    7  A    between atoms: N_25  and  N_26
REMARK    8  A    between atoms: C_30  and  O_33
REMARK    9  A    between atoms: O_33  and  C_34
REMARK                            x       y       z     vdW  Elec       q    Type
REMARK                         _______ _______ _______ _____ _____    ______ ____
ROOT
ATOM      1  C   UNL     1       2.301  -8.127   0.768  0.00  0.00    +0.117 C 
ATOM      2  C   UNL     1       1.067  -8.886   1.259  0.00  0.00    +0.027 C 
ENDROOT
BRANCH   1  16
ATOM      3  C   UNL     1      -0.019   1.526   0.010  0.00  0.00    +0.008 C 
ATOM      4  C   UNL     1       0.002  -0.004   0.002  0.00  0.00    -0.009 C 
ATOM      5  C   UNL     1       0.726  -0.501  -1.253  0.00  0.00    +0.008 C 
ATOM      6  C   UNL     1       0.536  -2.011  -1.397  0.00  0.00    +0.037 C 
ATOM      7  C   UNL     1       0.949  -2.688  -0.093  0.00  0.00    -0.023 A 
ATOM      8  C   UNL     1       1.031  -1.976   1.055  0.00  0.00    -0.004 A 
ATOM      9  S   UNL     1       1.537  -3.145   2.292  0.00  0.00    -0.073 S 
ATOM     10  C   UNL     1       1.637  -4.581   1.270  0.00  0.00    +0.116 A 
ATOM     11  C   UNL     1       1.271  -4.101  -0.007  0.00  0.00    +0.075 A 
ATOM     12  C   UNL     1       1.257  -5.054  -1.081  0.00  0.00    +0.260 A 
ATOM     13  O   UNL     1       0.955  -4.742  -2.220  0.00  0.00    -0.267 OA
ATOM     14  N   UNL     1       1.599  -6.321  -0.747  0.00  0.00    -0.309 N 
ATOM     15  H   UNL     1       1.603  -6.997  -1.443  0.00  0.00    +0.170 HD
ATOM     16  C   UNL     1       1.938  -6.688   0.512  0.00  0.00    +0.124 A 
ATOM     17  N   UNL     1       1.962  -5.845   1.522  0.00  0.00    -0.225 NA
ATOM     18  C   UNL     1       0.751  -0.516   1.241  0.00  0.00    +0.046 C 
ENDBRANCH   1  16
BRANCH   1  19
ATOM     19  S   UNL     1       2.903  -8.882  -0.768  0.00  0.00    -0.074 S 
BRANCH  19  20
ATOM     20  C   UNL     1       3.420 -10.493  -0.278  0.00  0.00    +0.209 A 
ATOM     21  N   UNL     1       3.359 -10.996   0.935  0.00  0.00    -0.121 NA
ATOM     22  N   UNL     1       3.819 -12.196   0.939  0.00  0.00    -0.127 NA
ATOM     23  C   UNL     1       4.202 -12.533  -0.271  0.00  0.00    +0.182 A 
ATOM     24  N   UNL     1       3.953 -11.455  -1.088  0.00  0.00    -0.224 N 
BRANCH  23  25
ATOM     25  C   UNL     1       4.785 -13.829  -0.678  0.00  0.00    +0.021 A 
ATOM     26  C   UNL     1       5.436 -13.947  -1.908  0.00  0.00    +0.015 A 
ATOM     27  C   UNL     1       5.980 -15.157  -2.284  0.00  0.00    +0.046 A 
ATOM     28  C   UNL     1       5.880 -16.257  -1.442  0.00  0.00    +0.120 A 
ATOM     29  C   UNL     1       5.234 -16.143  -0.219  0.00  0.00    +0.046 A 
ATOM     30  C   UNL     1       4.692 -14.935   0.168  0.00  0.00    +0.015 A 
BRANCH  28  31
ATOM     31  O   UNL     1       6.416 -17.448  -1.817  0.00  0.00    -0.495 OA
ATOM     32  C   UNL     1       6.278 -18.538  -0.904  0.00  0.00    +0.277 C 
ENDBRANCH  28  31
ENDBRANCH  23  25
BRANCH  24  33
ATOM     33  N   UNL     1       4.192 -11.364  -2.430  0.00  0.00    -0.295 N 
ATOM     34  H   UNL     1       5.120 -11.010  -2.609  0.00  0.00    +0.163 HD
ATOM     35  H   UNL     1       4.051 -12.254  -2.884  0.00  0.00    +0.163 HD
ENDBRANCH  24  33
ENDBRANCH  19  20
ENDBRANCH   1  19
TORSDOF 6
