REMARK  Name = ZINC64061431
REMARK  8 active torsions:
REMARK  status: ('A' for Active; 'I' for Inactive)
REMARK    1  A    between atoms: C_1  and  C_2
REMARK    2  A    between atoms: C_4  and  C_24
REMARK    3  A    between atoms: C_6  and  C_9
REMARK    4  A    between atoms: C_14  and  N_15
REMARK    5  A    between atoms: C_16  and  C_18
REMARK    6  A    between atoms: C_24  and  N_25
REMARK    7  A    between atoms: C_26  and  C_28
REMARK    8  A    between atoms: C_28  and  C_29
REMARK                            x       y       z     vdW  Elec       q    Type
REMARK                         _______ _______ _______ _____ _____    ______ ____
ROOT
ATOM      1  C   UNL     1      -0.026   1.513   0.006  0.00  0.00    +0.044 C 
ATOM      2  C   UNL     1       0.006  -0.017  -0.001  0.00  0.00    +0.164 C 
ATOM      3  C   UNL     1      -1.400  -0.573   0.046  0.00  0.00    +0.062 C 
ATOM      4  N   UNL     1      -1.644  -0.963   1.240  0.00  0.00    -0.253 NA
ATOM      5  C   UNL     1      -0.474  -0.716   2.091  0.00  0.00    +0.268 C 
ATOM      6  O   UNL     1       0.640  -0.511   1.196  0.00  0.00    -0.342 OA
ENDROOT
BRANCH   5   7
ATOM      7  C   UNL     1      -0.216  -1.908   2.976  0.00  0.00    +0.024 A 
ATOM      8  C   UNL     1      -0.842  -3.111   2.715  0.00  0.00    +0.010 A 
ATOM      9  C   UNL     1      -0.606  -4.205   3.526  0.00  0.00    +0.001 A 
ATOM     10  C   UNL     1       0.257  -4.099   4.602  0.00  0.00    +0.002 A 
ATOM     11  C   UNL     1       0.886  -2.899   4.869  0.00  0.00    +0.024 A 
ATOM     12  C   UNL     1       0.655  -1.799   4.052  0.00  0.00    +0.041 A 
BRANCH  12  13
ATOM     13  N   UNL     1       1.294  -0.584   4.316  0.00  0.00    -0.280 N 
ATOM     14  C   UNL     1       1.534  -0.211   5.589  0.00  0.00    +0.267 C 
ATOM     15  O   UNL     1       1.269  -0.966   6.504  0.00  0.00    -0.268 OA
ATOM     16  H   UNL     1       1.566  -0.009   3.583  0.00  0.00    +0.155 HD
BRANCH  14  17
ATOM     17  C   UNL     1       2.120   1.119   5.873  0.00  0.00    +0.126 A 
ATOM     18  C   UNL     1       2.371   1.496   7.191  0.00  0.00    +0.033 A 
ATOM     19  C   UNL     1       2.920   2.744   7.441  0.00  0.00    +0.004 A 
ATOM     20  C   UNL     1       3.199   3.571   6.365  0.00  0.00    +0.020 A 
ATOM     21  C   UNL     1       2.924   3.131   5.080  0.00  0.00    +0.111 A 
ATOM     22  N   UNL     1       2.408   1.939   4.870  0.00  0.00    -0.250 NA
ENDBRANCH  14  17
ENDBRANCH  12  13
ENDBRANCH   5   7
BRANCH   3  23
ATOM     23  C   UNL     1      -2.353  -0.655  -1.118  0.00  0.00    +0.157 C 
BRANCH  23  24
ATOM     24  N   UNL     1      -3.615  -1.253  -0.675  0.00  0.00    -0.310 N 
ATOM     25  C   UNL     1      -4.623  -1.427  -1.553  0.00  0.00    +0.217 C 
ATOM     26  O   UNL     1      -4.485  -1.088  -2.709  0.00  0.00    -0.275 OA
ATOM     27  H   UNL     1      -3.725  -1.524   0.249  0.00  0.00    +0.149 HD
BRANCH  25  28
ATOM     28  C   UNL     1      -5.921  -2.043  -1.097  0.00  0.00    +0.129 C 
BRANCH  28  29
ATOM     29  C   UNL     1      -6.874  -2.124  -2.262  0.00  0.00    -0.033 C 
ATOM     30  C   UNL     1      -7.078  -3.188  -3.072  0.00  0.00    -0.001 A 
ATOM     31  C   UNL     1      -6.495  -4.534  -3.112  0.00  0.00    +0.010 A 
ATOM     32  C   UNL     1      -6.909  -5.400  -4.065  0.00  0.00    +0.001 A 
ATOM     33  C   UNL     1      -7.878  -5.045  -5.013  0.00  0.00    +0.002 A 
ATOM     34  C   UNL     1      -8.460  -3.827  -5.040  0.00  0.00    +0.026 A 
ATOM     35  C   UNL     1      -8.100  -2.837  -4.085  0.00  0.00    +0.043 A 
ATOM     36  N   UNL     1      -8.511  -1.605  -3.907  0.00  0.00    -0.380 N 
ATOM     37  C   UNL     1      -7.801  -1.036  -2.756  0.00  0.00    +0.145 C 
ATOM     38  H   UNL     1      -9.178  -1.148  -4.443  0.00  0.00    +0.160 HD
ENDBRANCH  28  29
ENDBRANCH  25  28
ENDBRANCH  23  24
ENDBRANCH   3  23
TORSDOF 7
