REMARK  Name = ZINC43763305
REMARK  12 active torsions:
REMARK  status: ('A' for Active; 'I' for Inactive)
REMARK    1  A    between atoms: C_1  and  C_2
REMARK    2  A    between atoms: C_2  and  O_3
REMARK    3  A    between atoms: O_3  and  C_4
REMARK    4  A    between atoms: C_8  and  C_37
REMARK    5  A    between atoms: C_11  and  C_12
REMARK    6  A    between atoms: C_11  and  C_13
REMARK    7  A    between atoms: C_14  and  O_36
REMARK    8  A    between atoms: C_15  and  C_35
REMARK    9  A    between atoms: C_22  and  C_34
REMARK   10  A    between atoms: C_24  and  O_26
REMARK   11  A    between atoms: O_26  and  C_27
REMARK   12  A    between atoms: C_27  and  C_28
REMARK                            x       y       z     vdW  Elec       q    Type
REMARK                         _______ _______ _______ _____ _____    ______ ____
ROOT
ATOM      1  C   UNL     1       0.746  -1.889  -1.280  0.00  0.00    +0.150 C 
ATOM      2  C   UNL     1       1.980  -2.349  -0.568  0.00  0.00    +0.006 C 
ATOM      3  C   UNL     1       2.614  -3.398  -0.981  0.00  0.00    -0.049 C 
ATOM      4  C   UNL     1       2.174  -4.207  -2.193  0.00  0.00    +0.037 C 
ATOM      5  C   UNL     1       3.401  -4.975  -2.609  0.00  0.00    -0.017 C 
ATOM      6  C   UNL     1       4.321  -4.925  -1.681  0.00  0.00    -0.020 C 
ATOM      7  C   UNL     1       3.852  -4.101  -0.500  0.00  0.00    +0.005 C 
ATOM      8  C   UNL     1       3.541  -5.003   0.697  0.00  0.00    +0.020 C 
ATOM      9  C   UNL     1       4.928  -3.076  -0.117  0.00  0.00    +0.020 C 
ATOM     10  C   UNL     1       1.751  -3.201  -3.269  0.00  0.00    +0.090 C 
ATOM     11  C   UNL     1       0.674  -2.251  -2.741  0.00  0.00    +0.028 C 
ATOM     12  C   UNL     1      -0.688  -2.849  -3.114  0.00  0.00    +0.018 C 
ATOM     13  C   UNL     1      -0.435  -3.931  -4.166  0.00  0.00    +0.025 C 
ATOM     14  C   UNL     1       1.086  -3.989  -4.423  0.00  0.00    +0.028 C 
ATOM     15  C   UNL     1       1.339  -3.272  -5.757  0.00  0.00    +0.012 C 
ATOM     16  C   UNL     1      -0.024  -2.922  -6.371  0.00  0.00    +0.015 C 
ATOM     17  C   UNL     1      -1.095  -3.597  -5.505  0.00  0.00    +0.125 C 
ATOM     18  C   UNL     1      -0.101  -3.451  -7.805  0.00  0.00    +0.010 C 
ATOM     19  C   UNL     1       0.804  -0.923  -3.507  0.00  0.00    +0.017 C 
ATOM     20  C   UNL     1       1.055  -5.172  -1.813  0.00  0.00    +0.023 C 
ENDROOT
BRANCH  10  21
ATOM     21  O   UNL     1       2.910  -2.465  -3.721  0.00  0.00    -0.386 OA
ATOM     22  H   UNL     1       3.607  -3.021  -4.096  0.00  0.00    +0.210 HD
ENDBRANCH  10  21
BRANCH   1  23
ATOM     23  O   UNL     1       0.671  -0.465  -1.174  0.00  0.00    -0.372 OA
BRANCH  23  25
ATOM     24  C   UNL     1      -0.019   1.526   0.010  0.00  0.00    +0.034 C 
ATOM     25  C   UNL     1       0.002  -0.004   0.002  0.00  0.00    +0.157 C 
ENDBRANCH  23  25
ENDBRANCH   1  23
BRANCH  17  26
ATOM     26  O   UNL     1      -2.214  -2.731  -5.334  0.00  0.00    -0.371 OA
BRANCH  26  27
ATOM     27  C   UNL     1      -3.237  -2.902  -6.316  0.00  0.00    +0.195 C 
BRANCH  27  28
ATOM     28  C   UNL     1      -4.365  -1.941  -6.040  0.00  0.00    -0.022 A 
ATOM     29  C   UNL     1      -5.408  -2.319  -5.215  0.00  0.00    +0.006 A 
ATOM     30  C   UNL     1      -6.442  -1.438  -4.961  0.00  0.00    +0.000 A 
ATOM     31  C   UNL     1      -6.433  -0.179  -5.531  0.00  0.00    +0.000 A 
ATOM     32  C   UNL     1      -5.390   0.199  -6.355  0.00  0.00    +0.000 A 
ATOM     33  C   UNL     1      -4.353  -0.680  -6.605  0.00  0.00    +0.006 A 
ENDBRANCH  27  28
ENDBRANCH  26  27
ENDBRANCH  17  26
TORSDOF 6
