REMARK  Name = ZINC08442833
REMARK  8 active torsions:
REMARK  status: ('A' for Active; 'I' for Inactive)
REMARK    1  A    between atoms: C_1  and  C_2
REMARK    2  A    between atoms: C_6  and  C_7
REMARK    3  A    between atoms: C_9  and  C_31
REMARK    4  A    between atoms: C_10  and  N_30
REMARK    5  A    between atoms: N_11  and  C_21
REMARK    6  A    between atoms: C_17  and  C_19
REMARK    7  A    between atoms: C_17  and  C_20
REMARK    8  A    between atoms: C_24  and  N_27
REMARK                            x       y       z     vdW  Elec       q    Type
REMARK                         _______ _______ _______ _____ _____    ______ ____
ROOT
ATOM      1  C   UNL     1      -0.755  -4.555  -0.817  0.00  0.00    +0.104 C 
ATOM      2  C   UNL     1      -2.243  -4.516  -1.009  0.00  0.00    +0.077 C 
ATOM      3  C   UNL     1      -3.016  -3.633  -0.325  0.00  0.00    +0.107 C 
ATOM      4  N   UNL     1      -2.438  -2.749   0.558  0.00  0.00    -0.260 N 
ATOM      5  C   UNL     1      -1.101  -2.458   0.477  0.00  0.00    +0.025 C 
ATOM      6  C   UNL     1      -0.255  -3.288  -0.170  0.00  0.00    +0.026 C 
ATOM      7  C   UNL     1       1.118  -2.998  -0.258  0.00  0.00    +0.162 C 
ATOM      8  O   UNL     1       1.850  -3.756  -0.863  0.00  0.00    -0.292 OA
ATOM      9  C   UNL     1       1.701  -1.770   0.387  0.00  0.00    +0.086 C 
ATOM     10  C   UNL     1       0.839  -1.385   1.594  0.00  0.00    -0.023 C 
ATOM     11  C   UNL     1      -0.603  -1.189   1.123  0.00  0.00    +0.058 C 
ATOM     12  C   UNL     1       1.362  -0.082   2.204  0.00  0.00    +0.011 C 
ATOM     13  C   UNL     1       0.892  -2.499   2.640  0.00  0.00    +0.011 C 
ENDROOT
BRANCH   1  19
ATOM     14  C   UNL     1       1.048  -6.926  -1.567  0.00  0.00    +0.044 C 
ATOM     15  C   UNL     1       0.385  -6.797  -0.220  0.00  0.00    -0.039 A 
ATOM     16  C   UNL     1       0.573  -7.763   0.750  0.00  0.00    +0.011 A 
ATOM     17  C   UNL     1      -0.044  -7.621   1.949  0.00  0.00    +0.046 A 
ATOM     18  S   UNL     1      -0.918  -6.079   1.733  0.00  0.00    -0.100 S 
ATOM     19  C   UNL     1      -0.402  -5.729   0.060  0.00  0.00    +0.005 A 
ENDBRANCH   1  19
BRANCH   4  20
ATOM     20  C   UNL     1      -3.222  -2.143   1.547  0.00  0.00    +0.040 A 
ATOM     21  C   UNL     1      -3.366  -2.747   2.789  0.00  0.00    +0.026 A 
ATOM     22  C   UNL     1      -4.137  -2.144   3.763  0.00  0.00    +0.034 A 
ATOM     23  C   UNL     1      -4.772  -0.944   3.500  0.00  0.00    +0.126 A 
ATOM     24  C   UNL     1      -4.634  -0.342   2.263  0.00  0.00    +0.034 A 
ATOM     25  C   UNL     1      -3.861  -0.938   1.286  0.00  0.00    +0.026 A 
BRANCH  23  26
ATOM     26  N   UNL     1      -5.602  -0.303   4.545  0.00  0.00    +0.056 N 
ATOM     27  O   UNL     1      -6.162   0.753   4.314  0.00  0.00    -0.126 OA
ATOM     28  O   UNL     1      -5.724  -0.832   5.635  0.00  0.00    -0.126 OA
ENDBRANCH  23  26
ENDBRANCH   4  20
BRANCH   3  29
ATOM     29  N   UNL     1      -4.377  -3.623  -0.514  0.00  0.00    -0.345 N 
ATOM     30  H   UNL     1      -4.920  -2.938  -0.094  0.00  0.00    +0.144 HD
ATOM     31  H   UNL     1      -4.795  -4.301  -1.067  0.00  0.00    +0.144 HD
ENDBRANCH   3  29
BRANCH   2  32
ATOM     32  C   UNL     1      -2.857  -5.423  -1.931  0.00  0.00    +0.099 C 
ATOM     33  N   UNL     1      -3.345  -6.142  -2.663  0.00  0.00    -0.191 NA
ENDBRANCH   2  32
TORSDOF 5
