REMARK  Name = ZINC01116236
REMARK  9 active torsions:
REMARK  status: ('A' for Active; 'I' for Inactive)
REMARK    1  A    between atoms: C_1  and  C_2
REMARK    2  A    between atoms: C_2  and  O_3
REMARK    3  A    between atoms: O_3  and  C_4
REMARK    4  A    between atoms: C_6  and  C_11
REMARK    5  A    between atoms: C_9  and  O_10
REMARK    6  A    between atoms: C_14  and  C_34
REMARK    7  A    between atoms: N_16  and  C_24
REMARK    8  A    between atoms: C_19  and  N_23
REMARK    9  A    between atoms: C_20  and  C_21
REMARK                            x       y       z     vdW  Elec       q    Type
REMARK                         _______ _______ _______ _____ _____    ______ ____
ROOT
ATOM      1  C   UNL     1      -2.557   4.152   0.048  0.00  0.00    +0.101 C 
ATOM      2  C   UNL     1      -2.665   5.025  -1.176  0.00  0.00    +0.050 A 
ATOM      3  C   UNL     1      -2.873   4.662  -2.500  0.00  0.00    +0.068 A 
ATOM      4  N   UNL     1      -2.897   5.754  -3.227  0.00  0.00    -0.168 NA
ATOM      5  N   UNL     1      -2.703   6.857  -2.379  0.00  0.00    -0.200 N 
ATOM      6  C   UNL     1      -2.563   6.387  -1.120  0.00  0.00    +0.230 A 
ATOM      7  O   UNL     1      -2.360   7.060   0.039  0.00  0.00    -0.423 OA
ATOM      8  C   UNL     1      -2.530   6.383   1.192  0.00  0.00    +0.200 C 
ATOM      9  C   UNL     1      -2.630   5.037   1.266  0.00  0.00    +0.098 C 
ATOM     10  C   UNL     1      -3.043   3.256  -3.014  0.00  0.00    +0.068 C 
ENDROOT
BRANCH   5  11
ATOM     11  C   UNL     1      -2.661   8.202  -2.769  0.00  0.00    +0.070 A 
ATOM     12  C   UNL     1      -3.187   9.185  -1.923  0.00  0.00    +0.028 A 
ATOM     13  C   UNL     1      -3.155  10.498  -2.273  0.00  0.00    +0.010 A 
ATOM     14  C   UNL     1      -2.598  10.881  -3.506  0.00  0.00    -0.018 A 
ATOM     15  C   UNL     1      -2.556  12.230  -3.897  0.00  0.00    +0.008 A 
ATOM     16  C   UNL     1      -2.011  12.568  -5.097  0.00  0.00    +0.001 A 
ATOM     17  C   UNL     1      -1.491  11.595  -5.949  0.00  0.00    +0.001 A 
ATOM     18  C   UNL     1      -1.513  10.278  -5.604  0.00  0.00    +0.008 A 
ATOM     19  C   UNL     1      -2.068   9.891  -4.372  0.00  0.00    -0.016 A 
ATOM     20  C   UNL     1      -2.108   8.542  -3.984  0.00  0.00    +0.036 A 
ENDBRANCH   5  11
BRANCH   1  23
ATOM     21  C   UNL     1      -0.016   1.356   0.009  0.00  0.00    +0.162 A 
ATOM     22  C   UNL     1      -1.225   2.034   0.019  0.00  0.00    +0.054 A 
ATOM     23  C   UNL     1      -1.242   3.416   0.032  0.00  0.00    -0.031 A 
ATOM     24  C   UNL     1      -0.055   4.125   0.025  0.00  0.00    +0.008 A 
ATOM     25  C   UNL     1       1.154   3.455   0.010  0.00  0.00    +0.049 A 
ATOM     26  C   UNL     1       1.178   2.069   0.002  0.00  0.00    +0.158 A 
BRANCH  26  27
ATOM     27  O   UNL     1       2.367   1.409  -0.013  0.00  0.00    -0.503 OA
ATOM     28  H   UNL     1       2.702   1.222  -0.901  0.00  0.00    +0.292 HD
ENDBRANCH  26  27
BRANCH  21  29
ATOM     29  O   UNL     1       0.002  -0.004   0.002  0.00  0.00    -0.489 OA
BRANCH  29  31
ATOM     30  C   UNL     1      -1.041  -2.184   0.000  0.00  0.00    +0.048 C 
ATOM     31  C   UNL     1      -1.262  -0.670   0.011  0.00  0.00    +0.226 C 
ENDBRANCH  29  31
ENDBRANCH  21  29
ENDBRANCH   1  23
BRANCH   8  32
ATOM     32  N   UNL     1      -2.605   7.102   2.360  0.00  0.00    -0.328 N 
ATOM     33  H   UNL     1      -2.536   8.069   2.339  0.00  0.00    +0.145 HD
ATOM     34  H   UNL     1      -2.727   6.642   3.205  0.00  0.00    +0.145 HD
ENDBRANCH   8  32
BRANCH   9  35
ATOM     35  C   UNL     1      -2.814   4.429   2.550  0.00  0.00    +0.101 C 
ATOM     36  N   UNL     1      -2.960   3.947   3.568  0.00  0.00    -0.191 NA
ENDBRANCH   9  35
TORSDOF 7
