REMARK  Name = ZINC12401672
REMARK  8 active torsions:
REMARK  status: ('A' for Active; 'I' for Inactive)
REMARK    1  A    between atoms: C_1  and  C_2
REMARK    2  A    between atoms: C_2  and  C_3
REMARK    3  A    between atoms: C_2  and  S_4
REMARK    4  A    between atoms: S_4  and  C_5
REMARK    5  A    between atoms: C_16  and  C_18
REMARK    6  A    between atoms: C_16  and  C_19
REMARK    7  A    between atoms: C_30  and  C_33
REMARK    8  A    between atoms: C_31  and  N_32
REMARK                            x       y       z     vdW  Elec       q    Type
REMARK                         _______ _______ _______ _____ _____    ______ ____
ROOT
ATOM      1  C   UNL     1       0.845  -0.072  -1.733  0.00  0.00    +0.160 A 
ATOM      2  N   UNL     1       2.128  -0.287  -1.475  0.00  0.00    -0.133 NA
ATOM      3  N   UNL     1       2.875  -0.906  -2.281  0.00  0.00    -0.124 NA
ATOM      4  C   UNL     1       2.428  -1.368  -3.438  0.00  0.00    +0.194 A 
ATOM      5  S   UNL     1       0.718  -0.849  -3.341  0.00  0.00    -0.024 S 
ATOM      6  N   UNL     1       3.099  -2.060  -4.444  0.00  0.00    -0.237 N 
ATOM      7  C   UNL     1       3.674  -1.367  -5.476  0.00  0.00    +0.028 C 
ATOM      8  C   UNL     1       3.978  -1.987  -6.637  0.00  0.00    +0.037 C 
ATOM      9  C   UNL     1       4.568  -1.284  -7.701  0.00  0.00    +0.163 C 
ATOM     10  O   UNL     1       4.846  -1.876  -8.726  0.00  0.00    -0.292 OA
ATOM     11  C   UNL     1       4.862   0.187  -7.596  0.00  0.00    +0.086 C 
ATOM     12  C   UNL     1       3.864   0.827  -6.625  0.00  0.00    -0.023 C 
ATOM     13  C   UNL     1       3.963   0.101  -5.282  0.00  0.00    +0.058 C 
ATOM     14  C   UNL     1       2.445   0.689  -7.181  0.00  0.00    +0.011 C 
ATOM     15  C   UNL     1       4.205   2.306  -6.438  0.00  0.00    +0.011 C 
ATOM     16  C   UNL     1       3.689  -3.454  -6.825  0.00  0.00    +0.141 C 
ATOM     17  C   UNL     1       2.518  -3.646  -7.740  0.00  0.00    -0.002 A 
ATOM     18  C   UNL     1       1.199  -3.265  -7.624  0.00  0.00    +0.007 A 
ATOM     19  C   UNL     1       0.350  -3.606  -8.671  0.00  0.00    +0.000 A 
ATOM     20  C   UNL     1       0.811  -4.294  -9.775  0.00  0.00    +0.002 A 
ATOM     21  C   UNL     1       2.137  -4.679  -9.899  0.00  0.00    +0.023 A 
ATOM     22  C   UNL     1       3.000  -4.341  -8.855  0.00  0.00    +0.038 A 
ATOM     23  N   UNL     1       4.353  -4.594  -8.717  0.00  0.00    -0.284 N 
ATOM     24  C   UNL     1       4.843  -4.109  -7.558  0.00  0.00    +0.238 C 
ATOM     25  O   UNL     1       5.992  -4.181  -7.175  0.00  0.00    -0.274 OA
ATOM     26  C   UNL     1       3.461  -4.144  -5.514  0.00  0.00    +0.089 C 
ATOM     27  C   UNL     1       3.180  -3.433  -4.388  0.00  0.00    +0.109 C 
ATOM     28  H   UNL     1       4.886  -5.066  -9.376  0.00  0.00    +0.155 HD
ENDROOT
BRANCH  27  29
ATOM     29  N   UNL     1       2.973  -4.085  -3.196  0.00  0.00    -0.345 N 
ATOM     30  H   UNL     1       2.683  -3.588  -2.415  0.00  0.00    +0.144 HD
ATOM     31  H   UNL     1       3.117  -5.043  -3.135  0.00  0.00    +0.144 HD
ENDBRANCH  27  29
BRANCH  26  32
ATOM     32  C   UNL     1       3.546  -5.572  -5.444  0.00  0.00    +0.100 C 
ATOM     33  N   UNL     1       3.613  -6.704  -5.388  0.00  0.00    -0.191 NA
ENDBRANCH  26  32
BRANCH   1  34
ATOM     34  S   UNL     1      -0.381   0.751  -0.772  0.00  0.00    -0.094 S 
BRANCH  34  36
ATOM     35  C   UNL     1       1.578   2.291   0.356  0.00  0.00    +0.019 C 
ATOM     36  C   UNL     1       0.506   1.264   0.725  0.00  0.00    +0.047 C 
ATOM     37  C   UNL     1      -0.481   1.889   1.713  0.00  0.00    +0.019 C 
ENDBRANCH  34  36
ENDBRANCH   1  34
TORSDOF 4
