REMARK  Name = ZINC49590075
REMARK  13 active torsions:
REMARK  status: ('A' for Active; 'I' for Inactive)
REMARK    1  A    between atoms: C_1  and  C_2
REMARK    2  A    between atoms: C_2  and  O_4
REMARK    3  A    between atoms: O_4  and  C_5
REMARK    4  A    between atoms: C_10  and  C_46
REMARK    5  A    between atoms: C_13  and  C_32
REMARK    6  A    between atoms: C_21  and  C_27
REMARK    7  A    between atoms: C_23  and  C_26
REMARK    8  A    between atoms: C_33  and  O_42
REMARK    9  A    between atoms: C_36  and  O_41
REMARK   10  A    between atoms: C_38  and  C_39
REMARK   11  A    between atoms: C_38  and  C_40
REMARK   12  A    between atoms: O_42  and  C_43
REMARK   13  A    between atoms: C_43  and  C_45
REMARK                            x       y       z     vdW  Elec       q    Type
REMARK                         _______ _______ _______ _____ _____    ______ ____
ROOT
ATOM      1  C   UNL     1      -1.209  -2.014  -1.779  0.00  0.00    +0.186 C 
ATOM      2  C   UNL     1      -2.224  -2.657  -2.734  0.00  0.00    +0.050 C 
ATOM      3  C   UNL     1      -3.636  -2.309  -2.271  0.00  0.00    +0.010 C 
ATOM      4  C   UNL     1      -3.908  -2.905  -0.894  0.00  0.00    +0.012 C 
ATOM      5  C   UNL     1      -2.868  -2.330   0.069  0.00  0.00    +0.011 C 
ATOM      6  C   UNL     1      -1.426  -2.535  -0.359  0.00  0.00    +0.041 C 
ATOM      7  C   UNL     1      -0.511  -1.786   0.623  0.00  0.00    +0.125 C 
ATOM      8  C   UNL     1       0.824  -1.212   0.163  0.00  0.00    +0.260 C 
ATOM      9  O   UNL     1       0.738  -2.480   0.836  0.00  0.00    -0.352 OA
ATOM     10  C   UNL     1       1.425  -0.126   1.040  0.00  0.00    +0.340 C 
ATOM     11  O   UNL     1       2.353   0.536   0.635  0.00  0.00    -0.248 OA
ATOM     12  O   UNL     1       0.923   0.086   2.258  0.00  0.00    -0.454 OA
ATOM     13  C   UNL     1      -0.037  -0.782   2.835  0.00  0.00    +0.218 C 
ATOM     14  C   UNL     1      -1.147  -1.135   1.841  0.00  0.00    +0.042 C 
ATOM     15  C   UNL     1      -2.215  -1.987   2.486  0.00  0.00    +0.014 C 
ATOM     16  C   UNL     1      -3.079  -2.774   1.503  0.00  0.00    +0.006 C 
ATOM     17  C   UNL     1      -1.749   0.217   1.446  0.00  0.00    +0.018 C 
ATOM     18  C   UNL     1      -0.977  -4.006  -0.299  0.00  0.00    +0.018 C 
ATOM     19  C   UNL     1      -5.301  -2.438  -0.435  0.00  0.00    +0.185 C 
ATOM     20  C   UNL     1      -6.354  -2.909  -1.431  0.00  0.00    +0.077 C 
ATOM     21  C   UNL     1      -6.106  -2.337  -2.817  0.00  0.00    +0.124 C 
ATOM     22  C   UNL     1      -4.686  -2.581  -3.323  0.00  0.00    -0.005 C 
ATOM     23  C   UNL     1      -4.465  -1.584  -4.489  0.00  0.00    +0.014 C 
ATOM     24  C   UNL     1      -4.580  -3.986  -3.917  0.00  0.00    +0.014 C 
ATOM     25  C   UNL     1      -3.905  -4.427  -0.884  0.00  0.00    +0.015 C 
ENDROOT
BRANCH  13  26
ATOM     26  C   UNL     1      -0.658  -0.095   4.024  0.00  0.00    +0.031 A 
ATOM     27  C   UNL     1      -0.986  -0.689   5.264  0.00  0.00    +0.048 A 
ATOM     28  C   UNL     1      -1.515   0.279   6.033  0.00  0.00    +0.195 A 
ATOM     29  O   UNL     1      -1.526   1.422   5.328  0.00  0.00    -0.471 OA
ATOM     30  C   UNL     1      -1.002   1.202   4.110  0.00  0.00    +0.202 A 
ENDBRANCH  13  26
BRANCH  21  31
ATOM     31  O   UNL     1      -6.376  -0.931  -2.821  0.00  0.00    -0.391 OA
ATOM     32  H   UNL     1      -7.285  -0.704  -2.583  0.00  0.00    +0.210 HD
ENDBRANCH  21  31
BRANCH   1  33
ATOM     33  O   UNL     1      -1.363  -0.595  -1.807  0.00  0.00    -0.461 OA
BRANCH  33  35
ATOM     34  C   UNL     1      -0.759   1.578  -2.811  0.00  0.00    +0.136 C 
ATOM     35  C   UNL     1      -0.648   0.078  -2.722  0.00  0.00    +0.304 C 
ATOM     36  O   UNL     1       0.085  -0.519  -3.475  0.00  0.00    -0.251 OA
ENDBRANCH  33  35
ENDBRANCH   1  33
BRANCH  19  37
ATOM     37  O   UNL     1      -5.323  -1.017  -0.328  0.00  0.00    -0.461 OA
BRANCH  37  38
ATOM     38  C   UNL     1      -6.148  -0.487   0.589  0.00  0.00    +0.304 C 
ATOM     39  O   UNL     1      -6.829  -1.209   1.278  0.00  0.00    -0.251 OA
ATOM     40  C   UNL     1      -6.225   1.009   0.759  0.00  0.00    +0.136 C 
ENDBRANCH  37  38
ENDBRANCH  19  37
TORSDOF 6
