REMARK  Name = ZINC09266665
REMARK  8 active torsions:
REMARK  status: ('A' for Active; 'I' for Inactive)
REMARK    1  A    between atoms: C_1  and  C_2
REMARK    2  A    between atoms: C_2  and  O_3
REMARK    3  A    between atoms: O_3  and  C_4
REMARK    4  A    between atoms: C_4  and  C_6
REMARK    5  A    between atoms: C_7  and  N_35
REMARK    6  A    between atoms: C_24  and  C_27
REMARK    7  A    between atoms: C_30  and  O_33
REMARK    8  A    between atoms: O_33  and  C_34
REMARK                            x       y       z     vdW  Elec       q    Type
REMARK                         _______ _______ _______ _____ _____    ______ ____
ROOT
ATOM      1  C   UNL     1      -1.242   2.030   0.042  0.00  0.00    +0.117 C 
ATOM      2  C   UNL     1      -1.260   3.386   0.135  0.00  0.00    +0.195 C 
ATOM      3  O   UNL     1      -2.413   4.071   0.113  0.00  0.00    -0.446 OA
ATOM      4  C   UNL     1      -3.568   3.458   0.434  0.00  0.00    +0.116 C 
ATOM      5  C   UNL     1      -3.694   2.119   0.361  0.00  0.00    +0.057 C 
ATOM      6  C   UNL     1      -2.529   1.266  -0.069  0.00  0.00    +0.141 C 
ATOM      7  C   UNL     1      -2.732   0.751  -1.460  0.00  0.00    -0.002 A 
ATOM      8  C   UNL     1      -2.861   1.406  -2.666  0.00  0.00    +0.007 A 
ATOM      9  C   UNL     1      -3.040   0.616  -3.796  0.00  0.00    +0.000 A 
ATOM     10  C   UNL     1      -3.086  -0.761  -3.711  0.00  0.00    +0.002 A 
ATOM     11  C   UNL     1      -2.957  -1.426  -2.502  0.00  0.00    +0.023 A 
ATOM     12  C   UNL     1      -2.777  -0.644  -1.360  0.00  0.00    +0.038 A 
ATOM     13  N   UNL     1      -2.622  -1.037  -0.042  0.00  0.00    -0.284 N 
ATOM     14  C   UNL     1      -2.468   0.017   0.786  0.00  0.00    +0.237 C 
ATOM     15  O   UNL     1      -2.312  -0.027   1.988  0.00  0.00    -0.274 OA
ATOM     16  C   UNL     1      -4.908   1.480   0.681  0.00  0.00    +0.165 C 
ATOM     17  O   UNL     1      -4.979   0.270   0.617  0.00  0.00    -0.292 OA
ATOM     18  C   UNL     1      -6.118   2.271   1.100  0.00  0.00    +0.088 C 
ATOM     19  C   UNL     1      -6.045   3.662   0.461  0.00  0.00    +0.034 C 
ATOM     20  C   UNL     1      -4.728   4.318   0.878  0.00  0.00    +0.083 C 
ATOM     21  H   UNL     1      -2.624  -1.962   0.252  0.00  0.00    +0.155 HD
ENDROOT
BRANCH  19  22
ATOM     22  C   UNL     1      -7.202   4.500   0.941  0.00  0.00    -0.043 A 
ATOM     23  C   UNL     1      -7.356   4.756   2.291  0.00  0.00    +0.007 A 
ATOM     24  C   UNL     1      -8.412   5.529   2.733  0.00  0.00    +0.046 A 
ATOM     25  C   UNL     1      -9.326   6.039   1.822  0.00  0.00    +0.120 A 
ATOM     26  C   UNL     1      -9.173   5.775   0.469  0.00  0.00    +0.046 A 
ATOM     27  C   UNL     1      -8.112   5.007   0.031  0.00  0.00    +0.007 A 
BRANCH  25  28
ATOM     28  O   UNL     1     -10.369   6.795   2.255  0.00  0.00    -0.495 OA
ATOM     29  C   UNL     1     -10.463   7.025   3.662  0.00  0.00    +0.277 C 
ENDBRANCH  25  28
ENDBRANCH  19  22
BRANCH   2  30
ATOM     30  N   UNL     1      -0.078   4.067   0.247  0.00  0.00    -0.329 N 
ATOM     31  H   UNL     1       0.765   3.592   0.172  0.00  0.00    +0.145 HD
ATOM     32  H   UNL     1      -0.082   5.024   0.403  0.00  0.00    +0.145 HD
ENDBRANCH   2  30
BRANCH   1  33
ATOM     33  C   UNL     1      -0.018   1.343   0.056  0.00  0.00    +0.342 C 
ATOM     34  O   UNL     1       0.462   0.933  -0.986  0.00  0.00    -0.245 OA
BRANCH  33  35
ATOM     35  O   UNL     1       0.624   1.131   1.225  0.00  0.00    -0.462 OA
BRANCH  35  37
ATOM     36  C   UNL     1       2.436   0.277   2.576  0.00  0.00    +0.048 C 
ATOM     37  C   UNL     1       1.861   0.419   1.166  0.00  0.00    +0.229 C 
ENDBRANCH  35  37
ENDBRANCH  33  35
ENDBRANCH   1  33
TORSDOF 6
