REMARK  Name = ZINC02544511
REMARK  9 active torsions:
REMARK  status: ('A' for Active; 'I' for Inactive)
REMARK    1  A    between atoms: C_1  and  C_2
REMARK    2  A    between atoms: C_7  and  C_8
REMARK    3  A    between atoms: N_10  and  C_11
REMARK    4  A    between atoms: C_11  and  C_12
REMARK    5  A    between atoms: N_14  and  N_15
REMARK    6  A    between atoms: C_16  and  C_17
REMARK    7  A    between atoms: C_26  and  O_27
REMARK    8  A    between atoms: O_27  and  C_28
REMARK    9  A    between atoms: C_28  and  C_30
REMARK                            x       y       z     vdW  Elec       q    Type
REMARK                         _______ _______ _______ _____ _____    ______ ____
ROOT
ATOM      1  C   UNL     1       8.792  -0.226  -1.412  0.00  0.00    +0.045 A 
ATOM      2  C   UNL     1      10.153   0.243  -1.666  0.00  0.00    -0.006 A 
ATOM      3  C   UNL     1      10.402   1.534  -2.147  0.00  0.00    +0.009 A 
ATOM      4  C   UNL     1      11.686   1.934  -2.371  0.00  0.00    +0.001 A 
ATOM      5  C   UNL     1      12.755   1.075  -2.127  0.00  0.00    +0.001 A 
ATOM      6  C   UNL     1      12.548  -0.187  -1.659  0.00  0.00    +0.008 A 
ATOM      7  C   UNL     1      11.237  -0.632  -1.417  0.00  0.00    -0.017 A 
ATOM      8  C   UNL     1      10.985  -1.928  -0.932  0.00  0.00    +0.012 A 
ATOM      9  C   UNL     1       9.713  -2.349  -0.701  0.00  0.00    +0.047 A 
ATOM     10  C   UNL     1       8.614  -1.522  -0.927  0.00  0.00    +0.141 A 
ENDROOT
BRANCH   1  12
ATOM     11  N   UNL     1       6.434   0.221  -1.414  0.00  0.00    -0.188 NA
ATOM     12  C   UNL     1       7.637   0.649  -1.656  0.00  0.00    +0.142 C 
BRANCH  11  15
ATOM     13  C   UNL     1       4.090   0.633  -1.370  0.00  0.00    +0.249 C 
ATOM     14  O   UNL     1       3.917  -0.464  -0.880  0.00  0.00    -0.272 OA
ATOM     15  N   UNL     1       5.329   1.023  -1.728  0.00  0.00    -0.206 N 
ATOM     16  H   UNL     1       5.473   1.972  -2.266  0.00  0.00    +0.177 HD
BRANCH  13  17
ATOM     17  C   UNL     1       2.919   1.558  -1.577  0.00  0.00    +0.202 C 
BRANCH  17  20
ATOM     18  C   UNL     1       0.511   1.548  -1.204  0.00  0.00    +0.245 C 
ATOM     19  O   UNL     1       0.463   2.669  -1.670  0.00  0.00    -0.270 OA
ATOM     20  N   UNL     1       1.692   0.906  -1.111  0.00  0.00    -0.303 N 
ATOM     21  H   UNL     1       1.736  -0.107  -0.685  0.00  0.00    +0.150 HD
BRANCH  18  28
ATOM     22  C   UNL     1      -1.977   3.025  -1.181  0.00  0.00    +0.044 C 
ATOM     23  C   UNL     1      -1.933   1.590  -0.723  0.00  0.00    -0.038 A 
ATOM     24  C   UNL     1      -3.085   0.968  -0.288  0.00  0.00    +0.004 A 
ATOM     25  C   UNL     1      -3.047  -0.350   0.131  0.00  0.00    +0.000 A 
ATOM     26  C   UNL     1      -1.855  -1.052   0.118  0.00  0.00    +0.001 A 
ATOM     27  C   UNL     1      -0.697  -0.444  -0.319  0.00  0.00    +0.013 A 
ATOM     28  C   UNL     1      -0.728   0.887  -0.739  0.00  0.00    +0.040 A 
ENDBRANCH  18  28
ENDBRANCH  17  20
ENDBRANCH  13  17
ENDBRANCH  11  15
ENDBRANCH   1  12
BRANCH  10  29
ATOM     29  O   UNL     1       7.361  -1.982  -0.677  0.00  0.00    -0.422 OA
BRANCH  29  30
ATOM     30  C   UNL     1       6.697  -2.540  -1.709  0.00  0.00    +0.344 C 
ATOM     31  O   UNL     1       7.183  -2.525  -2.822  0.00  0.00    -0.245 OA
BRANCH  30  32
ATOM     32  C   UNL     1       5.380  -3.169  -1.486  0.00  0.00    +0.059 A 
ATOM     33  C   UNL     1       4.835  -3.217  -0.201  0.00  0.00    +0.016 A 
ATOM     34  C   UNL     1       3.602  -3.801   0.000  0.00  0.00    +0.021 A 
ATOM     35  C   UNL     1       2.909  -4.349  -1.067  0.00  0.00    +0.041 A 
ATOM     36  C   UNL     1       3.448  -4.309  -2.343  0.00  0.00    +0.021 A 
ATOM     37  C   UNL     1       4.677  -3.723  -2.558  0.00  0.00    +0.016 A 
ATOM     38 CL   UNL     1       1.361  -5.088  -0.805  0.00  0.00    -0.084 Cl
ENDBRANCH  30  32
ENDBRANCH  29  30
ENDBRANCH  10  29
TORSDOF 8
