REMARK  Name = ZINC03477722
REMARK  10 active torsions:
REMARK  status: ('A' for Active; 'I' for Inactive)
REMARK    1  A    between atoms: C_1  and  C_2
REMARK    2  A    between atoms: C_2  and  O_3
REMARK    3  A    between atoms: O_3  and  C_4
REMARK    4  A    between atoms: C_4  and  C_6
REMARK    5  A    between atoms: C_7  and  C_30
REMARK    6  A    between atoms: C_8  and  C_27
REMARK    7  A    between atoms: C_10  and  N_11
REMARK    8  A    between atoms: C_12  and  C_14
REMARK    9  A    between atoms: C_14  and  N_15
REMARK   10  A    between atoms: N_15  and  C_16
REMARK                            x       y       z     vdW  Elec       q    Type
REMARK                         _______ _______ _______ _____ _____    ______ ____
ROOT
ATOM      1  N   UNL     1      -0.590  -2.270  -3.987  0.00  0.00    -0.281 N 
ATOM      2  C   UNL     1      -1.115  -2.682  -5.158  0.00  0.00    +0.201 C 
ATOM      3  O   UNL     1      -0.404  -3.201  -5.992  0.00  0.00    -0.278 OA
ATOM      4  H   UNL     1      -1.159  -1.855  -3.320  0.00  0.00    +0.155 HD
ENDROOT
BRANCH   1   9
ATOM      5  C   UNL     1       1.472  -2.079  -2.593  0.00  0.00    +0.091 A 
ATOM      6  C   UNL     1       2.832  -2.359  -2.570  0.00  0.00    -0.015 A 
ATOM      7  C   UNL     1       3.347  -2.962  -3.686  0.00  0.00    +0.079 A 
ATOM      8  S   UNL     1       1.919  -3.123  -4.739  0.00  0.00    -0.068 S 
ATOM      9  C   UNL     1       0.757  -2.439  -3.737  0.00  0.00    +0.087 A 
ATOM     10  C   UNL     1       3.694  -2.016  -1.382  0.00  0.00    +0.046 C 
BRANCH   7  11
ATOM     11  C   UNL     1       4.728  -3.372  -3.949  0.00  0.00    +0.248 C 
ATOM     12  O   UNL     1       5.589  -3.184  -3.109  0.00  0.00    -0.270 OA
ATOM     13  N   UNL     1       5.045  -3.958  -5.120  0.00  0.00    -0.325 N 
ATOM     14  H   UNL     1       4.359  -4.108  -5.789  0.00  0.00    +0.145 HD
ATOM     15  H   UNL     1       5.960  -4.230  -5.294  0.00  0.00    +0.145 HD
ENDBRANCH   7  11
BRANCH   5  16
ATOM     16  C   UNL     1       0.810  -1.434  -1.454  0.00  0.00    +0.342 C 
ATOM     17  O   UNL     1       0.338  -2.112  -0.562  0.00  0.00    -0.245 OA
BRANCH  16  18
ATOM     18  O   UNL     1       0.724  -0.089  -1.397  0.00  0.00    -0.461 OA
BRANCH  18  20
ATOM     19  C   UNL     1       0.066   1.997  -0.370  0.00  0.00    +0.048 C 
ATOM     20  C   UNL     1       0.066   0.471  -0.259  0.00  0.00    +0.229 C 
ENDBRANCH  18  20
ENDBRANCH  16  18
ENDBRANCH   5  16
ENDBRANCH   1   9
BRANCH   2  21
ATOM     21  C   UNL     1      -2.586  -2.498  -5.431  0.00  0.00    +0.016 C 
BRANCH  21  22
ATOM     22  N   UNL     1      -2.906  -3.025  -6.765  0.00  0.00    +0.389 N 
ATOM     23  H   UNL     1      -2.435  -2.473  -7.466  0.00  0.00    -0.084 HD
ATOM     24  H   UNL     1      -2.599  -3.984  -6.830  0.00  0.00    -0.084 HD
BRANCH  22  25
ATOM     25  C   UNL     1      -4.357  -2.959  -6.982  0.00  0.00    -0.040 C 
ATOM     26  C   UNL     1      -4.799  -1.496  -6.992  0.00  0.00    -0.011 C 
ATOM     27  C   UNL     1      -6.266  -1.438  -7.434  0.00  0.00    +0.003 C 
ATOM     28  C   UNL     1      -6.338  -1.804  -8.915  0.00  0.00    +0.035 C 
ATOM     29  C   UNL     1      -5.607  -3.095  -9.177  0.00  0.00    -0.046 A 
ATOM     30  C   UNL     1      -4.694  -3.622  -8.291  0.00  0.00    -0.058 A 
ATOM     31  C   UNL     1      -4.050  -4.814  -8.597  0.00  0.00    +0.002 A 
ATOM     32  C   UNL     1      -4.318  -5.473  -9.779  0.00  0.00    +0.000 A 
ATOM     33  C   UNL     1      -5.237  -4.944 -10.666  0.00  0.00    +0.000 A 
ATOM     34  C   UNL     1      -5.877  -3.762 -10.364  0.00  0.00    +0.004 A 
ENDBRANCH  22  25
ENDBRANCH  21  22
ENDBRANCH   2  21
TORSDOF 8
