REMARK  Name = ZINC15946772
REMARK  12 active torsions:
REMARK  status: ('A' for Active; 'I' for Inactive)
REMARK    1  A    between atoms: C_1  and  C_2
REMARK    2  A    between atoms: C_2  and  O_3
REMARK    3  A    between atoms: O_3  and  C_4
REMARK    4  A    between atoms: C_7  and  N_10
REMARK    5  A    between atoms: C_11  and  C_13
REMARK    6  A    between atoms: C_17  and  N_18
REMARK    7  A    between atoms: C_19  and  C_21
REMARK    8  A    between atoms: C_21  and  N_74
REMARK    9  A    between atoms: C_28  and  C_32
REMARK   10  A    between atoms: C_32  and  C_33
REMARK   11  A    between atoms: C_32  and  C_34
REMARK   12  A    between atoms: C_32  and  C_35
REMARK                            x       y       z     vdW  Elec       q    Type
REMARK                         _______ _______ _______ _____ _____    ______ ____
ROOT
ATOM      1  C   UNL     1       1.517  -0.261  -0.026  0.00  0.00    +0.069 A 
ATOM      2  C   UNL     1       2.433   0.853   0.145  0.00  0.00    -0.023 A 
ATOM      3  C   UNL     1       1.862   2.077   0.121  0.00  0.00    -0.004 A 
ATOM      4  S   UNL     1       0.136   1.766  -0.124  0.00  0.00    -0.077 S 
ATOM      5  C   UNL     1       0.171   0.035  -0.194  0.00  0.00    +0.084 A 
ATOM      6  C   UNL     1       2.550   3.398   0.271  0.00  0.00    +0.046 C 
ATOM      7  C   UNL     1       3.958   3.149   0.832  0.00  0.00    -0.000 C 
ATOM      8  C   UNL     1       4.618   2.026   0.027  0.00  0.00    +0.009 C 
ATOM      9  C   UNL     1       3.936   0.693   0.339  0.00  0.00    +0.037 C 
ENDROOT
BRANCH   1  11
ATOM     10  N   UNL     1       2.060  -2.333   1.136  0.00  0.00    -0.281 N 
ATOM     11  C   UNL     1       1.995  -1.647  -0.022  0.00  0.00    +0.251 C 
ATOM     12  O   UNL     1       2.334  -2.177  -1.064  0.00  0.00    -0.270 OA
ATOM     13  H   UNL     1       1.864  -1.889   1.976  0.00  0.00    +0.155 HD
BRANCH  10  17
ATOM     14  C   UNL     1       3.106  -6.370   1.110  0.00  0.00    +0.121 A 
ATOM     15  C   UNL     1       2.384  -5.833   0.053  0.00  0.00    +0.047 A 
ATOM     16  C   UNL     1       2.038  -4.497   0.061  0.00  0.00    +0.027 A 
ATOM     17  C   UNL     1       2.411  -3.689   1.127  0.00  0.00    +0.034 A 
ATOM     18  C   UNL     1       3.138  -4.226   2.182  0.00  0.00    +0.027 A 
ATOM     19  C   UNL     1       3.479  -5.564   2.175  0.00  0.00    +0.047 A 
BRANCH  14  20
ATOM     20  O   UNL     1       3.447  -7.686   1.101  0.00  0.00    -0.492 OA
BRANCH  20  22
ATOM     21  C   UNL     1       4.480  -9.661   2.034  0.00  0.00    +0.048 C 
ATOM     22  C   UNL     1       4.190  -8.171   2.221  0.00  0.00    +0.225 C 
ENDBRANCH  20  22
ENDBRANCH  14  20
ENDBRANCH  10  17
ENDBRANCH   1  11
BRANCH   5  23
ATOM     23  N   UNL     1      -0.888  -0.841  -0.374  0.00  0.00    -0.281 N 
ATOM     24  C   UNL     1      -2.140  -0.364  -0.521  0.00  0.00    +0.201 C 
ATOM     25  O   UNL     1      -2.340   0.832  -0.496  0.00  0.00    -0.278 OA
ATOM     26  H   UNL     1      -0.728  -1.798  -0.394  0.00  0.00    +0.155 HD
BRANCH  24  27
ATOM     27  C   UNL     1      -3.291  -1.317  -0.716  0.00  0.00    +0.019 C 
BRANCH  27  33
ATOM     28  C   UNL     1      -4.867   0.145   0.399  0.00  0.00    -0.078 C 
ATOM     29  C   UNL     1      -6.088   1.040   0.179  0.00  0.00    -0.019 C 
ATOM     30  C   UNL     1      -7.272   0.179  -0.270  0.00  0.00    -0.004 C 
ATOM     31  C   UNL     1      -6.889  -0.576  -1.546  0.00  0.00    -0.019 C 
ATOM     32  C   UNL     1      -5.644  -1.425  -1.276  0.00  0.00    -0.078 C 
ATOM     33  N   UNL     1      -4.535  -0.535  -0.872  0.00  0.00    +0.385 N 
ATOM     34  H   UNL     1      -4.394   0.174  -1.602  0.00  0.00    -0.081 HD
ENDBRANCH  27  33
ENDBRANCH  24  27
ENDBRANCH   5  23
BRANCH   7  35
ATOM     35  C   UNL     1       4.792   4.426   0.710  0.00  0.00    -0.035 C 
ATOM     36  C   UNL     1       4.122   5.551   1.501  0.00  0.00    +0.011 C 
ATOM     37  C   UNL     1       6.194   4.175   1.270  0.00  0.00    +0.011 C 
ATOM     38  C   UNL     1       4.896   4.829  -0.762  0.00  0.00    +0.011 C 
ENDBRANCH   7  35
TORSDOF 8
