REMARK  Name = ZINC12921415
REMARK  10 active torsions:
REMARK  status: ('A' for Active; 'I' for Inactive)
REMARK    1  A    between atoms: C_1  and  C_2
REMARK    2  A    between atoms: C_2  and  N_3
REMARK    3  A    between atoms: C_7  and  C_32
REMARK    4  A    between atoms: C_8  and  C_31
REMARK    5  A    between atoms: C_12  and  S_13
REMARK    6  A    between atoms: S_13  and  C_14
REMARK    7  A    between atoms: C_14  and  C_15
REMARK    8  A    between atoms: N_17  and  C_18
REMARK    9  A    between atoms: C_21  and  C_27
REMARK   10  A    between atoms: C_28  and  C_30
REMARK                            x       y       z     vdW  Elec       q    Type
REMARK                         _______ _______ _______ _____ _____    ______ ____
ROOT
ATOM      1  C   UNL     1       5.522  -0.553   1.102  0.00  0.00    +0.230 C 
ATOM      2  O   UNL     1       5.037  -0.162   2.143  0.00  0.00    -0.274 OA
ATOM      3  N   UNL     1       6.846  -0.788   1.022  0.00  0.00    -0.255 N 
ATOM      4  H   UNL     1       7.234  -1.101   0.190  0.00  0.00    +0.158 HD
ENDROOT
BRANCH   3   5
ATOM      5  C   UNL     1       7.654  -0.584   2.128  0.00  0.00    +0.206 A 
ATOM      6  C   UNL     1       9.013  -0.779   2.181  0.00  0.00    +0.110 A 
ATOM      7  C   UNL     1       9.412  -0.428   3.567  0.00  0.00    +0.053 A 
ATOM      8  C   UNL     1      10.830  -0.543   3.917  0.00  0.00    +0.070 A 
ATOM      9  N   UNL     1      11.683  -0.942   3.024  0.00  0.00    -0.175 NA
ATOM     10  N   UNL     1      11.332  -1.277   1.719  0.00  0.00    -0.242 N 
ATOM     11  H   UNL     1      12.029  -1.567   1.110  0.00  0.00    +0.192 HD
ATOM     12  C   UNL     1      10.062  -1.215   1.266  0.00  0.00    +0.277 A 
ATOM     13  O   UNL     1       9.797  -1.517   0.116  0.00  0.00    -0.266 OA
ATOM     14  C   UNL     1      11.297  -0.200   5.309  0.00  0.00    +0.068 C 
ATOM     15  C   UNL     1       8.274  -0.064   4.195  0.00  0.00    +0.114 A 
ATOM     16  O   UNL     1       7.245  -0.155   3.333  0.00  0.00    -0.445 OA
ATOM     17  C   UNL     1       8.174   0.381   5.631  0.00  0.00    +0.087 C 
ENDBRANCH   3   5
BRANCH   1  18
ATOM     18  C   UNL     1       4.643  -0.776  -0.102  0.00  0.00    +0.173 C 
BRANCH  18  19
ATOM     19  S   UNL     1       2.925  -0.374   0.321  0.00  0.00    -0.078 S 
BRANCH  19  29
ATOM     20  N   UNL     1       0.688  -0.476  -1.203  0.00  0.00    -0.288 N 
ATOM     21  C   UNL     1      -0.023  -0.695  -2.325  0.00  0.00    +0.263 A 
ATOM     22  O   UNL     1      -1.227  -0.502  -2.340  0.00  0.00    -0.267 OA
ATOM     23  C   UNL     1       0.651  -1.156  -3.499  0.00  0.00    +0.075 A 
ATOM     24  C   UNL     1       0.109  -1.459  -4.812  0.00  0.00    -0.026 A 
ATOM     25  C   UNL     1       0.934  -1.883  -5.780  0.00  0.00    -0.008 A 
ATOM     26  S   UNL     1       2.529  -1.907  -4.983  0.00  0.00    -0.073 S 
ATOM     27  C   UNL     1       2.040  -1.346  -3.372  0.00  0.00    +0.117 A 
ATOM     28  N   UNL     1       2.683  -1.111  -2.234  0.00  0.00    -0.216 NA
ATOM     29  C   UNL     1       2.037  -0.682  -1.169  0.00  0.00    +0.173 A 
ATOM     30  C   UNL     1       0.595  -2.252  -7.201  0.00  0.00    +0.052 C 
ATOM     31  C   UNL     1      -1.365  -1.299  -5.083  0.00  0.00    +0.045 C 
BRANCH  20  33
ATOM     32  C   UNL     1      -0.019   1.526   0.010  0.00  0.00    +0.027 C 
ATOM     33  C   UNL     1       0.002  -0.004   0.002  0.00  0.00    +0.124 C 
ENDBRANCH  20  33
ENDBRANCH  19  29
ENDBRANCH  18  19
ENDBRANCH   1  18
TORSDOF 5
