REMARK  Name = ZINC63279482
REMARK  7 active torsions:
REMARK  status: ('A' for Active; 'I' for Inactive)
REMARK    1  A    between atoms: C_4  and  C_7
REMARK    2  A    between atoms: C_11  and  C_17
REMARK    3  A    between atoms: N_19  and  C_20
REMARK    4  A    between atoms: C_20  and  C_21
REMARK    5  A    between atoms: N_23  and  C_24
REMARK    6  A    between atoms: C_24  and  C_25
REMARK    7  A    between atoms: C_25  and  C_26
REMARK                            x       y       z     vdW  Elec       q    Type
REMARK                         _______ _______ _______ _____ _____    ______ ____
ROOT
ATOM      1  C   UNL     1       4.798  -0.613   4.971  0.00  0.00    +0.244 C 
ATOM      2  O   UNL     1       4.729   0.599   5.033  0.00  0.00    -0.270 OA
ATOM      3  N   UNL     1       5.089  -1.329   6.075  0.00  0.00    -0.303 N 
ATOM      4  H   UNL     1       5.144  -2.296   6.026  0.00  0.00    +0.150 HD
ENDROOT
BRANCH   1   8
ATOM      5  C   UNL     1       3.711  -0.707  -0.038  0.00  0.00    +0.211 C 
ATOM      6  C   UNL     1       4.047  -1.209   1.346  0.00  0.00    +0.014 A 
ATOM      7  C   UNL     1       4.263  -0.562   2.539  0.00  0.00    +0.021 A 
ATOM      8  C   UNL     1       4.565  -1.301   3.687  0.00  0.00    +0.037 A 
ATOM      9  C   UNL     1       4.644  -2.695   3.612  0.00  0.00    +0.015 A 
ATOM     10  C   UNL     1       4.426  -3.334   2.414  0.00  0.00    +0.028 A 
ATOM     11  C   UNL     1       4.126  -2.597   1.268  0.00  0.00    +0.067 A 
ATOM     12  N   UNL     1       3.869  -2.999  -0.035  0.00  0.00    -0.265 N 
ATOM     13  O   UNL     1       3.614  -1.877  -0.859  0.00  0.00    -0.261 OA
ATOM     14  H   UNL     1       3.866  -3.920  -0.340  0.00  0.00    +0.194 HD
BRANCH   5  18
ATOM     15  C   UNL     1      -0.017   1.378   0.010  0.00  0.00    +0.000 A 
ATOM     16  C   UNL     1       1.171   2.086   0.002  0.00  0.00    +0.000 A 
ATOM     17  C   UNL     1       2.377   1.411  -0.013  0.00  0.00    +0.006 A 
ATOM     18  C   UNL     1       2.396   0.029  -0.020  0.00  0.00    -0.012 A 
ATOM     19  C   UNL     1       1.208  -0.679  -0.012  0.00  0.00    +0.006 A 
ATOM     20  C   UNL     1       0.002  -0.004   0.002  0.00  0.00    +0.000 A 
ENDBRANCH   5  18
ENDBRANCH   1   8
BRANCH   3  21
ATOM     21  C   UNL     1       5.321  -0.646   7.351  0.00  0.00    +0.200 C 
BRANCH  21  22
ATOM     22  C   UNL     1       5.624  -1.665   8.418  0.00  0.00    +0.230 C 
ATOM     23  O   UNL     1       5.645  -2.846   8.142  0.00  0.00    -0.274 OA
ATOM     24  N   UNL     1       5.873  -1.265   9.681  0.00  0.00    -0.314 N 
ATOM     25  H   UNL     1       5.857  -0.321   9.903  0.00  0.00    +0.149 HD
BRANCH  24  26
ATOM     26  C   UNL     1       6.168  -2.256  10.719  0.00  0.00    +0.108 C 
BRANCH  26  27
ATOM     27  C   UNL     1       6.410  -1.542  12.051  0.00  0.00    +0.052 C 
BRANCH  27  28
ATOM     28  C   UNL     1       6.714  -2.562  13.119  0.00  0.00    -0.040 C 
ATOM     29  C   UNL     1       7.936  -2.967  13.533  0.00  0.00    -0.001 A 
ATOM     30  C   UNL     1       9.297  -2.595  13.127  0.00  0.00    +0.010 A 
ATOM     31  C   UNL     1      10.348  -3.187  13.738  0.00  0.00    +0.001 A 
ATOM     32  C   UNL     1      10.171  -4.144  14.746  0.00  0.00    +0.002 A 
ATOM     33  C   UNL     1       8.952  -4.538  15.172  0.00  0.00    +0.026 A 
ATOM     34  C   UNL     1       7.776  -3.980  14.600  0.00  0.00    +0.043 A 
ATOM     35  N   UNL     1       6.504  -4.194  14.836  0.00  0.00    -0.380 N 
ATOM     36  C   UNL     1       5.713  -3.334  13.949  0.00  0.00    +0.144 C 
ATOM     37  H   UNL     1       6.146  -4.813  15.491  0.00  0.00    +0.160 HD
ENDBRANCH  27  28
ENDBRANCH  26  27
ENDBRANCH  24  26
ENDBRANCH  21  22
ENDBRANCH   3  21
TORSDOF 7
