REMARK  Name = ZINC38574004
REMARK  9 active torsions:
REMARK  status: ('A' for Active; 'I' for Inactive)
REMARK    1  A    between atoms: C_1  and  C_2
REMARK    2  A    between atoms: C_2  and  C_3
REMARK    3  A    between atoms: C_3  and  N_4
REMARK    4  A    between atoms: C_11  and  O_36
REMARK    5  A    between atoms: C_13  and  C_17
REMARK    6  A    between atoms: N_19  and  N_20
REMARK    7  A    between atoms: C_21  and  C_22
REMARK    8  A    between atoms: C_21  and  C_23
REMARK    9  A    between atoms: C_25  and  O_35
REMARK                            x       y       z     vdW  Elec       q    Type
REMARK                         _______ _______ _______ _____ _____    ______ ____
ROOT
ATOM      1  C   UNL     1       0.755  -4.254  -0.541  0.00  0.00    +0.247 C 
ATOM      2  O   UNL     1       0.006  -5.190  -0.358  0.00  0.00    -0.273 OA
ATOM      3  N   UNL     1       1.062  -3.871  -1.796  0.00  0.00    -0.206 N 
ATOM      4  H   UNL     1       1.716  -3.170  -1.944  0.00  0.00    +0.177 HD
ENDROOT
BRANCH   1  13
ATOM      5  N   UNL     1      -0.598  -3.012   2.094  0.00  0.00    -0.270 N 
ATOM      6  C   UNL     1      -0.590  -4.342   2.525  0.00  0.00    +0.042 A 
ATOM      7  C   UNL     1      -1.717  -4.889   3.124  0.00  0.00    +0.024 A 
ATOM      8  C   UNL     1      -1.703  -6.203   3.547  0.00  0.00    +0.002 A 
ATOM      9  C   UNL     1      -0.569  -6.975   3.375  0.00  0.00    +0.000 A 
ATOM     10  C   UNL     1       0.555  -6.434   2.779  0.00  0.00    +0.008 A 
ATOM     11  C   UNL     1       0.547  -5.120   2.353  0.00  0.00    +0.003 A 
ATOM     12  C   UNL     1       1.770  -4.527   1.703  0.00  0.00    +0.167 C 
ATOM     13  C   UNL     1       1.343  -3.518   0.636  0.00  0.00    +0.195 C 
ATOM     14  C   UNL     1       0.308  -2.581   1.197  0.00  0.00    +0.235 C 
ATOM     15  O   UNL     1       0.294  -1.422   0.841  0.00  0.00    -0.274 OA
BRANCH  12  16
ATOM     16  O   UNL     1       2.538  -5.567   1.095  0.00  0.00    -0.386 OA
ATOM     17  H   UNL     1       2.844  -6.244   1.714  0.00  0.00    +0.210 HD
ENDBRANCH  12  16
BRANCH   5  18
ATOM     18  C   UNL     1      -1.603  -2.084   2.617  0.00  0.00    +0.113 C 
BRANCH  18  20
ATOM     19  C   UNL     1      -3.894  -1.150   2.271  0.00  0.00    +0.005 C 
ATOM     20  C   UNL     1      -2.845  -2.120   1.724  0.00  0.00    +0.016 C 
ENDBRANCH  18  20
ENDBRANCH   5  18
ENDBRANCH   1  13
BRANCH   3  21
ATOM     21  N   UNL     1       0.436  -4.487  -2.889  0.00  0.00    -0.188 NA
ATOM     22  C   UNL     1       0.792  -4.188  -4.082  0.00  0.00    +0.053 C 
ATOM     23  C   UNL     1       0.028  -4.741  -5.257  0.00  0.00    +0.063 C 
BRANCH  22  24
ATOM     24  C   UNL     1       1.975  -3.283  -4.311  0.00  0.00    +0.186 C 
ATOM     25  C   UNL     1       1.447  -1.916  -4.702  0.00  0.00    +0.120 C 
ATOM     26  C   UNL     1       1.863  -1.403  -5.932  0.00  0.00    +0.035 A 
ATOM     27  C   UNL     1       1.419  -0.139  -6.372  0.00  0.00    +0.013 A 
ATOM     28  C   UNL     1       1.840   0.338  -7.575  0.00  0.00    +0.001 A 
ATOM     29  C   UNL     1       2.702  -0.397  -8.383  0.00  0.00    +0.002 A 
ATOM     30  C   UNL     1       3.164  -1.624  -8.011  0.00  0.00    +0.024 A 
ATOM     31  C   UNL     1       2.771  -2.179  -6.782  0.00  0.00    +0.044 A 
ATOM     32  N   UNL     1       3.226  -3.384  -6.418  0.00  0.00    -0.284 N 
ATOM     33  C   UNL     1       2.905  -3.971  -5.284  0.00  0.00    +0.233 C 
ATOM     34  O   UNL     1       3.357  -5.070  -5.019  0.00  0.00    -0.274 OA
ATOM     35  H   UNL     1       3.825  -3.850  -7.023  0.00  0.00    +0.155 HD
BRANCH  25  36
ATOM     36  O   UNL     1       0.619  -1.233  -3.904  0.00  0.00    -0.509 OA
ATOM     37  H   UNL     1       0.349  -0.375  -4.259  0.00  0.00    +0.292 HD
ENDBRANCH  25  36
ENDBRANCH  22  24
ENDBRANCH   3  21
TORSDOF 7
