REMARK  Name = ZINC06147831
REMARK  10 active torsions:
REMARK  status: ('A' for Active; 'I' for Inactive)
REMARK    1  A    between atoms: C_2  and  C_3
REMARK    2  A    between atoms: C_3  and  N_4
REMARK    3  A    between atoms: C_5  and  C_20
REMARK    4  A    between atoms: C_8  and  S_9
REMARK    5  A    between atoms: S_9  and  C_10
REMARK    6  A    between atoms: C_10  and  C_11
REMARK    7  A    between atoms: N_13  and  C_14
REMARK    8  A    between atoms: C_20  and  S_21
REMARK    9  A    between atoms: S_21  and  C_22
REMARK   10  A    between atoms: C_26  and  N_28
REMARK                            x       y       z     vdW  Elec       q    Type
REMARK                         _______ _______ _______ _____ _____    ______ ____
ROOT
ATOM      1  N   UNL     1      -5.384   1.502   0.036  0.00  0.00    -0.301 N 
ATOM      2  C   UNL     1      -6.079   2.680   0.046  0.00  0.00    +0.145 A 
ATOM      3  N   UNL     1      -5.205   3.646   0.048  0.00  0.00    -0.133 NA
ATOM      4  N   UNL     1      -4.014   3.163   0.044  0.00  0.00    -0.122 NA
ATOM      5  C   UNL     1      -4.064   1.851   0.031  0.00  0.00    +0.192 A 
ENDROOT
BRANCH   1   6
ATOM      6  C   UNL     1      -5.941   0.146   0.030  0.00  0.00    +0.152 C 
BRANCH   6   8
ATOM      7  C   UNL     1      -7.298  -0.746   1.853  0.00  0.00    +0.005 C 
ATOM      8  C   UNL     1      -6.124  -0.327   1.449  0.00  0.00    -0.013 C 
ENDBRANCH   6   8
ENDBRANCH   1   6
BRANCH   5   9
ATOM      9  S   UNL     1      -2.689   0.750   0.019  0.00  0.00    -0.077 S 
BRANCH   9  10
ATOM     10  C   UNL     1      -1.330   1.944   0.019  0.00  0.00    +0.173 C 
BRANCH  10  11
ATOM     11  C   UNL     1      -0.014   1.209   0.009  0.00  0.00    +0.224 C 
ATOM     12  O   UNL     1       0.002  -0.004   0.002  0.00  0.00    -0.275 OA
ATOM     13  N   UNL     1       1.143   1.898   0.001  0.00  0.00    -0.312 N 
ATOM     14  H   UNL     1       1.130   2.868   0.007  0.00  0.00    +0.149 HD
BRANCH  13  15
ATOM     15  C   UNL     1       2.422   1.183  -0.015  0.00  0.00    +0.073 C 
ATOM     16  C   UNL     1       2.819   0.817   1.417  0.00  0.00    +0.022 C 
ATOM     17  C   UNL     1       4.155   0.070   1.400  0.00  0.00    +0.002 C 
ATOM     18  C   UNL     1       5.232   0.965   0.785  0.00  0.00    +0.000 C 
ATOM     19  C   UNL     1       4.835   1.332  -0.647  0.00  0.00    +0.002 C 
ATOM     20  C   UNL     1       3.499   2.078  -0.630  0.00  0.00    +0.022 C 
ENDBRANCH  13  15
ENDBRANCH  10  11
ENDBRANCH   9  10
ENDBRANCH   5   9
BRANCH   2  21
ATOM     21  C   UNL     1      -7.579   2.832   0.055  0.00  0.00    +0.153 C 
BRANCH  21  22
ATOM     22  S   UNL     1      -8.170   2.883   1.764  0.00  0.00    -0.078 S 
BRANCH  22  23
ATOM     23  C   UNL     1      -9.901   3.060   1.484  0.00  0.00    +0.192 A 
ATOM     24  N   UNL     1     -10.350   3.118   0.239  0.00  0.00    -0.207 NA
ATOM     25  C   UNL     1     -11.651   3.246  -0.011  0.00  0.00    +0.122 A 
ATOM     26  C   UNL     1     -12.541   3.331   1.056  0.00  0.00    +0.086 A 
ATOM     27  C   UNL     1     -12.031   3.272   2.350  0.00  0.00    +0.122 A 
ATOM     28  N   UNL     1     -10.718   3.138   2.524  0.00  0.00    -0.207 NA
ATOM     29  N   UNL     1     -12.114   3.300  -1.317  0.00  0.00    -0.343 N 
ATOM     30  H   UNL     1     -13.063   3.397  -1.491  0.00  0.00    +0.144 HD
ATOM     31  H   UNL     1     -11.488   3.241  -2.056  0.00  0.00    +0.144 HD
BRANCH  27  32
ATOM     32  N   UNL     1     -12.880   3.352   3.443  0.00  0.00    -0.343 N 
ATOM     33  H   UNL     1     -12.518   3.310   4.342  0.00  0.00    +0.144 HD
ATOM     34  H   UNL     1     -13.835   3.450   3.309  0.00  0.00    +0.144 HD
ENDBRANCH  27  32
ENDBRANCH  22  23
ENDBRANCH  21  22
ENDBRANCH   2  21
TORSDOF 10
