REMARK  Name = ZINC39029979
REMARK  11 active torsions:
REMARK  status: ('A' for Active; 'I' for Inactive)
REMARK    1  A    between atoms: C_1  and  O_2
REMARK    2  A    between atoms: O_2  and  C_3
REMARK    3  A    between atoms: C_5  and  C_13
REMARK    4  A    between atoms: C_7  and  O_11
REMARK    5  A    between atoms: C_8  and  O_9
REMARK    6  A    between atoms: O_9  and  C_10
REMARK    7  A    between atoms: O_11  and  C_12
REMARK    8  A    between atoms: N_19  and  N_20
REMARK    9  A    between atoms: C_21  and  C_22
REMARK   10  A    between atoms: C_25  and  O_29
REMARK   11  A    between atoms: C_27  and  O_28
REMARK                            x       y       z     vdW  Elec       q    Type
REMARK                         _______ _______ _______ _____ _____    ______ ____
ROOT
ATOM      1  C   UNL     1       2.488   0.353   4.211  0.00  0.00    +0.264 C 
ATOM      2  N   UNL     1       1.719   1.587   4.436  0.00  0.00    -0.189 NA
ATOM      3  N   UNL     1       1.290   1.566   5.593  0.00  0.00    -0.219 N 
ATOM      4  C   UNL     1       1.647   0.448   6.281  0.00  0.00    +0.174 C 
ATOM      5  S   UNL     1       1.214   0.116   7.903  0.00  0.00    -0.015 S 
ATOM      6  N   UNL     1       2.397  -0.363   5.497  0.00  0.00    -0.172 N 
ATOM      7  H   UNL     1       0.752   2.277   5.974  0.00  0.00    +0.176 HD
ENDROOT
BRANCH   1  10
ATOM      8  C   UNL     1       0.673  -0.576   1.029  0.00  0.00    +0.166 A 
ATOM      9  C   UNL     1       1.245   0.171   2.047  0.00  0.00    +0.057 A 
ATOM     10  C   UNL     1       1.867  -0.463   3.107  0.00  0.00    +0.005 A 
ATOM     11  C   UNL     1       1.921  -1.843   3.155  0.00  0.00    +0.057 A 
ATOM     12  C   UNL     1       1.352  -2.598   2.140  0.00  0.00    +0.166 A 
ATOM     13  C   UNL     1       0.721  -1.964   1.077  0.00  0.00    +0.204 A 
BRANCH   8  15
ATOM     14  C   UNL     1       0.051   1.478   0.003  0.00  0.00    +0.277 C 
ATOM     15  O   UNL     1       0.062   0.049  -0.013  0.00  0.00    -0.491 OA
ENDBRANCH   8  15
BRANCH  13  16
ATOM     16  O   UNL     1       0.156  -2.701   0.082  0.00  0.00    -0.488 OA
ATOM     17  C   UNL     1       0.988  -3.036  -1.030  0.00  0.00    +0.277 C 
ENDBRANCH  13  16
BRANCH  12  18
ATOM     18  O   UNL     1       1.406  -3.956   2.189  0.00  0.00    -0.491 OA
ATOM     19  C   UNL     1       2.066  -4.539   3.315  0.00  0.00    +0.277 C 
ENDBRANCH  12  18
ENDBRANCH   1  10
BRANCH   6  20
ATOM     20  N   UNL     1       2.959  -1.603   5.830  0.00  0.00    -0.183 NA
ATOM     21  C   UNL     1       2.879  -2.046   7.049  0.00  0.00    +0.142 C 
BRANCH  21  22
ATOM     22  C   UNL     1       3.573  -3.288   7.428  0.00  0.00    +0.036 A 
ATOM     23  C   UNL     1       3.484  -3.770   8.737  0.00  0.00    +0.016 A 
ATOM     24  C   UNL     1       4.136  -4.932   9.087  0.00  0.00    +0.046 A 
ATOM     25  C   UNL     1       4.882  -5.628   8.143  0.00  0.00    +0.120 A 
ATOM     26  C   UNL     1       4.977  -5.157   6.841  0.00  0.00    +0.091 A 
ATOM     27  C   UNL     1       4.322  -3.994   6.476  0.00  0.00    +0.129 A 
BRANCH  27  28
ATOM     28  O   UNL     1       4.409  -3.536   5.200  0.00  0.00    -0.506 OA
ATOM     29  H   UNL     1       5.152  -2.935   5.048  0.00  0.00    +0.292 HD
ENDBRANCH  27  28
BRANCH  25  30
ATOM     30  O   UNL     1       5.521  -6.773   8.496  0.00  0.00    -0.507 OA
ATOM     31  H   UNL     1       4.990  -7.573   8.377  0.00  0.00    +0.292 HD
ENDBRANCH  25  30
ENDBRANCH  21  22
ENDBRANCH   6  20
TORSDOF 8
