REMARK  Name = ZINC14472844
REMARK  7 active torsions:
REMARK  status: ('A' for Active; 'I' for Inactive)
REMARK    1  A    between atoms: C_1  and  C_2
REMARK    2  A    between atoms: C_5  and  N_9
REMARK    3  A    between atoms: C_6  and  C_8
REMARK    4  A    between atoms: N_9  and  S_10
REMARK    5  A    between atoms: S_10  and  C_13
REMARK    6  A    between atoms: C_26  and  C_29
REMARK    7  A    between atoms: C_31  and  N_36
REMARK                            x       y       z     vdW  Elec       q    Type
REMARK                         _______ _______ _______ _____ _____    ______ ____
ROOT
ATOM      1  C   UNL     1      -3.478   3.975  -0.776  0.00  0.00    +0.109 A 
ATOM      2  C   UNL     1      -3.244   4.839   0.278  0.00  0.00    +0.030 A 
ATOM      3  C   UNL     1      -2.848   6.137   0.023  0.00  0.00    +0.025 A 
ATOM      4  C   UNL     1      -2.696   6.573  -1.287  0.00  0.00    +0.031 A 
ATOM      5  C   UNL     1      -2.931   5.710  -2.347  0.00  0.00    -0.018 A 
ATOM      6  C   UNL     1      -3.325   4.406  -2.077  0.00  0.00    +0.034 A 
ATOM      7  C   UNL     1      -2.776   6.133  -3.773  0.00  0.00    +0.049 C 
ATOM      8  C   UNL     1      -4.116   6.343  -4.437  0.00  0.00    -0.023 C 
ATOM      9  C   UNL     1      -4.055   7.350  -5.273  0.00  0.00    -0.030 C 
ATOM     10  C   UNL     1      -2.661   7.947  -5.286  0.00  0.00    +0.033 C 
ATOM     11  C   UNL     1      -2.061   7.490  -3.923  0.00  0.00    +0.029 C 
ATOM     12  C   UNL     1      -2.564   8.466  -2.855  0.00  0.00    +0.106 C 
ATOM     13  N   UNL     1      -2.303   7.893  -1.530  0.00  0.00    -0.336 N 
ATOM     14  H   UNL     1      -1.869   8.418  -0.838  0.00  0.00    +0.147 HD
ENDROOT
BRANCH  12  15
ATOM     15  C   UNL     1      -1.837   9.779  -2.989  0.00  0.00    -0.007 A 
ATOM     16  C   UNL     1      -0.663   9.849  -3.715  0.00  0.00    +0.039 A 
ATOM     17  C   UNL     1       0.001  11.055  -3.842  0.00  0.00    +0.127 A 
ATOM     18  C   UNL     1      -0.504  12.190  -3.235  0.00  0.00    +0.034 A 
ATOM     19  C   UNL     1      -1.675  12.120  -2.505  0.00  0.00    +0.022 A 
ATOM     20  C   UNL     1      -2.343  10.914  -2.381  0.00  0.00    +0.046 A 
ATOM     21 CL   UNL     1      -3.814  10.826  -1.464  0.00  0.00    -0.083 Cl
BRANCH  17  22
ATOM     22  N   UNL     1       1.255  11.130  -4.623  0.00  0.00    +0.056 N 
ATOM     23  O   UNL     1       1.843  12.191  -4.732  0.00  0.00    -0.126 OA
ATOM     24  O   UNL     1       1.700  10.130  -5.158  0.00  0.00    -0.126 OA
ENDBRANCH  17  22
ENDBRANCH  12  15
BRANCH   1  25
ATOM     25  S   UNL     1      -3.980   2.317  -0.455  0.00  0.00    +0.072 S 
ATOM     26  O   UNL     1      -4.668   1.869  -1.615  0.00  0.00    -0.150 OA
ATOM     27  O   UNL     1      -4.579   2.316   0.834  0.00  0.00    -0.150 OA
BRANCH  25  28
ATOM     28  N   UNL     1      -2.604   1.402  -0.338  0.00  0.00    -0.216 N 
ATOM     29  H   UNL     1      -2.459   0.664  -0.950  0.00  0.00    +0.174 HD
BRANCH  28  34
ATOM     30  C   UNL     1       1.259   2.599   3.637  0.00  0.00    +0.044 C 
ATOM     31  C   UNL     1       0.232   2.278   2.582  0.00  0.00    -0.050 A 
ATOM     32  C   UNL     1      -1.114   2.443   2.856  0.00  0.00    +0.005 A 
ATOM     33  C   UNL     1      -2.057   2.150   1.891  0.00  0.00    +0.025 A 
ATOM     34  C   UNL     1      -1.653   1.694   0.642  0.00  0.00    +0.051 A 
ATOM     35  C   UNL     1      -0.301   1.526   0.372  0.00  0.00    -0.028 A 
ATOM     36  C   UNL     1       0.637   1.820   1.342  0.00  0.00    +0.008 A 
ATOM     37  C   UNL     1       0.142   1.027  -0.980  0.00  0.00    +0.046 C 
ENDBRANCH  28  34
ENDBRANCH  25  28
ENDBRANCH   1  25
TORSDOF 5
