REMARK  Name = ZINC26571577
REMARK  13 active torsions:
REMARK  status: ('A' for Active; 'I' for Inactive)
REMARK    1  A    between atoms: C_1  and  C_2
REMARK    2  A    between atoms: C_2  and  C_3
REMARK    3  A    between atoms: C_6  and  O_9
REMARK    4  A    between atoms: O_9  and  C_10
REMARK    5  A    between atoms: C_10  and  C_11
REMARK    6  A    between atoms: N_13  and  C_14
REMARK    7  A    between atoms: C_14  and  C_16
REMARK    8  A    between atoms: C_14  and  N_20
REMARK    9  A    between atoms: N_20  and  C_21
REMARK   10  A    between atoms: C_21  and  N_23
REMARK   11  A    between atoms: N_23  and  C_24
REMARK   12  A    between atoms: C_27  and  N_30
REMARK   13  A    between atoms: C_31  and  C_33
REMARK                            x       y       z     vdW  Elec       q    Type
REMARK                         _______ _______ _______ _____ _____    ______ ____
ROOT
ATOM      1  C   UNL     1      -5.835   7.303  -0.367  0.00  0.00    +0.211 C 
ENDROOT
BRANCH   1   4
ATOM      2  C   UNL     1      -5.202   8.557   1.625  0.00  0.00    +0.252 C 
ATOM      3  O   UNL     1      -4.051   8.529   1.241  0.00  0.00    -0.272 OA
ATOM      4  N   UNL     1      -6.171   7.973   0.892  0.00  0.00    -0.291 N 
ATOM      5  H   UNL     1      -7.214   7.998   1.240  0.00  0.00    +0.151 HD
BRANCH   2   6
ATOM      6  C   UNL     1      -5.547   9.245   2.920  0.00  0.00    +0.324 C 
BRANCH   6   7
ATOM      7  O   UNL     1      -4.360   9.782   3.506  0.00  0.00    -0.483 OA
BRANCH   7  11
ATOM      8  C   UNL     1      -4.778  11.778   7.092  0.00  0.00    -0.047 A 
ATOM      9  C   UNL     1      -3.528  11.654   6.513  0.00  0.00    +0.007 A 
ATOM     10  C   UNL     1      -3.386  10.986   5.312  0.00  0.00    +0.046 A 
ATOM     11  C   UNL     1      -4.497  10.440   4.687  0.00  0.00    +0.121 A 
ATOM     12  C   UNL     1      -5.751  10.571   5.268  0.00  0.00    +0.046 A 
ATOM     13  C   UNL     1      -5.887  11.234   6.471  0.00  0.00    +0.007 A 
BRANCH   8  15
ATOM     14  C   UNL     1      -5.189  13.991   8.132  0.00  0.00    +0.009 C 
ATOM     15  C   UNL     1      -4.930  12.508   8.402  0.00  0.00    +0.032 C 
ENDBRANCH   8  15
ENDBRANCH   7  11
ENDBRANCH   6   7
ENDBRANCH   2   6
ENDBRANCH   1   4
BRANCH   1  16
ATOM     16  C   UNL     1      -6.846   7.703  -1.443  0.00  0.00    +0.225 C 
ATOM     17 CL   UNL     1      -8.501   7.212  -0.924  0.00  0.00    -0.080 Cl
ATOM     18 CL   UNL     1      -6.797   9.490  -1.680  0.00  0.00    -0.080 Cl
ATOM     19 CL   UNL     1      -6.433   6.880  -2.992  0.00  0.00    -0.080 Cl
ENDBRANCH   1  16
BRANCH   1  20
ATOM     20  N   UNL     1      -5.875   5.852  -0.174  0.00  0.00    -0.305 N 
ATOM     21  H   UNL     1      -6.842   5.333  -0.100  0.00  0.00    +0.150 HD
BRANCH  20  22
ATOM     22  C   UNL     1      -4.727   5.151  -0.088  0.00  0.00    +0.136 C 
ATOM     23  S   UNL     1      -3.221   5.958  -0.204  0.00  0.00    -0.019 S 
BRANCH  22  24
ATOM     24  N   UNL     1      -4.764   3.816   0.089  0.00  0.00    -0.297 N 
ATOM     25  H   UNL     1      -5.729   3.305   0.225  0.00  0.00    +0.154 HD
BRANCH  24  26
ATOM     26  C   UNL     1      -3.574   3.077   0.100  0.00  0.00    +0.033 A 
ATOM     27  C   UNL     1      -2.471   3.548   0.801  0.00  0.00    +0.025 A 
ATOM     28  C   UNL     1      -1.298   2.820   0.812  0.00  0.00    +0.025 A 
ATOM     29  C   UNL     1      -1.221   1.617   0.123  0.00  0.00    +0.033 A 
ATOM     30  C   UNL     1      -2.321   1.149  -0.583  0.00  0.00    +0.025 A 
ATOM     31  C   UNL     1      -3.496   1.875  -0.590  0.00  0.00    +0.025 A 
BRANCH  29  32
ATOM     32  N   UNL     1      -0.030   0.879   0.134  0.00  0.00    -0.286 N 
ATOM     33  C   UNL     1       0.733   0.847   1.245  0.00  0.00    +0.214 C 
ATOM     34  O   UNL     1       0.413   1.496   2.218  0.00  0.00    -0.276 OA
ATOM     35  C   UNL     1       1.982   0.005   1.277  0.00  0.00    +0.109 C 
ATOM     36  H   UNL     1       0.281   0.324  -0.763  0.00  0.00    +0.155 HD
ENDBRANCH  29  32
ENDBRANCH  24  26
ENDBRANCH  22  24
ENDBRANCH  20  22
ENDBRANCH   1  20
TORSDOF 11
