REMARK  Name = ZINC16436225
REMARK  15 active torsions:
REMARK  status: ('A' for Active; 'I' for Inactive)
REMARK    1  A    between atoms: C_1  and  C_2
REMARK    2  A    between atoms: C_2  and  C_3
REMARK    3  A    between atoms: C_3  and  C_4
REMARK    4  A    between atoms: C_4  and  N_5
REMARK    5  A    between atoms: N_5  and  C_6
REMARK    6  A    between atoms: C_6  and  C_7
REMARK    7  A    between atoms: N_9  and  C_10
REMARK    8  A    between atoms: C_12  and  C_23
REMARK    9  A    between atoms: N_14  and  C_15
REMARK   10  A    between atoms: C_18  and  C_22
REMARK   11  A    between atoms: C_20  and  C_21
REMARK   12  A    between atoms: C_23  and  C_24
REMARK   13  A    between atoms: C_23  and  C_25
REMARK   14  A    between atoms: C_23  and  C_26
REMARK   15  A    between atoms: N_29  and  C_30
REMARK                            x       y       z     vdW  Elec       q    Type
REMARK                         _______ _______ _______ _____ _____    ______ ____
ROOT
ATOM      1  C   UNL     1      -1.127  -0.750  -0.012  0.00  0.00    +0.236 C 
ATOM      2  O   UNL     1      -2.144  -0.120   0.187  0.00  0.00    -0.274 OA
ATOM      3  N   UNL     1       0.042  -0.104  -0.191  0.00  0.00    -0.269 N 
ATOM      4  H   UNL     1       0.856  -0.609  -0.350  0.00  0.00    +0.156 HD
ENDROOT
BRANCH   3   5
ATOM      5  C   UNL     1       0.083   1.289  -0.148  0.00  0.00    +0.129 A 
ATOM      6  C   UNL     1      -0.988   2.123  -0.046  0.00  0.00    +0.069 A 
ATOM      7  C   UNL     1      -0.509   3.436  -0.032  0.00  0.00    +0.071 A 
ATOM      8  N   UNL     1       0.796   3.403  -0.132  0.00  0.00    -0.169 NA
ATOM      9  N   UNL     1       1.200   2.064  -0.206  0.00  0.00    -0.218 N 
BRANCH   9  10
ATOM     10  C   UNL     1       2.519   1.605  -0.321  0.00  0.00    +0.070 A 
ATOM     11  C   UNL     1       2.988   0.614   0.532  0.00  0.00    +0.028 A 
ATOM     12  C   UNL     1       4.287   0.160   0.412  0.00  0.00    +0.005 A 
ATOM     13  C   UNL     1       5.123   0.698  -0.548  0.00  0.00    -0.050 A 
ATOM     14  C   UNL     1       4.661   1.688  -1.395  0.00  0.00    +0.008 A 
ATOM     15  C   UNL     1       3.362   2.143  -1.284  0.00  0.00    -0.025 A 
ATOM     16  C   UNL     1       2.859   3.223  -2.208  0.00  0.00    +0.046 C 
ATOM     17  C   UNL     1       6.542   0.204  -0.672  0.00  0.00    +0.044 C 
ENDBRANCH   9  10
BRANCH   7  18
ATOM     18  C   UNL     1      -1.353   4.680   0.072  0.00  0.00    +0.006 C 
ATOM     19  C   UNL     1      -1.843   4.844   1.513  0.00  0.00    +0.017 C 
ATOM     20  C   UNL     1      -0.517   5.899  -0.324  0.00  0.00    +0.017 C 
ATOM     21  C   UNL     1      -2.556   4.561  -0.865  0.00  0.00    +0.017 C 
ENDBRANCH   7  18
ENDBRANCH   3   5
BRANCH   1  22
ATOM     22  C   UNL     1      -1.171  -2.256  -0.059  0.00  0.00    +0.205 C 
BRANCH  22  23
ATOM     23  N   UNL     1      -2.545  -2.712   0.163  0.00  0.00    -0.277 N 
ATOM     24  C   UNL     1      -3.377  -2.880  -0.884  0.00  0.00    +0.307 C 
ATOM     25  O   UNL     1      -2.986  -2.653  -2.013  0.00  0.00    -0.252 OA
ATOM     26  N   UNL     1      -4.641  -3.299  -0.680  0.00  0.00    -0.267 N 
ATOM     27  H   UNL     1      -4.980  -3.398   0.224  0.00  0.00    +0.156 HD
BRANCH  26  28
ATOM     28  C   UNL     1      -5.468  -3.592  -1.774  0.00  0.00    +0.070 A 
ATOM     29  C   UNL     1      -4.925  -4.134  -2.929  0.00  0.00    +0.029 A 
ATOM     30  C   UNL     1      -5.741  -4.422  -4.006  0.00  0.00    +0.040 A 
ATOM     31  C   UNL     1      -7.100  -4.170  -3.934  0.00  0.00    +0.126 A 
ATOM     32  C   UNL     1      -7.646  -3.629  -2.783  0.00  0.00    +0.078 A 
ATOM     33  C   UNL     1      -6.834  -3.344  -1.700  0.00  0.00    +0.147 A 
ATOM     34  F   UNL     1      -7.367  -2.821  -0.574  0.00  0.00    -0.203 F 
ATOM     35  F   UNL     1      -7.896  -4.453  -4.989  0.00  0.00    -0.205 F 
ENDBRANCH  26  28
BRANCH  23  36
ATOM     36  C   UNL     1      -3.016  -2.984   1.524  0.00  0.00    +0.110 C 
BRANCH  36  37
ATOM     37  C   UNL     1      -3.614  -1.709   2.122  0.00  0.00    +0.019 C 
BRANCH  37  39
ATOM     38  C   UNL     1      -4.703  -0.719   4.140  0.00  0.00    +0.004 C 
ATOM     39  C   UNL     1      -4.105  -1.994   3.542  0.00  0.00    -0.002 C 
ENDBRANCH  37  39
ENDBRANCH  36  37
ENDBRANCH  23  36
ENDBRANCH  22  23
ENDBRANCH   1  22
TORSDOF 9
