REMARK  Name = ZINC59170710
REMARK  7 active torsions:
REMARK  status: ('A' for Active; 'I' for Inactive)
REMARK    1  A    between atoms: C_1  and  C_2
REMARK    2  A    between atoms: C_9  and  C_23
REMARK    3  A    between atoms: N_11  and  C_12
REMARK    4  A    between atoms: C_15  and  S_18
REMARK    5  A    between atoms: S_18  and  N_21
REMARK    6  A    between atoms: N_25  and  C_26
REMARK    7  A    between atoms: C_30  and  N_32
REMARK                            x       y       z     vdW  Elec       q    Type
REMARK                         _______ _______ _______ _____ _____    ______ ____
ROOT
ATOM      1  C   UNL     1      -1.188   1.317  -0.001  0.00  0.00    +0.044 C 
ATOM      2  C   UNL     1      -0.662  -0.094  -0.061  0.00  0.00    -0.050 A 
ATOM      3  C   UNL     1       0.212  -0.460  -1.074  0.00  0.00    +0.007 A 
ATOM      4  C   UNL     1       0.704  -1.747  -1.148  0.00  0.00    +0.047 A 
ATOM      5  C   UNL     1       0.324  -2.687  -0.201  0.00  0.00    +0.137 A 
ATOM      6  C   UNL     1      -0.560  -2.312   0.829  0.00  0.00    +0.018 A 
ATOM      7  C   UNL     1      -1.045  -1.000   0.887  0.00  0.00    +0.015 A 
ATOM      8  C   UNL     1      -0.953  -3.303   1.833  0.00  0.00    +0.030 A 
ATOM      9  C   UNL     1      -0.227  -4.486   1.881  0.00  0.00    +0.098 A 
ATOM     10  C   UNL     1       0.876  -4.638   0.911  0.00  0.00    +0.212 A 
ATOM     11  N   UNL     1       1.909  -5.409   1.175  0.00  0.00    -0.325 N 
ATOM     12  O   UNL     1       0.793  -3.957  -0.260  0.00  0.00    -0.439 OA
ATOM     13  H   UNL     1       2.046  -5.745   2.074  0.00  0.00    +0.169 HD
ENDROOT
BRANCH  11  14
ATOM     14  C   UNL     1       2.789  -5.735   0.181  0.00  0.00    +0.042 A 
ATOM     15  C   UNL     1       2.317  -6.127  -1.074  0.00  0.00    +0.027 A 
ATOM     16  C   UNL     1       3.211  -6.455  -2.072  0.00  0.00    +0.030 A 
ATOM     17  C   UNL     1       4.573  -6.398  -1.832  0.00  0.00    +0.105 A 
ATOM     18  C   UNL     1       5.048  -6.010  -0.591  0.00  0.00    +0.030 A 
ATOM     19  C   UNL     1       4.166  -5.673   0.414  0.00  0.00    +0.027 A 
BRANCH  17  20
ATOM     20  S   UNL     1       5.707  -6.820  -3.112  0.00  0.00    +0.056 S 
ATOM     21  O   UNL     1       6.915  -7.211  -2.472  0.00  0.00    -0.153 OA
ATOM     22  O   UNL     1       5.009  -7.673  -4.008  0.00  0.00    -0.153 OA
BRANCH  20  23
ATOM     23  N   UNL     1       6.043  -5.430  -3.947  0.00  0.00    -0.204 NA
ATOM     24  H   UNL     1       6.907  -5.316  -4.372  0.00  0.00    +0.144 HD
ATOM     25  H   UNL     1       5.375  -4.729  -4.011  0.00  0.00    +0.144 HD
ENDBRANCH  20  23
ENDBRANCH  17  20
ENDBRANCH  11  14
BRANCH   9  26
ATOM     26  C   UNL     1      -0.544  -5.543   2.856  0.00  0.00    +0.253 C 
ATOM     27  O   UNL     1      -1.379  -5.346   3.717  0.00  0.00    -0.270 OA
ATOM     28  N   UNL     1       0.092  -6.730   2.793  0.00  0.00    -0.281 N 
ATOM     29  H   UNL     1       0.782  -6.876   2.127  0.00  0.00    +0.155 HD
BRANCH  28  30
ATOM     30  C   UNL     1      -0.243  -7.751   3.689  0.00  0.00    +0.036 A 
ATOM     31  C   UNL     1      -0.695  -7.437   4.964  0.00  0.00    +0.023 A 
ATOM     32  C   UNL     1      -1.025  -8.447   5.846  0.00  0.00    +0.004 A 
ATOM     33  C   UNL     1      -0.906  -9.770   5.460  0.00  0.00    +0.033 A 
ATOM     34  C   UNL     1      -0.456 -10.086   4.191  0.00  0.00    +0.128 A 
ATOM     35  C   UNL     1      -0.129  -9.080   3.303  0.00  0.00    +0.056 A 
BRANCH  34  36
ATOM     36  N   UNL     1      -0.330 -11.503   3.783  0.00  0.00    +0.056 N 
ATOM     37  O   UNL     1      -0.620 -12.383   4.559  0.00  0.00    -0.126 OA
ATOM     38  O   UNL     1       0.063 -11.780   2.674  0.00  0.00    -0.126 OA
ENDBRANCH  34  36
ENDBRANCH  28  30
ENDBRANCH   9  26
TORSDOF 6
