REMARK  Name = ZINC35852140
REMARK  7 active torsions:
REMARK  status: ('A' for Active; 'I' for Inactive)
REMARK    1  A    between atoms: C_3  and  N_33
REMARK    2  A    between atoms: C_6  and  C_7
REMARK    3  A    between atoms: C_7  and  N_8
REMARK    4  A    between atoms: C_18  and  N_21
REMARK    5  A    between atoms: C_22  and  C_24
REMARK    6  A    between atoms: C_24  and  O_25
REMARK    7  A    between atoms: O_25  and  C_26
REMARK                            x       y       z     vdW  Elec       q    Type
REMARK                         _______ _______ _______ _____ _____    ______ ____
ROOT
ATOM      1  N   UNL     1      -1.749  -1.035  -1.328  0.00  0.00    +0.383 N 
ATOM      2  C   UNL     1      -3.110  -1.566  -1.290  0.00  0.00    -0.077 C 
ATOM      3  C   UNL     1      -3.840  -1.159  -2.551  0.00  0.00    +0.000 C 
ATOM      4  C   UNL     1      -3.704  -2.274  -3.604  0.00  0.00    +0.104 C 
ATOM      5  N   UNL     1      -2.346  -2.854  -3.592  0.00  0.00    -0.317 N 
ATOM      6  C   UNL     1      -1.156  -2.038  -3.459  0.00  0.00    +0.088 C 
ATOM      7  C   UNL     1      -0.802  -1.869  -1.963  0.00  0.00    -0.059 C 
ATOM      8  C   UNL     1      -2.204  -4.233  -3.714  0.00  0.00    +0.121 A 
ATOM      9  C   UNL     1      -3.334  -5.031  -3.857  0.00  0.00    +0.045 A 
ATOM     10  C   UNL     1      -3.182  -6.400  -3.977  0.00  0.00    +0.028 A 
ATOM     11  C   UNL     1      -1.893  -6.930  -3.950  0.00  0.00    +0.052 A 
ATOM     12  C   UNL     1      -0.813  -6.073  -3.804  0.00  0.00    +0.136 A 
ATOM     13  N   UNL     1      -0.995  -4.771  -3.697  0.00  0.00    -0.238 NA
ATOM     14  H   UNL     1      -1.768  -0.150  -1.811  0.00  0.00    -0.081 HD
ENDROOT
BRANCH  11  15
ATOM     15  N   UNL     1      -1.692  -8.312  -4.068  0.00  0.00    -0.281 N 
ATOM     16  C   UNL     1      -2.506  -9.047  -4.851  0.00  0.00    +0.255 C 
ATOM     17  O   UNL     1      -3.349  -8.502  -5.531  0.00  0.00    -0.272 OA
ATOM     18  H   UNL     1      -0.966  -8.739  -3.587  0.00  0.00    +0.155 HD
BRANCH  16  19
ATOM     19  C   UNL     1      -2.369 -10.548  -4.881  0.00  0.00    +0.324 C 
BRANCH  19  20
ATOM     20  O   UNL     1      -3.337 -11.097  -5.778  0.00  0.00    -0.483 OA
BRANCH  20  21
ATOM     21  C   UNL     1      -3.349 -12.448  -5.922  0.00  0.00    +0.121 A 
ATOM     22  C   UNL     1      -2.451 -13.230  -5.210  0.00  0.00    +0.047 A 
ATOM     23  C   UNL     1      -2.464 -14.604  -5.358  0.00  0.00    +0.023 A 
ATOM     24  C   UNL     1      -3.372 -15.199  -6.216  0.00  0.00    +0.041 A 
ATOM     25  C   UNL     1      -4.267 -14.421  -6.927  0.00  0.00    +0.023 A 
ATOM     26  C   UNL     1      -4.262 -13.048  -6.777  0.00  0.00    +0.047 A 
ATOM     27 CL   UNL     1      -3.386 -16.925  -6.400  0.00  0.00    -0.084 Cl
ENDBRANCH  20  21
ENDBRANCH  19  20
ENDBRANCH  16  19
ENDBRANCH  11  15
BRANCH   1  28
ATOM     28  C   UNL     1      -1.306  -0.798   0.052  0.00  0.00    -0.043 C 
BRANCH  28  34
ATOM     29  C   UNL     1      -0.043   1.363   0.055  0.00  0.00    +0.004 A 
ATOM     30  C   UNL     1       1.141   2.078   0.043  0.00  0.00    +0.033 A 
ATOM     31  C   UNL     1       2.351   1.410   0.014  0.00  0.00    +0.126 A 
ATOM     32  C   UNL     1       2.378   0.028  -0.002  0.00  0.00    +0.033 A 
ATOM     33  C   UNL     1       1.194  -0.686   0.012  0.00  0.00    +0.004 A 
ATOM     34  C   UNL     1      -0.016  -0.019   0.039  0.00  0.00    -0.064 A 
BRANCH  31  35
ATOM     35  N   UNL     1       3.618   2.175  -0.000  0.00  0.00    +0.056 N 
ATOM     36  O   UNL     1       3.594   3.384   0.013  0.00  0.00    -0.126 OA
ATOM     37  O   UNL     1       4.676   1.592  -0.025  0.00  0.00    -0.126 OA
ENDBRANCH  31  35
ENDBRANCH  28  34
ENDBRANCH   1  28
TORSDOF 7
