REMARK  Name = ZINC14250416
REMARK  11 active torsions:
REMARK  status: ('A' for Active; 'I' for Inactive)
REMARK    1  A    between atoms: C_1  and  C_2
REMARK    2  A    between atoms: C_2  and  C_3
REMARK    3  A    between atoms: C_3  and  C_4
REMARK    4  A    between atoms: C_4  and  N_5
REMARK    5  A    between atoms: C_6  and  N_31
REMARK    6  A    between atoms: C_7  and  N_14
REMARK    7  A    between atoms: N_14  and  C_15
REMARK    8  A    between atoms: C_15  and  C_16
REMARK    9  A    between atoms: C_16  and  C_17
REMARK   10  A    between atoms: C_16  and  C_18
REMARK   11  A    between atoms: C_19  and  C_21
REMARK                            x       y       z     vdW  Elec       q    Type
REMARK                         _______ _______ _______ _____ _____    ______ ____
ROOT
ATOM      1  N   UNL     1      -0.189  -2.463   1.198  0.00  0.00    -0.260 N 
ATOM      2  C   UNL     1       0.705  -1.488   1.458  0.00  0.00    +0.250 C 
ATOM      3  O   UNL     1       0.599  -0.404   0.913  0.00  0.00    -0.270 OA
ENDROOT
BRANCH   2   4
ATOM      4  C   UNL     1       1.802  -1.733   2.393  0.00  0.00    +0.052 C 
ATOM      5  C   UNL     1       2.405  -0.694   3.022  0.00  0.00    +0.023 C 
ATOM      6  C   UNL     1       3.517  -0.995   3.937  0.00  0.00    +0.017 A 
ATOM      7  C   UNL     1       3.972  -0.058   4.864  0.00  0.00    +0.011 A 
ATOM      8  C   UNL     1       5.019  -0.384   5.702  0.00  0.00    +0.001 A 
ATOM      9  C   UNL     1       5.614  -1.632   5.625  0.00  0.00    +0.004 A 
ATOM     10  C   UNL     1       5.172  -2.569   4.710  0.00  0.00    +0.046 A 
ATOM     11  C   UNL     1       4.124  -2.260   3.860  0.00  0.00    +0.128 A 
ATOM     12  O   UNL     1       3.667  -3.156   2.951  0.00  0.00    -0.487 OA
ATOM     13  C   UNL     1       2.269  -3.140   2.661  0.00  0.00    +0.269 C 
ENDBRANCH   2   4
BRANCH   1  16
ATOM     14  N   UNL     1      -0.214  -4.937   3.914  0.00  0.00    -0.280 N 
ATOM     15  C   UNL     1      -0.288  -3.728   3.263  0.00  0.00    +0.127 A 
ATOM     16  C   UNL     1      -0.119  -3.688   1.894  0.00  0.00    +0.140 A 
ATOM     17  C   UNL     1       0.120  -4.891   1.204  0.00  0.00    +0.277 A 
ATOM     18  O   UNL     1       0.268  -4.885  -0.006  0.00  0.00    -0.266 OA
ATOM     19  N   UNL     1       0.189  -6.049   1.890  0.00  0.00    -0.273 N 
ATOM     20  H   UNL     1       0.366  -6.903   1.402  0.00  0.00    +0.173 HD
ATOM     21  C   UNL     1       0.021  -6.068   3.224  0.00  0.00    +0.331 A 
ATOM     22  O   UNL     1       0.083  -7.127   3.818  0.00  0.00    -0.246 OA
BRANCH  15  23
ATOM     23  N   UNL     1      -0.528  -2.572   3.968  0.00  0.00    -0.343 N 
ATOM     24  H   UNL     1      -0.651  -1.734   3.497  0.00  0.00    +0.144 HD
ATOM     25  H   UNL     1      -0.574  -2.596   4.937  0.00  0.00    +0.144 HD
ENDBRANCH  15  23
BRANCH  14  26
ATOM     26  C   UNL     1      -0.393  -4.995   5.367  0.00  0.00    +0.128 C 
BRANCH  26  27
ATOM     27  C   UNL     1      -1.874  -5.199   5.691  0.00  0.00    +0.021 C 
BRANCH  27  29
ATOM     28  C   UNL     1      -3.542  -5.463   7.533  0.00  0.00    +0.004 C 
ATOM     29  C   UNL     1      -2.061  -5.259   7.209  0.00  0.00    -0.002 C 
ENDBRANCH  27  29
ENDBRANCH  26  27
ENDBRANCH  14  26
ENDBRANCH   1  16
BRANCH   1  30
ATOM     30  C   UNL     1      -1.233  -2.251   0.193  0.00  0.00    +0.117 C 
BRANCH  30  31
ATOM     31  C   UNL     1      -2.489  -1.700   0.871  0.00  0.00    +0.001 C 
ATOM     32  C   UNL     1      -3.525  -1.335  -0.193  0.00  0.00    +0.009 C 
ATOM     33  C   UNL     1      -3.071  -2.761   1.807  0.00  0.00    +0.009 C 
ENDBRANCH  30  31
ENDBRANCH   1  30
TORSDOF 8
