REMARK  Name = ZINC66926452
REMARK  7 active torsions:
REMARK  status: ('A' for Active; 'I' for Inactive)
REMARK    1  A    between atoms: C_10  and  C_11
REMARK    2  A    between atoms: C_10  and  O_29
REMARK    3  A    between atoms: C_11  and  N_12
REMARK    4  A    between atoms: N_15  and  C_16
REMARK    5  A    between atoms: C_16  and  C_17
REMARK    6  A    between atoms: C_17  and  C_18
REMARK    7  A    between atoms: C_18  and  N_19
REMARK                            x       y       z     vdW  Elec       q    Type
REMARK                         _______ _______ _______ _____ _____    ______ ____
ROOT
ATOM      1  N   UNL     1       4.733   1.477  -0.622  0.00  0.00    -0.296 N 
ATOM      2  C   UNL     1       5.418   2.343  -1.394  0.00  0.00    +0.300 C 
ATOM      3  O   UNL     1       5.985   1.948  -2.395  0.00  0.00    -0.253 OA
ATOM      4  N   UNL     1       5.475   3.647  -1.058  0.00  0.00    -0.299 N 
ATOM      5  H   UNL     1       4.281   1.792   0.177  0.00  0.00    +0.150 HD
ATOM      6  H   UNL     1       5.023   3.962  -0.260  0.00  0.00    +0.150 HD
ENDROOT
BRANCH   1   7
ATOM      7  C   UNL     1       4.671   0.060  -0.987  0.00  0.00    +0.145 C 
BRANCH   7  17
ATOM      8  C   UNL     1       3.635  -4.797  -1.159  0.00  0.00    +0.000 A 
ATOM      9  C   UNL     1       3.604  -3.797  -2.113  0.00  0.00    +0.000 A 
ATOM     10  C   UNL     1       3.643  -2.475  -1.720  0.00  0.00    +0.007 A 
ATOM     11  C   UNL     1       3.714  -2.140  -0.374  0.00  0.00    -0.011 A 
ATOM     12  C   UNL     1       3.749  -3.136   0.575  0.00  0.00    -0.041 A 
ATOM     13  C   UNL     1       3.706  -4.467   0.178  0.00  0.00    +0.004 A 
ATOM     14  C   UNL     1       3.843  -2.847   2.051  0.00  0.00    +0.035 C 
ATOM     15  C   UNL     1       3.451  -1.399   2.340  0.00  0.00    +0.008 C 
ATOM     16  C   UNL     1       4.257  -0.485   1.410  0.00  0.00    +0.041 C 
ATOM     17  C   UNL     1       3.746  -0.677  -0.016  0.00  0.00    +0.107 C 
BRANCH  17  18
ATOM     18  O   UNL     1       2.427  -0.138  -0.121  0.00  0.00    -0.382 OA
ATOM     19  H   UNL     1       2.042  -0.209  -1.006  0.00  0.00    +0.211 HD
ENDBRANCH  17  18
ENDBRANCH   7  17
ENDBRANCH   1   7
BRANCH   4  20
ATOM     20  C   UNL     1       6.220   4.588  -1.898  0.00  0.00    +0.107 C 
BRANCH  20  21
ATOM     21  C   UNL     1       6.127   5.992  -1.297  0.00  0.00    +0.042 C 
BRANCH  21  22
ATOM     22  C   UNL     1       6.905   6.975  -2.175  0.00  0.00    +0.150 C 
BRANCH  22  23
ATOM     23  N   UNL     1       6.815   8.319  -1.599  0.00  0.00    -0.212 N 
ATOM     24  C   UNL     1       7.668   8.862  -0.707  0.00  0.00    +0.351 A 
ATOM     25  O   UNL     1       8.653   8.321  -0.234  0.00  0.00    -0.244 OA
ATOM     26  N   UNL     1       7.239  10.110  -0.430  0.00  0.00    -0.251 N 
ATOM     27  C   UNL     1       7.734  11.085   0.403  0.00  0.00    +0.098 A 
ATOM     28  C   UNL     1       7.114  12.274   0.511  0.00  0.00    +0.018 A 
ATOM     29  C   UNL     1       5.945  12.544  -0.229  0.00  0.00    +0.005 A 
ATOM     30  C   UNL     1       5.438  11.599  -1.058  0.00  0.00    +0.049 A 
ATOM     31  C   UNL     1       6.094  10.347  -1.168  0.00  0.00    +0.162 A 
ATOM     32  N   UNL     1       5.831   9.277  -1.881  0.00  0.00    -0.149 NA
ENDBRANCH  22  23
ENDBRANCH  21  22
ENDBRANCH  20  21
ENDBRANCH   4  20
TORSDOF 7
