REMARK  Name = ZINC20759588
REMARK  7 active torsions:
REMARK  status: ('A' for Active; 'I' for Inactive)
REMARK    1  A    between atoms: C_1  and  C_2
REMARK    2  A    between atoms: C_2  and  C_3
REMARK    3  A    between atoms: C_16  and  C_19
REMARK    4  A    between atoms: N_25  and  C_28
REMARK    5  A    between atoms: C_28  and  C_29
REMARK    6  A    between atoms: C_32  and  O_35
REMARK    7  A    between atoms: O_35  and  C_36
REMARK                            x       y       z     vdW  Elec       q    Type
REMARK                         _______ _______ _______ _____ _____    ______ ____
ROOT
ATOM      1  C   UNL     1       4.190  -0.152   0.087  0.00  0.00    +0.073 A 
ATOM      2  C   UNL     1       5.003  -0.748  -0.893  0.00  0.00    +0.260 A 
ATOM      3  N   UNL     1       6.329  -0.507  -0.894  0.00  0.00    -0.275 N 
ATOM      4  H   UNL     1       6.893  -0.917  -1.569  0.00  0.00    +0.173 HD
ATOM      5  C   UNL     1       6.877   0.297   0.035  0.00  0.00    +0.332 A 
ATOM      6  O   UNL     1       8.075   0.503   0.018  0.00  0.00    -0.246 OA
ATOM      7  N   UNL     1       6.118   0.879   0.982  0.00  0.00    -0.256 N 
ATOM      8  C   UNL     1       4.764   0.664   1.016  0.00  0.00    +0.263 A 
ATOM      9  O   UNL     1       4.005   1.253   1.965  0.00  0.00    -0.267 OA
ATOM     10  O   UNL     1       4.512  -1.478  -1.737  0.00  0.00    -0.267 OA
ENDROOT
BRANCH   1  23
ATOM     11  C   UNL     1       0.718  -0.497  -1.257  0.00  0.00    -0.066 C 
ATOM     12  C   UNL     1       0.630  -2.028  -1.329  0.00  0.00    +0.022 C 
ATOM     13  C   UNL     1       1.510  -2.593  -0.242  0.00  0.00    -0.022 A 
ATOM     14  C   UNL     1       1.551  -3.929   0.308  0.00  0.00    +0.003 A 
ATOM     15  C   UNL     1       0.827  -5.094   0.032  0.00  0.00    +0.010 A 
ATOM     16  C   UNL     1       1.141  -6.209   0.769  0.00  0.00    +0.001 A 
ATOM     17  C   UNL     1       2.126  -6.194   1.744  0.00  0.00    +0.002 A 
ATOM     18  C   UNL     1       2.857  -5.056   2.037  0.00  0.00    +0.026 A 
ATOM     19  C   UNL     1       2.561  -3.909   1.305  0.00  0.00    +0.047 A 
ATOM     20  N   UNL     1       3.077  -2.644   1.337  0.00  0.00    -0.359 N 
ATOM     21  H   UNL     1       3.784  -2.345   1.929  0.00  0.00    +0.166 HD
ATOM     22  C   UNL     1       2.444  -1.863   0.409  0.00  0.00    +0.011 A 
ATOM     23  C   UNL     1       2.705  -0.406   0.106  0.00  0.00    +0.018 C 
ATOM     24  N   UNL     1       2.129  -0.090  -1.209  0.00  0.00    +0.390 N 
ATOM     25  H   UNL     1       2.643  -0.580  -1.926  0.00  0.00    -0.084 HD
ATOM     26  H   UNL     1       2.195   0.904  -1.373  0.00  0.00    -0.084 HD
BRANCH  11  28
ATOM     27  C   UNL     1      -0.019   1.526   0.010  0.00  0.00    +0.002 C 
ATOM     28  C   UNL     1       0.002  -0.004   0.002  0.00  0.00    -0.019 C 
ENDBRANCH  11  28
ENDBRANCH   1  23
BRANCH   7  29
ATOM     29  C   UNL     1       6.742   1.751   1.980  0.00  0.00    +0.165 C 
BRANCH  29  30
ATOM     30  C   UNL     1       6.753   3.169   1.472  0.00  0.00    -0.027 A 
ATOM     31  C   UNL     1       7.825   3.629   0.730  0.00  0.00    +0.009 A 
ATOM     32  C   UNL     1       7.837   4.929   0.264  0.00  0.00    +0.046 A 
ATOM     33  C   UNL     1       6.772   5.774   0.540  0.00  0.00    +0.120 A 
ATOM     34  C   UNL     1       5.697   5.310   1.284  0.00  0.00    +0.046 A 
ATOM     35  C   UNL     1       5.687   4.008   1.744  0.00  0.00    +0.009 A 
BRANCH  33  36
ATOM     36  O   UNL     1       6.782   7.053   0.082  0.00  0.00    -0.495 OA
ATOM     37  C   UNL     1       5.652   7.866   0.405  0.00  0.00    +0.277 C 
ENDBRANCH  33  36
ENDBRANCH  29  30
ENDBRANCH   7  29
TORSDOF 5
