REMARK  Name = ZINC21182849
REMARK  7 active torsions:
REMARK  status: ('A' for Active; 'I' for Inactive)
REMARK    1  A    between atoms: C_1  and  O_2
REMARK    2  A    between atoms: O_2  and  C_3
REMARK    3  A    between atoms: C_6  and  C_9
REMARK    4  A    between atoms: C_11  and  S_14
REMARK    5  A    between atoms: S_14  and  C_15
REMARK    6  A    between atoms: C_15  and  C_16
REMARK    7  A    between atoms: N_21  and  C_22
REMARK                            x       y       z     vdW  Elec       q    Type
REMARK                         _______ _______ _______ _____ _____    ______ ____
ROOT
ATOM      1  C   UNL     1      -7.192   1.201   2.099  0.00  0.00    +0.231 C 
ATOM      2  O   UNL     1      -6.796   1.898   3.008  0.00  0.00    -0.274 OA
ATOM      3  N   UNL     1      -6.368   0.892   1.079  0.00  0.00    -0.239 N 
ATOM      4  C   UNL     1      -5.103   1.358   1.069  0.00  0.00    +0.306 C 
ATOM      5  O   UNL     1      -4.707   2.057   1.980  0.00  0.00    -0.252 OA
ATOM      6  N   UNL     1      -4.279   1.049   0.049  0.00  0.00    -0.294 N 
ATOM      7  H   UNL     1      -6.727   0.259   0.254  0.00  0.00    +0.159 HD
ATOM      8  H   UNL     1      -4.638   0.417  -0.776  0.00  0.00    +0.151 HD
ENDROOT
BRANCH   6   9
ATOM      9  C   UNL     1      -2.904   1.556   0.038  0.00  0.00    +0.037 C 
ATOM     10  C   UNL     1      -2.188   1.063  -1.221  0.00  0.00    +0.029 C 
ATOM     11  C   UNL     1      -0.753   1.593  -1.232  0.00  0.00    -0.008 C 
ATOM     12  C   UNL     1      -0.013   1.086   0.008  0.00  0.00    +0.007 C 
ATOM     13  C   UNL     1      -0.729   1.579   1.267  0.00  0.00    -0.008 C 
ATOM     14  C   UNL     1      -2.164   1.050   1.278  0.00  0.00    +0.029 C 
ATOM     15  C   UNL     1      -0.750   3.109   1.275  0.00  0.00    +0.007 C 
ATOM     16  C   UNL     1      -1.490   3.616   0.036  0.00  0.00    -0.008 C 
ATOM     17  C   UNL     1      -0.773   3.123  -1.223  0.00  0.00    +0.007 C 
ATOM     18  C   UNL     1      -2.925   3.086   0.047  0.00  0.00    +0.029 C 
ENDBRANCH   6   9
BRANCH   1  19
ATOM     19  C   UNL     1      -8.606   0.679   2.110  0.00  0.00    +0.173 C 
BRANCH  19  20
ATOM     20  S   UNL     1      -9.453   1.263   3.599  0.00  0.00    -0.077 S 
BRANCH  20  23
ATOM     21  C   UNL     1     -13.114  -0.104   3.600  0.00  0.00    +0.182 A 
ATOM     22  N   UNL     1     -12.111   0.625   4.197  0.00  0.00    -0.201 NA
ATOM     23  C   UNL     1     -11.036   0.526   3.359  0.00  0.00    +0.185 A 
ATOM     24  N   UNL     1     -11.402  -0.219   2.341  0.00  0.00    -0.253 N 
ATOM     25  N   UNL     1     -12.625  -0.588   2.481  0.00  0.00    -0.152 NA
ATOM     26  H   UNL     1     -10.830  -0.538   1.457  0.00  0.00    +0.191 HD
BRANCH  21  30
ATOM     27  C   UNL     1     -17.048  -0.683   5.097  0.00  0.00    +0.120 A 
ATOM     28  C   UNL     1     -16.671  -1.269   3.896  0.00  0.00    +0.046 A 
ATOM     29  C   UNL     1     -15.395  -1.084   3.407  0.00  0.00    +0.015 A 
ATOM     30  C   UNL     1     -14.482  -0.305   4.121  0.00  0.00    +0.021 A 
ATOM     31  C   UNL     1     -14.864   0.278   5.330  0.00  0.00    +0.015 A 
ATOM     32  C   UNL     1     -16.143   0.092   5.810  0.00  0.00    +0.046 A 
BRANCH  27  34
ATOM     33  C   UNL     1     -18.628  -0.236   6.816  0.00  0.00    +0.277 C 
ATOM     34  O   UNL     1     -18.306  -0.868   5.575  0.00  0.00    -0.495 OA
ENDBRANCH  27  34
ENDBRANCH  21  30
ENDBRANCH  20  23
ENDBRANCH  19  20
ENDBRANCH   1  19
TORSDOF 6
