REMARK  Name = ZINC37769928
REMARK  8 active torsions:
REMARK  status: ('A' for Active; 'I' for Inactive)
REMARK    1  A    between atoms: C_1  and  C_2
REMARK    2  A    between atoms: C_2  and  C_4
REMARK    3  A    between atoms: C_2  and  N_20
REMARK    4  A    between atoms: C_4  and  C_5
REMARK    5  A    between atoms: N_7  and  C_8
REMARK    6  A    between atoms: C_9  and  C_16
REMARK    7  A    between atoms: C_16  and  O_18
REMARK    8  A    between atoms: O_18  and  C_19
REMARK                            x       y       z     vdW  Elec       q    Type
REMARK                         _______ _______ _______ _____ _____    ______ ____
ROOT
ATOM      1  C   UNL     1       1.528  -4.074   2.149  0.00  0.00    +0.062 A 
ATOM      2  C   UNL     1       1.766  -4.784   3.336  0.00  0.00    +0.082 A 
ATOM      3  C   UNL     1       1.781  -6.181   3.313  0.00  0.00    +0.032 A 
ATOM      4  C   UNL     1       1.563  -6.852   2.128  0.00  0.00    +0.020 A 
ATOM      5  C   UNL     1       1.329  -6.147   0.958  0.00  0.00    +0.032 A 
ATOM      6  C   UNL     1       1.305  -4.766   0.966  0.00  0.00    +0.041 A 
ATOM      7 BR   UNL     1       0.976  -3.817  -0.636  0.00  0.00    -0.048 Br
ATOM      8 BR   UNL     1       1.583  -8.743   2.100  0.00  0.00    -0.050 Br
ENDROOT
BRANCH   1  11
ATOM      9  C   UNL     1       0.449  -2.016   1.662  0.00  0.00    +0.216 C 
ATOM     10  O   UNL     1      -0.446  -2.626   1.116  0.00  0.00    -0.276 OA
ATOM     11  N   UNL     1       1.511  -2.681   2.159  0.00  0.00    -0.284 N 
ATOM     12  H   UNL     1       2.263  -2.189   2.523  0.00  0.00    +0.155 HD
BRANCH   9  13
ATOM     13  C   UNL     1       0.374  -0.516   1.784  0.00  0.00    +0.080 C 
BRANCH  13  15
ATOM     14  C   UNL     1      -0.941   1.513   1.156  0.00  0.00    -0.014 C 
ATOM     15  C   UNL     1      -0.923  -0.017   1.143  0.00  0.00    -0.070 C 
BRANCH  15  16
ATOM     16  N   UNL     1      -2.072  -0.527   1.902  0.00  0.00    +0.380 N 
ATOM     17  H   UNL     1      -2.927  -0.197   1.480  0.00  0.00    -0.090 HD
ATOM     18  H   UNL     1      -2.060  -1.536   1.894  0.00  0.00    -0.090 HD
ATOM     19  H   UNL     1      -2.019  -0.198   2.855  0.00  0.00    -0.090 HD
ENDBRANCH  15  16
ENDBRANCH  13  15
ENDBRANCH   9  13
ENDBRANCH   1  11
BRANCH   2  20
ATOM     20  C   UNL     1       1.999  -4.061   4.599  0.00  0.00    +0.341 C 
ATOM     21  O   UNL     1       1.887  -2.852   4.636  0.00  0.00    -0.245 OA
BRANCH  20  22
ATOM     22  O   UNL     1       2.335  -4.741   5.712  0.00  0.00    -0.464 OA
ATOM     23  C   UNL     1       2.546  -3.976   6.901  0.00  0.00    +0.280 C 
ENDBRANCH  20  22
ENDBRANCH   2  20
TORSDOF 6
