REMARK  Name = ZINC08725536
REMARK  9 active torsions:
REMARK  status: ('A' for Active; 'I' for Inactive)
REMARK    1  A    between atoms: C_1  and  C_2
REMARK    2  A    between atoms: C_2  and  N_3
REMARK    3  A    between atoms: C_7  and  S_30
REMARK    4  A    between atoms: C_11  and  S_12
REMARK    5  A    between atoms: S_12  and  C_13
REMARK    6  A    between atoms: C_13  and  C_14
REMARK    7  A    between atoms: N_16  and  N_17
REMARK    8  A    between atoms: C_23  and  C_26
REMARK    9  A    between atoms: S_30  and  N_33
REMARK                            x       y       z     vdW  Elec       q    Type
REMARK                         _______ _______ _______ _____ _____    ______ ____
ROOT
ATOM      1  C   UNL     1      -2.482   0.853   0.018  0.00  0.00    +0.174 C 
ENDROOT
BRANCH   1   2
ATOM      2  C   UNL     1      -1.187   1.624   0.017  0.00  0.00    +0.240 C 
ATOM      3  O   UNL     1      -1.204   2.837   0.023  0.00  0.00    -0.273 OA
ATOM      4  N   UNL     1      -0.011   0.966   0.007  0.00  0.00    -0.223 N 
ATOM      5  H   UNL     1       0.002  -0.004   0.002  0.00  0.00    +0.174 HD
BRANCH   4   6
ATOM      6  N   UNL     1       1.193   1.683  -0.000  0.00  0.00    -0.137 N 
ATOM      7  C   UNL     1       2.002   1.817   1.071  0.00  0.00    +0.263 C 
ATOM      8  O   UNL     1       1.833   1.359   2.180  0.00  0.00    -0.271 OA
ATOM      9  C   UNL     1       3.164   2.659   0.596  0.00  0.00    +0.114 C 
ATOM     10  C   UNL     1       4.469   1.881   0.716  0.00  0.00    +0.035 C 
ATOM     11  C   UNL     1       5.628   2.740   0.204  0.00  0.00    +0.006 C 
ATOM     12  C   UNL     1       5.707   4.029   1.024  0.00  0.00    -0.014 C 
ATOM     13  C   UNL     1       4.400   4.811   0.874  0.00  0.00    +0.006 C 
ATOM     14  C   UNL     1       3.236   3.960   1.388  0.00  0.00    +0.035 C 
ATOM     15  C   UNL     1       6.872   4.883   0.522  0.00  0.00    +0.007 C 
ATOM     16  N   UNL     1       2.854   2.931  -0.814  0.00  0.00    -0.284 N 
ATOM     17  C   UNL     1       1.685   2.315  -1.073  0.00  0.00    +0.326 C 
ATOM     18  O   UNL     1       1.137   2.333  -2.157  0.00  0.00    -0.251 OA
ATOM     19  H   UNL     1       3.388   3.449  -1.437  0.00  0.00    +0.151 HD
ENDBRANCH   4   6
ENDBRANCH   1   2
BRANCH   1  20
ATOM     20  S   UNL     1      -3.874   2.010   0.031  0.00  0.00    -0.078 S 
BRANCH  20  29
ATOM     21  N   UNL     1      -6.540   1.218   0.045  0.00  0.00    -0.319 N 
ATOM     22  C   UNL     1      -7.272   0.042   0.036  0.00  0.00    +0.070 A 
ATOM     23  C   UNL     1      -8.629  -0.246   0.041  0.00  0.00    +0.030 A 
ATOM     24  C   UNL     1      -9.052  -1.559   0.036  0.00  0.00    +0.030 A 
ATOM     25  C   UNL     1      -8.130  -2.595   0.027  0.00  0.00    +0.107 A 
ATOM     26  C   UNL     1      -6.779  -2.328   0.022  0.00  0.00    +0.058 A 
ATOM     27  C   UNL     1      -6.334  -1.003   0.027  0.00  0.00    +0.092 A 
ATOM     28  N   UNL     1      -5.100  -0.434   0.024  0.00  0.00    -0.222 NA
ATOM     29  C   UNL     1      -5.218   0.872   0.032  0.00  0.00    +0.170 A 
BRANCH  25  30
ATOM     30  S   UNL     1      -8.691  -4.265   0.021  0.00  0.00    +0.056 S 
ATOM     31  O   UNL     1      -7.637  -5.050   0.563  0.00  0.00    -0.153 OA
ATOM     32  O   UNL     1      -9.998  -4.257   0.578  0.00  0.00    -0.153 OA
BRANCH  30  33
ATOM     33  N   UNL     1      -8.854  -4.721  -1.563  0.00  0.00    -0.204 NA
ATOM     34  H   UNL     1      -8.647  -4.093  -2.272  0.00  0.00    +0.144 HD
ATOM     35  H   UNL     1      -9.156  -5.617  -1.781  0.00  0.00    +0.144 HD
ENDBRANCH  30  33
ENDBRANCH  25  30
BRANCH  21  37
ATOM     36  C   UNL     1      -7.283   3.065  -1.375  0.00  0.00    +0.027 C 
ATOM     37  C   UNL     1      -7.082   2.579   0.062  0.00  0.00    +0.121 C 
ENDBRANCH  21  37
ENDBRANCH  20  29
ENDBRANCH   1  20
TORSDOF 7
