REMARK  Name = ZINC00960185
REMARK  11 active torsions:
REMARK  status: ('A' for Active; 'I' for Inactive)
REMARK    1  A    between atoms: C_1  and  C_2
REMARK    2  A    between atoms: C_7  and  C_8
REMARK    3  A    between atoms: C_11  and  C_24
REMARK    4  A    between atoms: C_15  and  C_17
REMARK    5  A    between atoms: N_26  and  C_27
REMARK    6  A    between atoms: N_26  and  C_32
REMARK    7  A    between atoms: C_27  and  C_28
REMARK    8  A    between atoms: C_28  and  N_29
REMARK    9  A    between atoms: N_29  and  C_30
REMARK   10  A    between atoms: N_29  and  C_31
REMARK   11  A    between atoms: C_32  and  C_33
REMARK                            x       y       z     vdW  Elec       q    Type
REMARK                         _______ _______ _______ _____ _____    ______ ____
ROOT
ATOM      1  C   UNL     1      -0.034  -1.315   3.858  0.00  0.00    +0.249 C 
ATOM      2  O   UNL     1      -0.227  -0.116   3.903  0.00  0.00    -0.270 OA
ATOM      3  N   UNL     1      -0.095  -2.050   4.986  0.00  0.00    -0.269 N 
ATOM      4  C   UNL     1      -0.521  -1.477   6.260  0.00  0.00    +0.174 C 
ATOM      5  C   UNL     1      -1.244  -2.545   7.133  0.00  0.00    +0.103 C 
ATOM      6  S   UNL     1      -0.179  -3.999   6.719  0.00  0.00    -0.131 S 
ATOM      7  C   UNL     1       0.259  -3.482   5.006  0.00  0.00    +0.166 C 
ENDROOT
BRANCH   1  14
ATOM      8  C   UNL     1       2.082  -0.266   2.186  0.00  0.00    +0.044 C 
ATOM      9  C   UNL     1       1.287  -1.471   1.751  0.00  0.00    -0.038 A 
ATOM     10  C   UNL     1       1.568  -2.088   0.550  0.00  0.00    +0.004 A 
ATOM     11  C   UNL     1       0.839  -3.193   0.149  0.00  0.00    +0.000 A 
ATOM     12  C   UNL     1      -0.175  -3.688   0.950  0.00  0.00    +0.001 A 
ATOM     13  C   UNL     1      -0.466  -3.081   2.154  0.00  0.00    +0.013 A 
ATOM     14  C   UNL     1       0.269  -1.968   2.566  0.00  0.00    +0.040 A 
ENDBRANCH   1  14
BRANCH   7  15
ATOM     15  C   UNL     1       1.733  -3.671   4.756  0.00  0.00    -0.016 A 
ATOM     16  C   UNL     1       2.586  -2.583   4.801  0.00  0.00    +0.006 A 
ATOM     17  C   UNL     1       3.938  -2.755   4.572  0.00  0.00    +0.002 A 
ATOM     18  C   UNL     1       4.438  -4.014   4.297  0.00  0.00    +0.020 A 
ATOM     19  C   UNL     1       3.586  -5.102   4.252  0.00  0.00    +0.041 A 
ATOM     20  C   UNL     1       2.233  -4.931   4.488  0.00  0.00    +0.026 A 
ATOM     21 CL   UNL     1       4.213  -6.683   3.908  0.00  0.00    -0.084 Cl
ENDBRANCH   7  15
BRANCH   4  22
ATOM     22  C   UNL     1       0.687  -0.967   7.003  0.00  0.00    +0.237 C 
ATOM     23  O   UNL     1       1.684  -1.654   7.084  0.00  0.00    -0.274 OA
ATOM     24  N   UNL     1       0.660   0.252   7.577  0.00  0.00    -0.297 N 
BRANCH  24  25
ATOM     25  C   UNL     1      -0.578   1.035   7.576  0.00  0.00    +0.089 C 
BRANCH  25  26
ATOM     26  C   UNL     1      -1.472   0.578   8.731  0.00  0.00    -0.060 C 
BRANCH  26  27
ATOM     27  N   UNL     1      -2.753   1.294   8.671  0.00  0.00    +0.377 N 
ATOM     28  C   UNL     1      -3.655   0.771   9.706  0.00  0.00    -0.097 C 
ATOM     29  C   UNL     1      -2.524   2.727   8.900  0.00  0.00    -0.097 C 
ATOM     30  H   UNL     1      -3.171   1.161   7.763  0.00  0.00    -0.083 HD
ENDBRANCH  26  27
ENDBRANCH  25  26
ENDBRANCH  24  25
BRANCH  24  31
ATOM     31  C   UNL     1       1.869   0.793   8.203  0.00  0.00    +0.142 C 
BRANCH  31  32
ATOM     32  C   UNL     1       2.658   1.570   7.181  0.00  0.00    -0.030 A 
ATOM     33  C   UNL     1       3.615   0.931   6.415  0.00  0.00    +0.005 A 
ATOM     34  C   UNL     1       4.339   1.643   5.478  0.00  0.00    +0.000 A 
ATOM     35  C   UNL     1       4.107   2.995   5.307  0.00  0.00    +0.000 A 
ATOM     36  C   UNL     1       3.150   3.635   6.072  0.00  0.00    +0.000 A 
ATOM     37  C   UNL     1       2.422   2.921   7.007  0.00  0.00    +0.005 A 
ENDBRANCH  31  32
ENDBRANCH  24  31
ENDBRANCH   4  22
TORSDOF 8
