REMARK  Name = ZINC40476438
REMARK  9 active torsions:
REMARK  status: ('A' for Active; 'I' for Inactive)
REMARK    1  A    between atoms: C_1  and  C_2
REMARK    2  A    between atoms: C_2  and  C_3
REMARK    3  A    between atoms: C_2  and  C_4
REMARK    4  A    between atoms: C_4  and  S_5
REMARK    5  A    between atoms: S_5  and  C_6
REMARK    6  A    between atoms: C_16  and  C_18
REMARK    7  A    between atoms: C_21  and  N_24
REMARK    8  A    between atoms: C_30  and  C_32
REMARK    9  A    between atoms: C_30  and  C_33
REMARK                            x       y       z     vdW  Elec       q    Type
REMARK                         _______ _______ _______ _____ _____    ______ ____
ROOT
ATOM      1  C   UNL     1      -3.116  -2.791  -0.118  0.00  0.00    +0.171 A 
ATOM      2  N   UNL     1      -4.031  -1.851  -0.004  0.00  0.00    -0.185 NA
ATOM      3  C   UNL     1      -5.337  -2.159   0.022  0.00  0.00    +0.280 A 
ATOM      4  O   UNL     1      -6.175  -1.275   0.125  0.00  0.00    -0.265 OA
ATOM      5  C   UNL     1      -5.738  -3.510  -0.071  0.00  0.00    +0.069 A 
ATOM      6  C   UNL     1      -4.783  -4.470  -0.192  0.00  0.00    +0.111 A 
ATOM      7  N   UNL     1      -3.463  -4.104  -0.219  0.00  0.00    -0.322 N 
ATOM      8  N   UNL     1      -5.141  -5.794  -0.294  0.00  0.00    -0.304 N 
ATOM      9  C   UNL     1      -6.413  -6.147  -0.657  0.00  0.00    +0.017 C 
ATOM     10  C   UNL     1      -7.428  -5.263  -0.558  0.00  0.00    +0.024 C 
ATOM     11  C   UNL     1      -7.194  -3.869  -0.032  0.00  0.00    +0.092 C 
ATOM     12  C   UNL     1      -8.733  -5.613  -0.943  0.00  0.00    +0.162 C 
ATOM     13  O   UNL     1      -9.626  -4.795  -0.836  0.00  0.00    -0.292 OA
ATOM     14  C   UNL     1      -9.047  -6.979  -1.487  0.00  0.00    +0.086 C 
ATOM     15  C   UNL     1      -7.799  -7.541  -2.176  0.00  0.00    -0.023 C 
ATOM     16  C   UNL     1      -6.649  -7.548  -1.166  0.00  0.00    +0.058 C 
ATOM     17  C   UNL     1      -7.429  -6.658  -3.370  0.00  0.00    +0.011 C 
ATOM     18  C   UNL     1      -8.073  -8.969  -2.653  0.00  0.00    +0.011 C 
ATOM     19  H   UNL     1      -4.487  -6.485  -0.106  0.00  0.00    +0.153 HD
ATOM     20  H   UNL     1      -2.774  -4.782  -0.306  0.00  0.00    +0.169 HD
ENDROOT
BRANCH  11  21
ATOM     21  C   UNL     1      -7.684  -3.790   1.391  0.00  0.00    -0.035 A 
ATOM     22  C   UNL     1      -7.107  -4.582   2.366  0.00  0.00    +0.007 A 
ATOM     23  C   UNL     1      -7.557  -4.510   3.671  0.00  0.00    +0.033 A 
ATOM     24  C   UNL     1      -8.582  -3.644   4.002  0.00  0.00    +0.126 A 
ATOM     25  C   UNL     1      -9.158  -2.850   3.027  0.00  0.00    +0.033 A 
ATOM     26  C   UNL     1      -8.706  -2.920   1.723  0.00  0.00    +0.007 A 
BRANCH  24  27
ATOM     27  N   UNL     1      -9.064  -3.566   5.399  0.00  0.00    +0.056 N 
ATOM     28  O   UNL     1      -8.561  -4.261   6.251  0.00  0.00    -0.126 OA
ATOM     29  O   UNL     1      -9.961  -2.809   5.688  0.00  0.00    -0.126 OA
ENDBRANCH  24  27
ENDBRANCH  11  21
BRANCH   1  30
ATOM     30  S   UNL     1      -1.412  -2.341  -0.146  0.00  0.00    -0.087 S 
BRANCH  30  31
ATOM     31  C   UNL     1      -1.433  -0.534   0.013  0.00  0.00    +0.080 C 
BRANCH  31  33
ATOM     32  C   UNL     1      -0.019   1.526   0.010  0.00  0.00    +0.008 C 
ATOM     33  C   UNL     1       0.002  -0.004   0.002  0.00  0.00    -0.007 C 
ATOM     34  C   UNL     1       0.742  -0.511   1.242  0.00  0.00    +0.008 C 
ENDBRANCH  31  33
ENDBRANCH  30  31
ENDBRANCH   1  30
TORSDOF 5
