REMARK  Name = ZINC16733680
REMARK  7 active torsions:
REMARK  status: ('A' for Active; 'I' for Inactive)
REMARK    1  A    between atoms: C_4  and  C_7
REMARK    2  A    between atoms: C_7  and  C_9
REMARK    3  A    between atoms: C_9  and  N_11
REMARK    4  A    between atoms: C_9  and  N_24
REMARK    5  A    between atoms: N_11  and  C_12
REMARK    6  A    between atoms: C_13  and  C_21
REMARK    7  A    between atoms: C_25  and  C_27
REMARK                            x       y       z     vdW  Elec       q    Type
REMARK                         _______ _______ _______ _____ _____    ______ ____
ROOT
ATOM      1  C   UNL     1       2.387   5.440  -0.106  0.00  0.00    +0.232 C 
ENDROOT
BRANCH   1   2
ATOM      2  N   UNL     1       1.290   5.968   0.708  0.00  0.00    -0.286 N 
ATOM      3  C   UNL     1       0.481   6.925   0.210  0.00  0.00    +0.252 C 
ATOM      4  O   UNL     1       0.663   7.349  -0.915  0.00  0.00    -0.270 OA
ATOM      5  H   UNL     1       1.145   5.629   1.606  0.00  0.00    +0.151 HD
BRANCH   3   6
ATOM      6  C   UNL     1      -0.617   7.453   1.025  0.00  0.00    +0.074 A 
ATOM      7  C   UNL     1      -1.552   8.426   0.706  0.00  0.00    +0.021 A 
ATOM      8  C   UNL     1      -2.484   8.735   1.665  0.00  0.00    +0.008 A 
ATOM      9  C   UNL     1      -2.448   8.086   2.858  0.00  0.00    +0.046 A 
ATOM     10  S   UNL     1      -1.104   7.006   2.682  0.00  0.00    -0.092 S 
ENDBRANCH   3   6
ENDBRANCH   1   2
BRANCH   1  11
ATOM     11  C   UNL     1       2.413   3.937   0.000  0.00  0.00    +0.201 C 
ATOM     12  O   UNL     1       3.460   3.361   0.206  0.00  0.00    -0.288 OA
BRANCH  11  16
ATOM     13  C   UNL     1      -1.178   1.718  -0.424  0.00  0.00    +0.000 A 
ATOM     14  C   UNL     1      -0.011   1.075  -0.051  0.00  0.00    +0.001 A 
ATOM     15  C   UNL     1       1.161   1.788   0.088  0.00  0.00    +0.011 A 
ATOM     16  C   UNL     1       1.167   3.167  -0.146  0.00  0.00    +0.021 A 
ATOM     17  C   UNL     1      -0.018   3.812  -0.518  0.00  0.00    +0.011 A 
ATOM     18  C   UNL     1      -1.181   3.084  -0.652  0.00  0.00    +0.001 A 
ENDBRANCH  11  16
ENDBRANCH   1  11
BRANCH   1  19
ATOM     19  N   UNL     1       3.659   5.985   0.376  0.00  0.00    -0.314 N 
ATOM     20  H   UNL     1       4.050   5.651   1.198  0.00  0.00    +0.149 HD
BRANCH  19  21
ATOM     21  C   UNL     1       4.301   6.977  -0.341  0.00  0.00    +0.080 A 
ATOM     22  C   UNL     1       5.498   7.617  -0.047  0.00  0.00    +0.068 A 
ATOM     23  C   UNL     1       5.962   8.633  -0.979  0.00  0.00    -0.023 A 
ATOM     24  C   UNL     1       5.157   8.851  -2.039  0.00  0.00    -0.005 A 
ATOM     25  S   UNL     1       3.805   7.728  -1.821  0.00  0.00    -0.078 S 
ATOM     26  C   UNL     1       5.372   9.833  -3.149  0.00  0.00    +0.043 C 
ATOM     27  C   UNL     1       6.460  10.825  -2.714  0.00  0.00    +0.005 C 
ATOM     28  C   UNL     1       7.644  10.040  -2.143  0.00  0.00    +0.005 C 
ATOM     29  C   UNL     1       7.256   9.418  -0.800  0.00  0.00    +0.037 C 
BRANCH  22  30
ATOM     30  C   UNL     1       6.266   7.279   1.154  0.00  0.00    +0.244 C 
ATOM     31  O   UNL     1       7.111   6.405   1.109  0.00  0.00    -0.270 OA
ATOM     32  N   UNL     1       6.036   7.937   2.308  0.00  0.00    -0.325 N 
ATOM     33  H   UNL     1       5.362   8.633   2.343  0.00  0.00    +0.145 HD
ATOM     34  H   UNL     1       6.544   7.713   3.103  0.00  0.00    +0.145 HD
ENDBRANCH  22  30
ENDBRANCH  19  21
ENDBRANCH   1  19
TORSDOF 7
