REMARK  Name = ZINC34882979
REMARK  14 active torsions:
REMARK  status: ('A' for Active; 'I' for Inactive)
REMARK    1  A    between atoms: C_1  and  C_2
REMARK    2  A    between atoms: C_2  and  C_3
REMARK    3  A    between atoms: C_3  and  C_5
REMARK    4  A    between atoms: C_3  and  C_6
REMARK    5  A    between atoms: C_6  and  N_7
REMARK    6  A    between atoms: N_7  and  C_8
REMARK    7  A    between atoms: C_8  and  C_9
REMARK    8  A    between atoms: N_11  and  C_12
REMARK    9  A    between atoms: N_11  and  C_19
REMARK   10  A    between atoms: C_12  and  C_13
REMARK   11  A    between atoms: C_19  and  C_20
REMARK   12  A    between atoms: C_23  and  C_25
REMARK   13  A    between atoms: C_26  and  C_28
REMARK   14  A    between atoms: C_31  and  N_35
REMARK                            x       y       z     vdW  Elec       q    Type
REMARK                         _______ _______ _______ _____ _____    ______ ____
ROOT
ATOM      1  N   UNL     1      -2.622  -3.257  -0.079  0.00  0.00    -0.288 N 
ATOM      2  C   UNL     1      -3.040  -3.581   1.161  0.00  0.00    +0.248 C 
ATOM      3  O   UNL     1      -4.157  -4.031   1.327  0.00  0.00    -0.270 OA
ENDROOT
BRANCH   2   4
ATOM      4  C   UNL     1      -2.141  -3.389   2.317  0.00  0.00    +0.055 A 
ATOM      5  C   UNL     1      -0.917  -4.057   2.373  0.00  0.00    +0.017 A 
ATOM      6  C   UNL     1      -0.082  -3.873   3.455  0.00  0.00    +0.033 A 
ATOM      7  C   UNL     1      -0.455  -3.028   4.486  0.00  0.00    +0.128 A 
ATOM      8  C   UNL     1      -1.666  -2.362   4.439  0.00  0.00    +0.053 A 
ATOM      9  C   UNL     1      -2.510  -2.532   3.358  0.00  0.00    +0.055 A 
ATOM     10 CL   UNL     1      -4.026  -1.690   3.297  0.00  0.00    -0.083 Cl
BRANCH   7  11
ATOM     11  N   UNL     1       0.447  -2.836   5.644  0.00  0.00    +0.056 N 
ATOM     12  O   UNL     1       1.506  -3.417   5.688  0.00  0.00    -0.126 OA
ATOM     13  O   UNL     1       0.124  -2.099   6.545  0.00  0.00    -0.126 OA
ENDBRANCH   7  11
ENDBRANCH   2   4
BRANCH   1  14
ATOM     14  C   UNL     1      -1.243  -2.812  -0.294  0.00  0.00    +0.112 C 
BRANCH  14  15
ATOM     15  C   UNL     1      -1.138  -1.315   0.003  0.00  0.00    +0.003 C 
ATOM     16  C   UNL     1      -1.978  -0.534  -1.011  0.00  0.00    +0.009 C 
BRANCH  15  18
ATOM     17  C   UNL     1       0.446   0.592   0.317  0.00  0.00    +0.004 C 
ATOM     18  C   UNL     1       0.324  -0.875  -0.101  0.00  0.00    +0.001 C 
ENDBRANCH  15  18
ENDBRANCH  14  15
ENDBRANCH   1  14
BRANCH   1  19
ATOM     19  C   UNL     1      -3.547  -3.350  -1.212  0.00  0.00    +0.204 C 
BRANCH  19  20
ATOM     20  C   UNL     1      -3.463  -4.728  -1.816  0.00  0.00    +0.234 C 
ATOM     21  O   UNL     1      -2.702  -5.550  -1.350  0.00  0.00    -0.274 OA
ATOM     22  N   UNL     1      -4.234  -5.048  -2.875  0.00  0.00    -0.291 N 
BRANCH  22  23
ATOM     23  C   UNL     1      -5.225  -4.092  -3.374  0.00  0.00    +0.143 C 
BRANCH  23  24
ATOM     24  C   UNL     1      -4.617  -3.271  -4.482  0.00  0.00    -0.030 A 
ATOM     25  C   UNL     1      -4.075  -2.030  -4.205  0.00  0.00    +0.005 A 
ATOM     26  C   UNL     1      -3.517  -1.276  -5.221  0.00  0.00    +0.000 A 
ATOM     27  C   UNL     1      -3.502  -1.764  -6.514  0.00  0.00    +0.000 A 
ATOM     28  C   UNL     1      -4.043  -3.006  -6.791  0.00  0.00    +0.000 A 
ATOM     29  C   UNL     1      -4.597  -3.761  -5.774  0.00  0.00    +0.005 A 
ENDBRANCH  23  24
ENDBRANCH  22  23
BRANCH  22  30
ATOM     30  C   UNL     1      -4.080  -6.351  -3.526  0.00  0.00    +0.150 C 
BRANCH  30  31
ATOM     31  C   UNL     1      -5.001  -7.350  -2.874  0.00  0.00    +0.007 A 
ATOM     32  C   UNL     1      -6.280  -7.667  -3.192  0.00  0.00    +0.013 A 
ATOM     33  C   UNL     1      -6.938  -8.627  -2.446  0.00  0.00    +0.011 A 
ATOM     34  C   UNL     1      -6.286  -9.222  -1.418  0.00  0.00    -0.013 A 
ATOM     35  S   UNL     1      -4.688  -8.428  -1.486  0.00  0.00    -0.097 S 
ATOM     36  C   UNL     1      -6.779 -10.283  -0.469  0.00  0.00    +0.051 C 
ENDBRANCH  30  31
ENDBRANCH  22  30
ENDBRANCH  19  20
ENDBRANCH   1  19
TORSDOF 11
