REMARK  Name = ZINC21263079
REMARK  15 active torsions:
REMARK  status: ('A' for Active; 'I' for Inactive)
REMARK    1  A    between atoms: C_1  and  C_2
REMARK    2  A    between atoms: C_2  and  C_32
REMARK    3  A    between atoms: C_4  and  N_10
REMARK    4  A    between atoms: C_6  and  C_8
REMARK    5  A    between atoms: C_6  and  C_9
REMARK    6  A    between atoms: N_10  and  C_11
REMARK    7  A    between atoms: C_11  and  N_13
REMARK    8  A    between atoms: N_13  and  C_14
REMARK    9  A    between atoms: N_13  and  C_25
REMARK   10  A    between atoms: C_14  and  C_15
REMARK   11  A    between atoms: C_18  and  C_21
REMARK   12  A    between atoms: C_21  and  C_22
REMARK   13  A    between atoms: C_21  and  C_23
REMARK   14  A    between atoms: C_21  and  C_24
REMARK   15  A    between atoms: C_25  and  C_26
REMARK                            x       y       z     vdW  Elec       q    Type
REMARK                         _______ _______ _______ _____ _____    ______ ____
ROOT
ATOM      1  N   UNL     1       3.356  -3.151  -4.474  0.00  0.00    -0.306 N 
ENDROOT
BRANCH   1   2
ATOM      2  C   UNL     1       2.687  -4.303  -4.677  0.00  0.00    +0.133 C 
ATOM      3  S   UNL     1       1.077  -4.267  -5.259  0.00  0.00    -0.019 S 
BRANCH   2   4
ATOM      4  N   UNL     1       3.284  -5.484  -4.421  0.00  0.00    -0.324 N 
ATOM      5  H   UNL     1       4.319  -5.507  -4.046  0.00  0.00    +0.148 HD
BRANCH   4   9
ATOM      6  C   UNL     1       2.201  -9.213  -6.500  0.00  0.00    -0.010 C 
ATOM      7  C   UNL     1       2.826  -9.190  -5.100  0.00  0.00    -0.072 C 
ATOM      8  C   UNL     1       3.557  -7.866  -4.890  0.00  0.00    +0.009 C 
ATOM      9  C   UNL     1       2.555  -6.739  -4.641  0.00  0.00    +0.069 C 
ATOM     10  C   UNL     1       1.744  -7.076  -3.390  0.00  0.00    +0.009 C 
ATOM     11  C   UNL     1       0.991  -8.390  -3.585  0.00  0.00    -0.072 C 
ATOM     12  N   UNL     1       1.834  -9.457  -4.080  0.00  0.00    +0.386 N 
ATOM     13  C   UNL     1      -0.211  -8.159  -4.509  0.00  0.00    -0.010 C 
ATOM     14  C   UNL     1       0.433  -8.815  -2.208  0.00  0.00    -0.010 C 
ATOM     15  C   UNL     1       3.882 -10.316  -5.053  0.00  0.00    -0.010 C 
ATOM     16  H   UNL     1       1.119 -10.206  -4.451  0.00  0.00    -0.084 HD
ATOM     17  H   UNL     1       2.331  -9.840  -3.177  0.00  0.00    -0.084 HD
ENDBRANCH   4   9
ENDBRANCH   2   4
ENDBRANCH   1   2
BRANCH   1  18
ATOM     18  C   UNL     1       2.707  -1.867  -4.753  0.00  0.00    +0.142 C 
BRANCH  18  19
ATOM     19  C   UNL     1       2.002  -1.382  -3.512  0.00  0.00    -0.030 A 
ATOM     20  C   UNL     1       2.671  -0.583  -2.604  0.00  0.00    +0.005 A 
ATOM     21  C   UNL     1       2.024  -0.137  -1.467  0.00  0.00    +0.004 A 
ATOM     22  C   UNL     1       0.707  -0.490  -1.238  0.00  0.00    -0.042 A 
ATOM     23  C   UNL     1       0.040  -1.294  -2.143  0.00  0.00    +0.004 A 
ATOM     24  C   UNL     1       0.685  -1.735  -3.283  0.00  0.00    +0.005 A 
BRANCH  22  25
ATOM     25  C   UNL     1       0.002  -0.004   0.002  0.00  0.00    -0.013 C 
ATOM     26  C   UNL     1      -0.019   1.526   0.010  0.00  0.00    +0.015 C 
ATOM     27  C   UNL     1       0.742  -0.511   1.242  0.00  0.00    +0.015 C 
ATOM     28  C   UNL     1      -1.433  -0.534   0.013  0.00  0.00    +0.015 C 
ENDBRANCH  22  25
ENDBRANCH  18  19
ENDBRANCH   1  18
BRANCH   1  29
ATOM     29  C   UNL     1       4.734  -3.182  -3.975  0.00  0.00    +0.138 C 
BRANCH  29  30
ATOM     30  C   UNL     1       4.723  -3.146  -2.446  0.00  0.00    +0.136 C 
ATOM     31  C   UNL     1       6.165  -3.052  -1.900  0.00  0.00    +0.035 C 
ATOM     32  C   UNL     1       6.144  -3.931  -0.630  0.00  0.00    +0.031 C 
ATOM     33  C   UNL     1       4.692  -4.452  -0.558  0.00  0.00    +0.160 C 
ATOM     34  O   UNL     1       4.209  -4.389  -1.918  0.00  0.00    -0.375 OA
ENDBRANCH  29  30
ENDBRANCH   1  29
TORSDOF 8
