REMARK  Name = ZINC03395659
REMARK  8 active torsions:
REMARK  status: ('A' for Active; 'I' for Inactive)
REMARK    1  A    between atoms: C_4  and  C_7
REMARK    2  A    between atoms: C_7  and  S_8
REMARK    3  A    between atoms: S_8  and  C_9
REMARK    4  A    between atoms: C_9  and  C_10
REMARK    5  A    between atoms: C_18  and  C_19
REMARK    6  A    between atoms: N_21  and  C_22
REMARK    7  A    between atoms: C_25  and  S_28
REMARK    8  A    between atoms: S_28  and  N_31
REMARK                            x       y       z     vdW  Elec       q    Type
REMARK                         _______ _______ _______ _____ _____    ______ ____
ROOT
ATOM      1  C   UNL     1       5.324  -4.452   3.163  0.00  0.00    +0.284 C 
ATOM      2  O   UNL     1       4.744  -4.421   2.093  0.00  0.00    -0.266 OA
ATOM      3  N   UNL     1       5.177  -5.515   3.978  0.00  0.00    -0.279 N 
ATOM      4  H   UNL     1       5.691  -5.571   4.799  0.00  0.00    +0.155 HD
ENDROOT
BRANCH   1  13
ATOM      5  C   UNL     1       6.405  -2.211   2.828  0.00  0.00    +0.021 A 
ATOM      6  C   UNL     1       7.310  -1.378   3.619  0.00  0.00    +0.025 A 
ATOM      7  C   UNL     1       7.901  -0.127   3.425  0.00  0.00    +0.012 A 
ATOM      8  C   UNL     1       8.724   0.389   4.386  0.00  0.00    +0.001 A 
ATOM      9  C   UNL     1       8.977  -0.322   5.551  0.00  0.00    +0.004 A 
ATOM     10  C   UNL     1       8.404  -1.557   5.762  0.00  0.00    +0.047 A 
ATOM     11  C   UNL     1       7.562  -2.102   4.799  0.00  0.00    +0.136 A 
ATOM     12  O   UNL     1       6.874  -3.258   4.722  0.00  0.00    -0.450 OA
ATOM     13  C   UNL     1       6.183  -3.330   3.566  0.00  0.00    +0.195 A 
BRANCH   5  14
ATOM     14  C   UNL     1       5.829  -1.890   1.473  0.00  0.00    +0.109 C 
BRANCH  14  15
ATOM     15  S   UNL     1       4.259  -1.004   1.678  0.00  0.00    -0.151 S 
BRANCH  15  16
ATOM     16  C   UNL     1       3.704  -0.696  -0.022  0.00  0.00    +0.104 C 
BRANCH  16  20
ATOM     17  C   UNL     1      -0.016   1.403   0.051  0.00  0.00    +0.000 A 
ATOM     18  C   UNL     1       1.175   2.106   0.037  0.00  0.00    +0.000 A 
ATOM     19  C   UNL     1       2.378   1.427   0.014  0.00  0.00    +0.004 A 
ATOM     20  C   UNL     1       2.392   0.044   0.005  0.00  0.00    -0.038 A 
ATOM     21  C   UNL     1       1.202  -0.659   0.019  0.00  0.00    +0.004 A 
ATOM     22  C   UNL     1      -0.002   0.020   0.041  0.00  0.00    +0.000 A 
ENDBRANCH  16  20
ENDBRANCH  15  16
ENDBRANCH  14  15
ENDBRANCH   5  14
ENDBRANCH   1  13
BRANCH   3  23
ATOM     23  C   UNL     1       4.285  -6.538   3.639  0.00  0.00    +0.034 A 
ATOM     24  C   UNL     1       4.111  -6.898   2.309  0.00  0.00    +0.025 A 
ATOM     25  C   UNL     1       3.230  -7.908   1.979  0.00  0.00    +0.031 A 
ATOM     26  C   UNL     1       2.520  -8.561   2.970  0.00  0.00    +0.113 A 
ATOM     27  C   UNL     1       2.691  -8.204   4.296  0.00  0.00    +0.031 A 
ATOM     28  C   UNL     1       3.575  -7.199   4.633  0.00  0.00    +0.025 A 
BRANCH  26  29
ATOM     29  S   UNL     1       1.396  -9.849   2.545  0.00  0.00    +0.100 S 
ATOM     30  O   UNL     1       0.451  -9.930   3.603  0.00  0.00    -0.146 OA
ATOM     31  O   UNL     1       1.011  -9.622   1.196  0.00  0.00    -0.146 OA
BRANCH  29  32
ATOM     32  N   UNL     1       2.249 -11.268   2.561  0.00  0.00    -0.118 NA
ATOM     33  C   UNL     1       1.655 -12.383   2.281  0.00  0.00    +0.117 C 
ATOM     34  C   UNL     1       2.438 -13.693   2.302  0.00  0.00    +0.073 C 
ATOM     35  C   UNL     1       1.940 -14.496   3.485  0.00  0.00    +0.008 C 
ATOM     36  C   UNL     1       0.738 -15.383   3.156  0.00  0.00    +0.002 C 
ATOM     37  C   UNL     1      -0.306 -14.680   2.287  0.00  0.00    +0.019 C 
ATOM     38  C   UNL     1      -0.577 -13.254   2.715  0.00  0.00    +0.102 C 
ATOM     39  N   UNL     1       0.372 -12.391   1.981  0.00  0.00    -0.331 N 
ATOM     40  H   UNL     1       0.043 -11.822   1.268  0.00  0.00    +0.147 HD
ENDBRANCH  29  32
ENDBRANCH  26  29
ENDBRANCH   3  23
TORSDOF 8
