REMARK  Name = ZINC36663909
REMARK  6 active torsions:
REMARK  status: ('A' for Active; 'I' for Inactive)
REMARK    1  A    between atoms: C_1  and  C_2
REMARK    2  A    between atoms: N_11  and  C_15
REMARK    3  A    between atoms: C_15  and  C_16
REMARK    4  A    between atoms: N_18  and  C_19
REMARK    5  A    between atoms: N_23  and  C_25
REMARK    6  A    between atoms: C_25  and  C_26
REMARK                            x       y       z     vdW  Elec       q    Type
REMARK                         _______ _______ _______ _____ _____    ______ ____
ROOT
ATOM      1  C   UNL     1       1.267   0.606   5.501  0.00  0.00    +0.231 C 
ATOM      2  O   UNL     1       1.635  -0.530   5.291  0.00  0.00    -0.274 OA
ATOM      3  N   UNL     1       1.182   1.065   6.765  0.00  0.00    -0.313 N 
ATOM      4  H   UNL     1       0.888   1.974   6.933  0.00  0.00    +0.149 HD
ENDROOT
BRANCH   3   5
ATOM      5  C   UNL     1       1.535   0.191   7.887  0.00  0.00    +0.055 C 
ATOM      6  C   UNL     1       0.299  -0.607   8.379  0.00  0.00    +0.002 C 
ATOM      7  C   UNL     1       0.636  -0.892   9.858  0.00  0.00    -0.077 C 
ATOM      8  N   UNL     1       1.625   0.115  10.283  0.00  0.00    +0.384 N 
ATOM      9  C   UNL     1       1.895   1.020   9.145  0.00  0.00    -0.056 C 
ATOM     10  H   UNL     1       2.479  -0.344  10.561  0.00  0.00    -0.081 HD
BRANCH   8  11
ATOM     11  C   UNL     1       1.090   0.887  11.413  0.00  0.00    -0.043 C 
BRANCH  11  12
ATOM     12  C   UNL     1       0.946  -0.013  12.612  0.00  0.00    -0.064 A 
ATOM     13  C   UNL     1      -0.233  -0.705  12.820  0.00  0.00    +0.002 A 
ATOM     14  C   UNL     1      -0.365  -1.531  13.920  0.00  0.00    +0.000 A 
ATOM     15  C   UNL     1       0.681  -1.665  14.813  0.00  0.00    +0.000 A 
ATOM     16  C   UNL     1       1.861  -0.974  14.606  0.00  0.00    +0.000 A 
ATOM     17  C   UNL     1       1.994  -0.151  13.503  0.00  0.00    +0.002 A 
ENDBRANCH  11  12
ENDBRANCH   8  11
ENDBRANCH   3   5
BRANCH   1  18
ATOM     18  C   UNL     1       0.904   1.505   4.347  0.00  0.00    +0.213 C 
BRANCH  18  28
ATOM     19  C   UNL     1      -0.019   1.526   0.010  0.00  0.00    +0.010 C 
ATOM     20  C   UNL     1       0.002  -0.004   0.002  0.00  0.00    +0.018 C 
ATOM     21  C   UNL     1      -1.434  -0.533   0.012  0.00  0.00    +0.006 C 
ATOM     22  C   UNL     1      -1.413  -2.063   0.024  0.00  0.00    +0.000 C 
ATOM     23  C   UNL     1      -0.690  -2.554   1.280  0.00  0.00    +0.003 C 
ATOM     24  C   UNL     1       0.749  -2.033   1.276  0.00  0.00    +0.035 C 
ATOM     25  C   UNL     1       0.741  -0.509   1.237  0.00  0.00    +0.115 C 
ATOM     26  C   UNL     1       0.111   0.049   2.493  0.00  0.00    +0.247 C 
ATOM     27  O   UNL     1      -1.023  -0.123   2.884  0.00  0.00    -0.273 OA
ATOM     28  N   UNL     1       1.078   0.778   3.087  0.00  0.00    -0.215 N 
ATOM     29  C   UNL     1       2.217   0.755   2.383  0.00  0.00    +0.310 C 
ATOM     30  O   UNL     1       3.230   1.337   2.717  0.00  0.00    -0.252 OA
ATOM     31  N   UNL     1       2.113   0.013   1.264  0.00  0.00    -0.285 N 
ATOM     32  H   UNL     1       2.808  -0.145   0.606  0.00  0.00    +0.151 HD
ENDBRANCH  18  28
ENDBRANCH   1  18
TORSDOF 5
