REMARK  Name = ZINC64600169
REMARK  5 active torsions:
REMARK  status: ('A' for Active; 'I' for Inactive)
REMARK    1  A    between atoms: N_9  and  C_12
REMARK    2  A    between atoms: C_12  and  C_13
REMARK    3  A    between atoms: N_15  and  C_16
REMARK    4  A    between atoms: C_16  and  C_17
REMARK    5  A    between atoms: C_17  and  C_18
REMARK                            x       y       z     vdW  Elec       q    Type
REMARK                         _______ _______ _______ _____ _____    ______ ____
ROOT
ATOM      1  C   UNL     1       3.131  -4.462  -1.332  0.00  0.00    +0.232 C 
ATOM      2  O   UNL     1       3.250  -3.580  -2.157  0.00  0.00    -0.274 OA
ATOM      3  N   UNL     1       3.351  -5.745  -1.681  0.00  0.00    -0.314 N 
ATOM      4  H   UNL     1       3.256  -6.449  -1.021  0.00  0.00    +0.149 HD
ENDROOT
BRANCH   1   5
ATOM      5  C   UNL     1       2.738  -4.121   0.082  0.00  0.00    +0.224 C 
BRANCH   5  14
ATOM      6  C   UNL     1      -0.017   1.377   0.010  0.00  0.00    +0.001 A 
ATOM      7  C   UNL     1       1.168   2.097   0.002  0.00  0.00    +0.002 A 
ATOM      8  C   UNL     1       2.389   1.449  -0.011  0.00  0.00    +0.025 A 
ATOM      9  C   UNL     1       2.425   0.067  -0.018  0.00  0.00    +0.055 A 
ATOM     10  C   UNL     1       1.222  -0.666  -0.013  0.00  0.00    +0.060 A 
ATOM     11  C   UNL     1       0.002  -0.004   0.002  0.00  0.00    +0.015 A 
ATOM     12  C   UNL     1       1.338  -2.138  -0.030  0.00  0.00    +0.264 C 
ATOM     13  O   UNL     1       0.372  -2.844  -0.246  0.00  0.00    -0.269 OA
ATOM     14  N   UNL     1       2.558  -2.672   0.204  0.00  0.00    -0.208 N 
ATOM     15  N   UNL     1       3.624  -1.900   0.550  0.00  0.00    -0.158 NA
ATOM     16  N   UNL     1       3.609  -0.660  -0.027  0.00  0.00    -0.264 N 
ATOM     17  H   UNL     1       3.710  -1.831   1.553  0.00  0.00    +0.168 HD
ATOM     18  H   UNL     1       4.410  -0.294  -0.434  0.00  0.00    +0.168 HD
ENDBRANCH   5  14
ENDBRANCH   1   5
BRANCH   3  19
ATOM     19  C   UNL     1       3.733  -6.075  -3.056  0.00  0.00    +0.108 C 
BRANCH  19  20
ATOM     20  C   UNL     1       3.921  -7.589  -3.183  0.00  0.00    +0.052 C 
BRANCH  20  21
ATOM     21  C   UNL     1       4.314  -7.929  -4.597  0.00  0.00    -0.040 C 
ATOM     22  C   UNL     1       5.568  -8.102  -5.073  0.00  0.00    +0.000 A 
ATOM     23  C   UNL     1       6.891  -8.028  -4.441  0.00  0.00    +0.030 A 
ATOM     24  C   UNL     1       7.992  -8.256  -5.194  0.00  0.00    +0.042 A 
ATOM     25  C   UNL     1       7.901  -8.559  -6.560  0.00  0.00    +0.022 A 
ATOM     26  C   UNL     1       6.721  -8.645  -7.211  0.00  0.00    +0.027 A 
ATOM     27  C   UNL     1       5.500  -8.425  -6.517  0.00  0.00    +0.043 A 
ATOM     28  N   UNL     1       4.252  -8.449  -6.917  0.00  0.00    -0.380 N 
ATOM     29  C   UNL     1       3.386  -8.152  -5.771  0.00  0.00    +0.144 C 
ATOM     30 CL   UNL     1       9.558  -8.170  -4.449  0.00  0.00    -0.084 Cl
ATOM     31  H   UNL     1       3.951  -8.637  -7.820  0.00  0.00    +0.160 HD
ENDBRANCH  20  21
ENDBRANCH  19  20
ENDBRANCH   3  19
TORSDOF 5
