REMARK  Name = ZINC06149145
REMARK  13 active torsions:
REMARK  status: ('A' for Active; 'I' for Inactive)
REMARK    1  A    between atoms: C_1  and  C_2
REMARK    2  A    between atoms: C_2  and  C_3
REMARK    3  A    between atoms: C_3  and  C_4
REMARK    4  A    between atoms: C_3  and  C_5
REMARK    5  A    between atoms: C_3  and  N_6
REMARK    6  A    between atoms: C_7  and  C_11
REMARK    7  A    between atoms: C_11  and  C_13
REMARK    8  A    between atoms: C_11  and  N_69
REMARK    9  A    between atoms: C_17  and  C_25
REMARK   10  A    between atoms: C_26  and  C_27
REMARK   11  A    between atoms: C_26  and  N_69
REMARK   12  A    between atoms: C_34  and  C_35
REMARK   13  A    between atoms: C_34  and  N_69
REMARK                            x       y       z     vdW  Elec       q    Type
REMARK                         _______ _______ _______ _____ _____    ______ ____
ROOT
ATOM      1  C   UNL     1      -0.492   1.160  -0.637  0.00  0.00    +0.040 C 
ENDROOT
BRANCH   1   2
ATOM      2  C   UNL     1      -0.440   1.255  -2.140  0.00  0.00    +0.011 A 
ATOM      3  C   UNL     1      -1.010   0.286  -2.899  0.00  0.00    +0.017 A 
ATOM      4  C   UNL     1      -0.942   0.409  -4.356  0.00  0.00    -0.001 A 
ATOM      5  C   UNL     1      -1.511  -0.558  -5.191  0.00  0.00    +0.013 A 
ATOM      6  C   UNL     1      -1.431  -0.415  -6.547  0.00  0.00    -0.050 A 
ATOM      7  C   UNL     1      -0.789   0.683  -7.104  0.00  0.00    +0.005 A 
ATOM      8  C   UNL     1      -0.221   1.648  -6.301  0.00  0.00    +0.026 A 
ATOM      9  C   UNL     1      -0.290   1.523  -4.918  0.00  0.00    +0.049 A 
ATOM     10  N   UNL     1       0.269   2.474  -4.091  0.00  0.00    -0.322 N 
ATOM     11  H   UNL     1       0.734   3.263  -4.491  0.00  0.00    +0.169 HD
ATOM     12  C   UNL     1       0.197   2.356  -2.753  0.00  0.00    +0.251 A 
ATOM     13  O   UNL     1       0.698   3.218  -2.053  0.00  0.00    -0.268 OA
ATOM     14  C   UNL     1      -2.045  -1.458  -7.446  0.00  0.00    +0.044 C 
ENDBRANCH   1   2
BRANCH   1  16
ATOM     15  N   UNL     1      -2.506   2.391   0.329  0.00  0.00    -0.225 N 
ATOM     16  C   UNL     1      -1.225   2.354  -0.083  0.00  0.00    +0.143 A 
ATOM     17  N   UNL     1      -0.737   3.558   0.096  0.00  0.00    -0.115 NA
ATOM     18  N   UNL     1      -1.672   4.297   0.586  0.00  0.00    -0.023 NA
ATOM     19  N   UNL     1      -2.741   3.595   0.730  0.00  0.00    -0.043 NA
BRANCH  15  20
ATOM     20  C   UNL     1      -3.454   1.275   0.323  0.00  0.00    +0.061 C 
ATOM     21  C   UNL     1      -3.579   0.719  -1.097  0.00  0.00    +0.036 C 
ATOM     22  C   UNL     1      -2.952   0.174   1.259  0.00  0.00    +0.036 C 
BRANCH  20  24
ATOM     23  C   UNL     1      -5.813   0.600   0.794  0.00  0.00    +0.006 C 
ATOM     24  C   UNL     1      -4.822   1.766   0.800  0.00  0.00    +0.026 C 
ENDBRANCH  20  24
ENDBRANCH  15  20
ENDBRANCH   1  16
BRANCH   1  25
ATOM     25  N   UNL     1       0.886   1.158  -0.103  0.00  0.00    +0.397 N 
ATOM     26  H   UNL     1       1.284   2.099  -0.205  0.00  0.00    -0.079 HD
BRANCH  25  27
ATOM     27  C   UNL     1       1.720   0.200  -0.860  0.00  0.00    -0.041 C 
BRANCH  27  28
ATOM     28  C   UNL     1       3.162   0.399  -0.471  0.00  0.00    -0.064 A 
ATOM     29  C   UNL     1       3.913   1.385  -1.083  0.00  0.00    +0.003 A 
ATOM     30  C   UNL     1       5.234   1.571  -0.723  0.00  0.00    +0.020 A 
ATOM     31  C   UNL     1       5.809   0.763   0.242  0.00  0.00    +0.041 A 
ATOM     32  C   UNL     1       5.058  -0.227   0.850  0.00  0.00    +0.020 A 
ATOM     33  C   UNL     1       3.736  -0.409   0.493  0.00  0.00    +0.003 A 
ATOM     34 CL   UNL     1       7.470   0.993   0.690  0.00  0.00    -0.084 Cl
ENDBRANCH  27  28
ENDBRANCH  25  27
BRANCH  25  35
ATOM     35  C   UNL     1       0.873   0.795   1.329  0.00  0.00    -0.001 C 
BRANCH  35  36
ATOM     36  C   UNL     1       0.492   2.012   2.132  0.00  0.00    +0.089 A 
ATOM     37  C   UNL     1      -0.740   2.301   2.586  0.00  0.00    +0.042 A 
ATOM     38  C   UNL     1      -0.643   3.527   3.284  0.00  0.00    +0.041 A 
ATOM     39  C   UNL     1       0.644   3.914   3.213  0.00  0.00    +0.195 A 
ATOM     40  O   UNL     1       1.328   2.990   2.519  0.00  0.00    -0.470 OA
ENDBRANCH  35  36
ENDBRANCH  25  35
ENDBRANCH   1  25
TORSDOF 9
