REMARK  Name = ZINC08933290
REMARK  11 active torsions:
REMARK  status: ('A' for Active; 'I' for Inactive)
REMARK    1  A    between atoms: C_1  and  C_2
REMARK    2  A    between atoms: C_2  and  N_71
REMARK    3  A    between atoms: C_6  and  C_8
REMARK    4  A    between atoms: C_8  and  N_9
REMARK    5  A    between atoms: C_10  and  C_12
REMARK    6  A    between atoms: C_12  and  N_13
REMARK    7  A    between atoms: N_26  and  C_27
REMARK    8  A    between atoms: C_27  and  C_28
REMARK    9  A    between atoms: C_29  and  C_36
REMARK   10  A    between atoms: C_31  and  C_35
REMARK   11  A    between atoms: C_33  and  C_34
REMARK                            x       y       z     vdW  Elec       q    Type
REMARK                         _______ _______ _______ _____ _____    ______ ____
ROOT
ATOM      1  N   UNL     1       2.147   5.281   0.595  0.00  0.00    -0.219 N 
ATOM      2  C   UNL     1       2.528   5.962   1.694  0.00  0.00    +0.292 A 
ATOM      3  O   UNL     1       2.011   5.727   2.775  0.00  0.00    -0.264 OA
ATOM      4  C   UNL     1       3.532   6.953   1.583  0.00  0.00    +0.119 A 
ATOM      5  C   UNL     1       4.096   7.191   0.330  0.00  0.00    +0.033 A 
ATOM      6  C   UNL     1       3.657   6.448  -0.786  0.00  0.00    +0.143 A 
ATOM      7  N   UNL     1       2.734   5.537  -0.648  0.00  0.00    -0.175 NA
ATOM      8  C   UNL     1       5.093   8.254   0.516  0.00  0.00    +0.009 A 
ATOM      9  C   UNL     1       5.969   8.915  -0.345  0.00  0.00    +0.010 A 
ATOM     10  C   UNL     1       6.799   9.886   0.140  0.00  0.00    +0.001 A 
ATOM     11  C   UNL     1       6.776  10.222   1.487  0.00  0.00    +0.002 A 
ATOM     12  C   UNL     1       5.918   9.583   2.354  0.00  0.00    +0.026 A 
ATOM     13  C   UNL     1       5.064   8.590   1.880  0.00  0.00    +0.051 A 
ATOM     14  N   UNL     1       4.121   7.797   2.499  0.00  0.00    -0.331 N 
ENDROOT
BRANCH   1  15
ATOM     15  C   UNL     1       1.109   4.253   0.705  0.00  0.00    +0.243 C 
BRANCH  15  17
ATOM     16  N   UNL     1      -1.355   4.121   0.535  0.00  0.00    -0.315 N 
ATOM     17  C   UNL     1      -0.243   4.880   0.481  0.00  0.00    +0.235 C 
ATOM     18  O   UNL     1      -0.331   6.068   0.252  0.00  0.00    -0.274 OA
ATOM     19  H   UNL     1      -1.286   3.171   0.718  0.00  0.00    +0.149 HD
BRANCH  16  20
ATOM     20  C   UNL     1      -2.670   4.730   0.317  0.00  0.00    +0.089 C 
BRANCH  20  24
ATOM     21  C   UNL     1      -4.870   2.231  -1.192  0.00  0.00    -0.078 C 
ATOM     22  C   UNL     1      -5.934   3.024  -0.404  0.00  0.00    -0.020 C 
ATOM     23  C   UNL     1      -5.144   4.261   0.100  0.00  0.00    -0.016 C 
ATOM     24  C   UNL     1      -3.750   3.649   0.384  0.00  0.00    -0.051 C 
ATOM     25  N   UNL     1      -3.553   2.668  -0.701  0.00  0.00    +0.382 N 
ATOM     26  H   UNL     1      -3.034   3.110  -1.469  0.00  0.00    -0.081 HD
BRANCH  25  28
ATOM     27  C   UNL     1      -2.696   0.441  -1.302  0.00  0.00    -0.017 C 
ATOM     28  C   UNL     1      -2.779   1.501  -0.202  0.00  0.00    -0.082 C 
ENDBRANCH  25  28
ENDBRANCH  20  24
ENDBRANCH  16  20
ENDBRANCH  15  17
ENDBRANCH   1  15
BRANCH  14  29
ATOM     29  C   UNL     1       3.792   7.845   3.926  0.00  0.00    +0.158 C 
BRANCH  29  30
ATOM     30  C   UNL     1       4.987   7.404   4.732  0.00  0.00    -0.022 A 
ATOM     31  C   UNL     1       5.399   6.085   4.692  0.00  0.00    -0.045 A 
ATOM     32  C   UNL     1       6.498   5.682   5.428  0.00  0.00    +0.007 A 
ATOM     33  C   UNL     1       7.178   6.596   6.211  0.00  0.00    -0.050 A 
ATOM     34  C   UNL     1       6.762   7.913   6.255  0.00  0.00    +0.007 A 
ATOM     35  C   UNL     1       5.667   8.318   5.515  0.00  0.00    -0.045 A 
ATOM     36  C   UNL     1       5.214   9.754   5.563  0.00  0.00    +0.044 C 
ATOM     37  C   UNL     1       8.373   6.155   7.017  0.00  0.00    +0.044 C 
ATOM     38  C   UNL     1       4.654   5.088   3.843  0.00  0.00    +0.044 C 
ENDBRANCH  29  30
ENDBRANCH  14  29
TORSDOF 7
