REMARK  Name = ZINC43259319
REMARK  7 active torsions:
REMARK  status: ('A' for Active; 'I' for Inactive)
REMARK    1  A    between atoms: C_6  and  C_7
REMARK    2  A    between atoms: N_14  and  C_15
REMARK    3  A    between atoms: C_15  and  C_16
REMARK    4  A    between atoms: C_24  and  C_26
REMARK    5  A    between atoms: C_26  and  N_27
REMARK    6  A    between atoms: N_27  and  C_28
REMARK    7  A    between atoms: C_28  and  C_29
REMARK                            x       y       z     vdW  Elec       q    Type
REMARK                         _______ _______ _______ _____ _____    ______ ____
ROOT
ATOM      1  C   UNL     1      -0.059   1.449   0.174  0.00  0.00    +0.017 A 
ATOM      2  C   UNL     1       1.131   2.140   0.113  0.00  0.00    +0.026 A 
ATOM      3  C   UNL     1       2.334   1.450   0.042  0.00  0.00    +0.058 A 
ATOM      4  C   UNL     1       2.336   0.050   0.030  0.00  0.00    +0.059 A 
ATOM      5  C   UNL     1       1.150  -0.648   0.095  0.00  0.00    +0.040 A 
ATOM      6  C   UNL     1      -0.061   0.050   0.167  0.00  0.00    +0.065 A 
ATOM      7  N   UNL     1       3.567  -0.621  -0.056  0.00  0.00    -0.262 N 
ATOM      8  C   UNL     1       4.669   0.053  -0.757  0.00  0.00    +0.209 C 
ATOM      9  C   UNL     1       4.681   1.509  -0.366  0.00  0.00    +0.238 C 
ATOM     10  O   UNL     1       5.728   2.121  -0.367  0.00  0.00    -0.273 OA
ATOM     11  N   UNL     1       3.544   2.139  -0.015  0.00  0.00    -0.264 N 
ATOM     12  C   UNL     1       3.732  -1.843   0.488  0.00  0.00    +0.203 C 
ATOM     13  O   UNL     1       2.809  -2.381   1.062  0.00  0.00    -0.277 OA
ENDROOT
BRANCH   6  14
ATOM     14  C   UNL     1      -1.335  -0.686   0.234  0.00  0.00    +0.387 C 
ATOM     15  O   UNL     1      -2.392  -0.075   0.297  0.00  0.00    -0.241 OA
ATOM     16  O   UNL     1      -1.335  -1.910   0.228  0.00  0.00    -0.241 OA
ENDBRANCH   6  14
BRANCH  11  17
ATOM     17  C   UNL     1       3.579   3.567   0.311  0.00  0.00    +0.150 C 
BRANCH  17  18
ATOM     18  C   UNL     1       3.643   3.739   1.806  0.00  0.00    -0.011 A 
ATOM     19  C   UNL     1       2.479   3.904   2.533  0.00  0.00    +0.008 A 
ATOM     20  C   UNL     1       2.536   4.062   3.905  0.00  0.00    +0.020 A 
ATOM     21  C   UNL     1       3.760   4.056   4.552  0.00  0.00    +0.042 A 
ATOM     22  C   UNL     1       4.925   3.891   3.825  0.00  0.00    +0.040 A 
ATOM     23  C   UNL     1       4.866   3.728   2.453  0.00  0.00    +0.047 A 
ATOM     24 CL   UNL     1       6.328   3.514   1.540  0.00  0.00    -0.083 Cl
ATOM     25 CL   UNL     1       3.832   4.255   6.275  0.00  0.00    -0.083 Cl
ENDBRANCH  17  18
ENDBRANCH  11  17
BRANCH  12  26
ATOM     26  C   UNL     1       5.063  -2.542   0.381  0.00  0.00    +0.015 C 
BRANCH  26  27
ATOM     27  N   UNL     1       4.986  -3.848   1.048  0.00  0.00    +0.386 N 
ATOM     28  H   UNL     1       4.752  -3.716   2.021  0.00  0.00    -0.085 HD
ATOM     29  H   UNL     1       4.274  -4.410   0.605  0.00  0.00    -0.085 HD
BRANCH  27  30
ATOM     30  C   UNL     1       6.283  -4.529   0.944  0.00  0.00    -0.050 C 
BRANCH  30  31
ATOM     31  C   UNL     1       6.202  -5.890   1.639  0.00  0.00    +0.101 C 
ATOM     32  C   UNL     1       7.593  -6.561   1.640  0.00  0.00    +0.032 C 
ATOM     33  C   UNL     1       7.241  -8.049   1.369  0.00  0.00    +0.030 C 
ATOM     34  C   UNL     1       6.020  -7.896   0.428  0.00  0.00    +0.160 C 
ATOM     35  O   UNL     1       5.307  -6.748   0.922  0.00  0.00    -0.378 OA
ENDBRANCH  30  31
ENDBRANCH  27  30
ENDBRANCH  26  27
ENDBRANCH  12  26
TORSDOF 7
