REMARK  Name = ZINC35781389
REMARK  17 active torsions:
REMARK  status: ('A' for Active; 'I' for Inactive)
REMARK    1  A    between atoms: C_1  and  C_2
REMARK    2  A    between atoms: C_2  and  C_3
REMARK    3  A    between atoms: C_3  and  C_4
REMARK    4  A    between atoms: C_4  and  C_5
REMARK    5  A    between atoms: C_5  and  C_7
REMARK    6  A    between atoms: C_5  and  O_34
REMARK    7  A    between atoms: C_7  and  N_8
REMARK    8  A    between atoms: N_8  and  C_9
REMARK    9  A    between atoms: N_8  and  C_31
REMARK   10  A    between atoms: C_9  and  C_10
REMARK   11  A    between atoms: C_11  and  C_29
REMARK   12  A    between atoms: N_13  and  C_22
REMARK   13  A    between atoms: C_14  and  O_15
REMARK   14  A    between atoms: O_15  and  C_16
REMARK   15  A    between atoms: C_29  and  C_30
REMARK   16  A    between atoms: C_31  and  C_32
REMARK   17  A    between atoms: C_31  and  C_33
REMARK                            x       y       z     vdW  Elec       q    Type
REMARK                         _______ _______ _______ _____ _____    ______ ____
ROOT
ATOM      1  C   UNL     1       2.758  -7.189  -4.389  0.00  0.00    +0.021 A 
ATOM      2  C   UNL     1       2.113  -7.151  -5.629  0.00  0.00    +0.068 A 
ATOM      3  N   UNL     1       2.972  -7.497  -6.553  0.00  0.00    -0.168 NA
ATOM      4  N   UNL     1       4.199  -7.770  -5.936  0.00  0.00    -0.200 N 
ATOM      5  C   UNL     1       4.047  -7.568  -4.600  0.00  0.00    +0.225 A 
ENDROOT
BRANCH   4   6
ATOM      6  C   UNL     1       5.377  -8.173  -6.582  0.00  0.00    +0.069 A 
ATOM      7  C   UNL     1       6.598  -7.631  -6.203  0.00  0.00    +0.031 A 
ATOM      8  C   UNL     1       7.757  -8.030  -6.839  0.00  0.00    +0.040 A 
ATOM      9  C   UNL     1       7.702  -8.969  -7.856  0.00  0.00    +0.124 A 
ATOM     10  C   UNL     1       6.485  -9.511  -8.235  0.00  0.00    +0.040 A 
ATOM     11  C   UNL     1       5.325  -9.119  -7.596  0.00  0.00    +0.031 A 
ATOM     12  F   UNL     1       8.836  -9.358  -8.478  0.00  0.00    -0.205 F 
ENDBRANCH   4   6
BRANCH   2  13
ATOM     13  C   UNL     1       0.672  -6.775  -5.861  0.00  0.00    +0.054 C 
ATOM     14  C   UNL     1       0.586  -5.294  -6.236  0.00  0.00    +0.010 C 
ENDBRANCH   2  13
BRANCH   1  15
ATOM     15  C   UNL     1       2.136  -6.862  -3.055  0.00  0.00    -0.035 C 
BRANCH  15  16
ATOM     16  N   UNL     1       2.177  -5.410  -2.839  0.00  0.00    +0.386 N 
ATOM     17  H   UNL     1       1.752  -4.941  -3.624  0.00  0.00    -0.081 HD
BRANCH  16  18
ATOM     18  C   UNL     1       1.441  -5.077  -1.612  0.00  0.00    -0.074 C 
ATOM     19  C   UNL     1      -0.044  -5.393  -1.806  0.00  0.00    -0.014 C 
ATOM     20  C   UNL     1       1.990  -5.904  -0.448  0.00  0.00    -0.014 C 
ENDBRANCH  16  18
BRANCH  16  21
ATOM     21  C   UNL     1       3.573  -4.974  -2.706  0.00  0.00    -0.046 C 
BRANCH  21  22
ATOM     22  C   UNL     1       3.625  -3.447  -2.627  0.00  0.00    +0.098 C 
BRANCH  22  23
ATOM     23  O   UNL     1       3.149  -2.890  -3.854  0.00  0.00    -0.394 OA
ATOM     24  H   UNL     1       3.662  -3.154  -4.630  0.00  0.00    +0.210 HD
ENDBRANCH  22  23
BRANCH  22  25
ATOM     25  C   UNL     1       5.068  -2.997  -2.389  0.00  0.00    +0.029 C 
BRANCH  25  26
ATOM     26  C   UNL     1       5.103  -1.481  -2.187  0.00  0.00    +0.002 C 
BRANCH  26  28
ATOM     27  C   UNL     1       6.581   0.485  -1.746  0.00  0.00    +0.004 C 
ATOM     28  C   UNL     1       6.546  -1.031  -1.949  0.00  0.00    -0.003 C 
ENDBRANCH  26  28
ENDBRANCH  25  26
ENDBRANCH  22  25
ENDBRANCH  21  22
ENDBRANCH  16  21
ENDBRANCH  15  16
ENDBRANCH   1  15
BRANCH   5  29
ATOM     29  O   UNL     1       5.005  -7.720  -3.650  0.00  0.00    -0.438 OA
BRANCH  29  30
ATOM     30  C   UNL     1       5.219  -8.966  -3.155  0.00  0.00    +0.130 A 
ATOM     31  C   UNL     1       4.548 -10.054  -3.695  0.00  0.00    +0.046 A 
ATOM     32  C   UNL     1       4.768 -11.321  -3.189  0.00  0.00    +0.004 A 
ATOM     33  C   UNL     1       5.655 -11.505  -2.145  0.00  0.00    +0.000 A 
ATOM     34  C   UNL     1       6.325 -10.423  -1.604  0.00  0.00    +0.004 A 
ATOM     35  C   UNL     1       6.114  -9.155  -2.111  0.00  0.00    +0.046 A 
ENDBRANCH  29  30
ENDBRANCH   5  29
TORSDOF 13
