REMARK  Name = ZINC08919218
REMARK  7 active torsions:
REMARK  status: ('A' for Active; 'I' for Inactive)
REMARK    1  A    between atoms: C_1  and  C_2
REMARK    2  A    between atoms: C_8  and  C_9
REMARK    3  A    between atoms: C_8  and  N_58
REMARK    4  A    between atoms: C_9  and  C_10
REMARK    5  A    between atoms: N_12  and  C_13
REMARK    6  A    between atoms: C_14  and  C_21
REMARK    7  A    between atoms: N_23  and  C_24
REMARK                            x       y       z     vdW  Elec       q    Type
REMARK                         _______ _______ _______ _____ _____    ______ ____
ROOT
ATOM      1  C   UNL     1      -4.436   7.852  -2.595  0.00  0.00    +0.084 A 
ATOM      2  C   UNL     1      -5.444   8.340  -3.408  0.00  0.00    +0.069 A 
ATOM      3  C   UNL     1      -5.734   9.772  -3.342  0.00  0.00    -0.023 A 
ATOM      4  C   UNL     1      -4.965  10.472  -2.488  0.00  0.00    -0.004 A 
ATOM      5  S   UNL     1      -3.877   9.267  -1.769  0.00  0.00    -0.077 S 
ATOM      6  C   UNL     1      -5.316  11.935  -2.483  0.00  0.00    +0.043 C 
ATOM      7  C   UNL     1      -6.133  12.144  -3.777  0.00  0.00    +0.010 C 
ATOM      8  C   UNL     1      -6.714  10.736  -4.013  0.00  0.00    +0.037 C 
ENDROOT
BRANCH   1  11
ATOM      9  C   UNL     1      -2.974   6.261  -1.625  0.00  0.00    +0.216 C 
ATOM     10  O   UNL     1      -2.467   7.143  -0.966  0.00  0.00    -0.276 OA
ATOM     11  N   UNL     1      -3.981   6.548  -2.475  0.00  0.00    -0.279 N 
ATOM     12  H   UNL     1      -4.387   5.842  -3.002  0.00  0.00    +0.155 HD
BRANCH   9  13
ATOM     13  C   UNL     1      -2.480   4.843  -1.495  0.00  0.00    +0.077 C 
BRANCH  13  14
ATOM     14  C   UNL     1      -1.342   4.792  -0.474  0.00  0.00    -0.069 C 
BRANCH  14  21
ATOM     15  C   UNL     1      -0.597   3.808   2.055  0.00  0.00    -0.013 C 
ATOM     16  C   UNL     1       0.070   3.279   0.783  0.00  0.00    -0.072 C 
ATOM     17  C   UNL     1       0.438   1.806   0.975  0.00  0.00    -0.016 C 
ATOM     18  C   UNL     1       1.085   1.276  -0.308  0.00  0.00    -0.003 C 
ATOM     19  C   UNL     1       0.116   1.468  -1.477  0.00  0.00    -0.019 C 
ATOM     20  C   UNL     1      -0.242   2.951  -1.598  0.00  0.00    -0.078 C 
ATOM     21  N   UNL     1      -0.884   3.394  -0.341  0.00  0.00    +0.382 N 
ATOM     22  H   UNL     1      -1.695   2.794  -0.152  0.00  0.00    -0.081 HD
ENDBRANCH  14  21
ENDBRANCH  13  14
ENDBRANCH   9  13
ENDBRANCH   1  11
BRANCH   2  23
ATOM     23  C   UNL     1      -6.197   7.453  -4.300  0.00  0.00    +0.251 C 
ATOM     24  O   UNL     1      -7.212   6.911  -3.904  0.00  0.00    -0.270 OA
ATOM     25  N   UNL     1      -5.765   7.238  -5.558  0.00  0.00    -0.281 N 
ATOM     26  H   UNL     1      -4.918   7.610  -5.850  0.00  0.00    +0.155 HD
BRANCH  25  27
ATOM     27  C   UNL     1      -6.538   6.479  -6.444  0.00  0.00    +0.034 A 
ATOM     28  C   UNL     1      -5.921   5.699  -7.412  0.00  0.00    +0.024 A 
ATOM     29  C   UNL     1      -6.687   4.946  -8.281  0.00  0.00    +0.017 A 
ATOM     30  C   UNL     1      -8.068   4.979  -8.195  0.00  0.00    +0.018 A 
ATOM     31  C   UNL     1      -8.685   5.760  -7.234  0.00  0.00    +0.017 A 
ATOM     32  C   UNL     1      -7.924   6.510  -6.359  0.00  0.00    +0.024 A 
ATOM     33 BR   UNL     1      -9.113   3.953  -9.391  0.00  0.00    -0.050 Br
ENDBRANCH  25  27
ENDBRANCH   2  23
TORSDOF 6
