REMARK  Name = ZINC27127070
REMARK  10 active torsions:
REMARK  status: ('A' for Active; 'I' for Inactive)
REMARK    1  A    between atoms: C_1  and  C_2
REMARK    2  A    between atoms: C_4  and  C_35
REMARK    3  A    between atoms: C_5  and  N_9
REMARK    4  A    between atoms: C_6  and  C_8
REMARK    5  A    between atoms: C_10  and  C_12
REMARK    6  A    between atoms: C_12  and  N_13
REMARK    7  A    between atoms: N_13  and  C_14
REMARK    8  A    between atoms: N_13  and  C_15
REMARK    9  A    between atoms: C_15  and  C_16
REMARK   10  A    between atoms: C_29  and  C_31
REMARK                            x       y       z     vdW  Elec       q    Type
REMARK                         _______ _______ _______ _____ _____    ______ ____
ROOT
ATOM      1  C   UNL     1       2.184   3.812   2.236  0.00  0.00    +0.204 C 
ATOM      2  O   UNL     1       2.811   2.981   2.858  0.00  0.00    -0.277 OA
ATOM      3  N   UNL     1       2.578   5.101   2.246  0.00  0.00    -0.259 N 
ATOM      4  C   UNL     1       1.867   6.072   1.529  0.00  0.00    +0.058 A 
ATOM      5  C   UNL     1       1.928   6.119   0.150  0.00  0.00    +0.025 A 
ATOM      6  C   UNL     1       1.244   7.105  -0.537  0.00  0.00    +0.002 A 
ATOM      7  C   UNL     1       0.496   8.044   0.151  0.00  0.00    +0.002 A 
ATOM      8  C   UNL     1       0.417   7.995   1.531  0.00  0.00    +0.025 A 
ATOM      9  C   UNL     1       1.089   7.003   2.224  0.00  0.00    +0.055 A 
ATOM     10  N   UNL     1       1.000   6.912   3.619  0.00  0.00    -0.284 N 
ATOM     11  C   UNL     1       2.115   6.782   4.372  0.00  0.00    +0.219 C 
ATOM     12  O   UNL     1       2.017   6.626   5.570  0.00  0.00    -0.275 OA
ATOM     13  C   UNL     1       3.478   6.827   3.733  0.00  0.00    +0.128 C 
ATOM     14  C   UNL     1       3.761   5.513   3.002  0.00  0.00    +0.194 C 
ATOM     15  H   UNL     1       0.017   6.947   4.110  0.00  0.00    +0.155 HD
ENDROOT
BRANCH  14  16
ATOM     16  C   UNL     1       4.935   5.711   2.041  0.00  0.00    +0.409 C 
ATOM     17  F   UNL     1       4.611   6.699   1.105  0.00  0.00    -0.169 F 
ATOM     18  F   UNL     1       6.067   6.106   2.763  0.00  0.00    -0.169 F 
ATOM     19  F   UNL     1       5.202   4.509   1.377  0.00  0.00    -0.169 F 
ENDBRANCH  14  16
BRANCH   1  20
ATOM     20  C   UNL     1       0.963   3.404   1.452  0.00  0.00    +0.019 C 
BRANCH  20  21
ATOM     21  N   UNL     1       0.746   1.958   1.602  0.00  0.00    +0.389 N 
ATOM     22  C   UNL     1       0.401   1.618   2.988  0.00  0.00    -0.095 C 
ATOM     23  H   UNL     1       1.688   1.448   1.353  0.00  0.00    -0.081 HD
BRANCH  21  24
ATOM     24  C   UNL     1      -0.286   1.482   0.670  0.00  0.00    +0.019 C 
BRANCH  24  26
ATOM     25  N   UNL     1      -1.183  -0.687  -0.109  0.00  0.00    -0.287 N 
ATOM     26  C   UNL     1      -0.309  -0.025   0.675  0.00  0.00    +0.201 C 
ATOM     27  O   UNL     1       0.458  -0.641   1.384  0.00  0.00    -0.278 OA
ATOM     28  H   UNL     1      -1.918  -0.129  -0.707  0.00  0.00    +0.155 HD
BRANCH  25  33
ATOM     29  C   UNL     1      -1.065  -6.355  -0.328  0.00  0.00    +0.044 C 
ATOM     30  C   UNL     1      -1.096  -4.849  -0.270  0.00  0.00    -0.050 A 
ATOM     31  C   UNL     1      -2.284  -4.194  -0.003  0.00  0.00    +0.008 A 
ATOM     32  C   UNL     1      -2.316  -2.814   0.051  0.00  0.00    -0.029 A 
ATOM     33  C   UNL     1      -1.153  -2.085  -0.163  0.00  0.00    +0.039 A 
ATOM     34  C   UNL     1       0.037  -2.746  -0.436  0.00  0.00    -0.029 A 
ATOM     35  C   UNL     1       0.063  -4.126  -0.483  0.00  0.00    +0.008 A 
ATOM     36  C   UNL     1       1.299  -1.959  -0.675  0.00  0.00    +0.045 C 
ATOM     37  C   UNL     1      -3.611  -2.100   0.342  0.00  0.00    +0.045 C 
ENDBRANCH  25  33
ENDBRANCH  24  26
ENDBRANCH  21  24
ENDBRANCH  20  21
ENDBRANCH   1  20
TORSDOF 6
