REMARK  Name = ZINC39266206
REMARK  11 active torsions:
REMARK  status: ('A' for Active; 'I' for Inactive)
REMARK    1  A    between atoms: C_1  and  C_2
REMARK    2  A    between atoms: N_8  and  C_9
REMARK    3  A    between atoms: C_9  and  C_10
REMARK    4  A    between atoms: C_10  and  C_11
REMARK    5  A    between atoms: C_11  and  N_12
REMARK    6  A    between atoms: C_13  and  C_15
REMARK    7  A    between atoms: C_15  and  N_16
REMARK    8  A    between atoms: C_17  and  C_36
REMARK    9  A    between atoms: C_26  and  O_28
REMARK   10  A    between atoms: O_28  and  C_29
REMARK   11  A    between atoms: C_29  and  C_30
REMARK                            x       y       z     vdW  Elec       q    Type
REMARK                         _______ _______ _______ _____ _____    ______ ____
ROOT
ATOM      1  N   UNL     1       0.735   0.351   9.713  0.00  0.00    -0.281 N 
ATOM      2  C   UNL     1       0.871   1.608  10.439  0.00  0.00    +0.139 C 
ATOM      3  C   UNL     1      -0.178   1.093  11.407  0.00  0.00    +0.139 C 
ATOM      4  C   UNL     1      -0.197  -0.129  10.547  0.00  0.00    +0.243 C 
ATOM      5  O   UNL     1      -0.823  -1.167  10.588  0.00  0.00    -0.273 OA
ATOM      6  C   UNL     1       0.307   0.882  12.852  0.00  0.00    +0.039 C 
ATOM      7  C   UNL     1      -0.408   2.022  13.625  0.00  0.00    +0.022 C 
ATOM      8  C   UNL     1      -1.763   2.106  12.877  0.00  0.00    +0.112 C 
ATOM      9  N   UNL     1      -1.429   1.855  11.461  0.00  0.00    -0.251 N 
ATOM     10  C   UNL     1      -2.152   2.258  10.398  0.00  0.00    +0.404 C 
ATOM     11  O   UNL     1      -1.777   1.993   9.272  0.00  0.00    -0.226 OA
ENDROOT
BRANCH   2  12
ATOM     12  C   UNL     1       2.229   1.797  11.065  0.00  0.00    -0.024 A 
ATOM     13  C   UNL     1       3.043   0.704  11.291  0.00  0.00    +0.005 A 
ATOM     14  C   UNL     1       4.289   0.876  11.866  0.00  0.00    +0.000 A 
ATOM     15  C   UNL     1       4.719   2.143  12.214  0.00  0.00    +0.000 A 
ATOM     16  C   UNL     1       3.905   3.237  11.987  0.00  0.00    +0.000 A 
ATOM     17  C   UNL     1       2.661   3.064  11.409  0.00  0.00    +0.005 A 
ENDBRANCH   2  12
BRANCH   1  18
ATOM     18  C   UNL     1       1.377  -0.187   8.511  0.00  0.00    +0.204 C 
BRANCH  18  20
ATOM     19  N   UNL     1       0.983  -0.177   6.069  0.00  0.00    -0.314 N 
ATOM     20  C   UNL     1       0.579   0.209   7.295  0.00  0.00    +0.230 C 
ATOM     21  O   UNL     1      -0.427   0.876   7.421  0.00  0.00    -0.274 OA
ATOM     22  H   UNL     1       1.787  -0.710   5.968  0.00  0.00    +0.149 HD
BRANCH  19  23
ATOM     23  C   UNL     1       0.207   0.209   4.887  0.00  0.00    +0.102 C 
BRANCH  23  24
ATOM     24  C   UNL     1       0.877  -0.353   3.631  0.00  0.00    +0.000 C 
BRANCH  24  25
ATOM     25  C   UNL     1       0.067   0.050   2.397  0.00  0.00    -0.077 C 
BRANCH  25  32
ATOM     26  C   UNL     1      -0.019   1.526   0.010  0.00  0.00    -0.013 C 
ATOM     27  C   UNL     1       0.002  -0.004   0.002  0.00  0.00    -0.072 C 
ATOM     28  C   UNL     1       0.717  -0.497  -1.258  0.00  0.00    -0.016 C 
ATOM     29  C   UNL     1       0.735  -2.028  -1.262  0.00  0.00    -0.003 C 
ATOM     30  C   UNL     1       1.410  -2.524   0.020  0.00  0.00    -0.019 C 
ATOM     31  C   UNL     1       0.669  -1.956   1.232  0.00  0.00    -0.078 C 
ATOM     32  N   UNL     1       0.711  -0.490   1.192  0.00  0.00    +0.381 N 
ATOM     33  H   UNL     1       1.671  -0.182   1.159  0.00  0.00    -0.081 HD
ENDBRANCH  25  32
ENDBRANCH  24  25
ENDBRANCH  23  24
ENDBRANCH  19  23
ENDBRANCH  18  20
ENDBRANCH   1  18
BRANCH  10  34
ATOM     34  O   UNL     1      -3.289   2.955  10.582  0.00  0.00    -0.445 OA
BRANCH  34  35
ATOM     35  C   UNL     1      -4.004   3.351   9.410  0.00  0.00    +0.269 C 
BRANCH  35  36
ATOM     36  C   UNL     1      -5.240   4.115   9.810  0.00  0.00    -0.010 A 
ATOM     37  C   UNL     1      -6.427   3.442  10.033  0.00  0.00    +0.007 A 
ATOM     38  C   UNL     1      -7.560   4.144  10.400  0.00  0.00    +0.000 A 
ATOM     39  C   UNL     1      -7.507   5.517  10.544  0.00  0.00    +0.000 A 
ATOM     40  C   UNL     1      -6.320   6.190  10.322  0.00  0.00    +0.000 A 
ATOM     41  C   UNL     1      -5.185   5.488   9.959  0.00  0.00    +0.007 A 
ENDBRANCH  35  36
ENDBRANCH  34  35
ENDBRANCH  10  34
TORSDOF 10
