REMARK  Name = ZINC09308409
REMARK  5 active torsions:
REMARK  status: ('A' for Active; 'I' for Inactive)
REMARK    1  A    between atoms: C_1  and  C_2
REMARK    2  A    between atoms: C_2  and  C_23
REMARK    3  A    between atoms: N_3  and  N_4
REMARK    4  A    between atoms: C_5  and  C_7
REMARK    5  A    between atoms: C_8  and  C_18
REMARK                            x       y       z     vdW  Elec       q    Type
REMARK                         _______ _______ _______ _____ _____    ______ ____
ROOT
ATOM      1  C   UNL     1       5.615   1.442  -0.045  0.00  0.00    +0.177 A 
ATOM      2  C   UNL     1       4.305   1.923  -0.034  0.00  0.00    +0.115 A 
ATOM      3  N   UNL     1       3.496   0.819  -0.027  0.00  0.00    -0.187 N 
ATOM      4  N   UNL     1       4.341  -0.298  -0.042  0.00  0.00    -0.058 NA
ATOM      5  N   UNL     1       5.564   0.099  -0.052  0.00  0.00    -0.124 NA
ATOM      6  C   UNL     1       2.098   0.808  -0.014  0.00  0.00    +0.241 A 
ATOM      7  C   UNL     1       1.249  -0.387  -0.012  0.00  0.00    +0.206 A 
ATOM      8  N   UNL     1       0.002  -0.004   0.002  0.00  0.00    -0.032 NA
ATOM      9  O   UNL     1      -0.017   1.413   0.010  0.00  0.00    -0.239 OA
ATOM     10  N   UNL     1       1.327   1.859  -0.001  0.00  0.00    -0.027 NA
ATOM     11  N   UNL     1       1.697  -1.703  -0.023  0.00  0.00    -0.337 N 
ATOM     12  H   UNL     1       1.058  -2.433  -0.020  0.00  0.00    +0.144 HD
ATOM     13  H   UNL     1       2.648  -1.892  -0.032  0.00  0.00    +0.144 HD
ENDROOT
BRANCH   2  14
ATOM     14  C   UNL     1       3.881   3.329  -0.029  0.00  0.00    +0.040 A 
ATOM     15  C   UNL     1       4.361   4.382   0.731  0.00  0.00    +0.018 A 
ATOM     16  C   UNL     1       3.799   5.624   0.554  0.00  0.00    +0.008 A 
ATOM     17  C   UNL     1       2.792   5.777  -0.347  0.00  0.00    +0.046 A 
ATOM     18  S   UNL     1       2.608   4.124  -0.995  0.00  0.00    -0.095 S 
ENDBRANCH   2  14
BRANCH   1  20
ATOM     19  N   UNL     1       8.044   1.665  -0.069  0.00  0.00    -0.201 N 
ATOM     20  C   UNL     1       6.835   2.260  -0.053  0.00  0.00    +0.286 C 
ATOM     21  O   UNL     1       6.754   3.474  -0.045  0.00  0.00    -0.267 OA
ATOM     22  H   UNL     1       8.109   0.697  -0.075  0.00  0.00    +0.178 HD
BRANCH  19  25
ATOM     23  C   UNL     1      10.474   0.369  -0.101  0.00  0.00    +0.068 C 
ATOM     24  C   UNL     1      10.373   1.873  -0.091  0.00  0.00    +0.065 C 
ATOM     25  N   UNL     1       9.208   2.445  -0.076  0.00  0.00    -0.184 NA
BRANCH  24  26
ATOM     26  C   UNL     1      11.598   2.693  -0.099  0.00  0.00    +0.016 A 
ATOM     27  C   UNL     1      12.853   2.081  -0.110  0.00  0.00    +0.012 A 
ATOM     28  C   UNL     1      13.995   2.854  -0.122  0.00  0.00    +0.021 A 
ATOM     29  C   UNL     1      13.900   4.236  -0.113  0.00  0.00    +0.042 A 
ATOM     30  C   UNL     1      12.659   4.851  -0.097  0.00  0.00    +0.040 A 
ATOM     31  C   UNL     1      11.508   4.089  -0.090  0.00  0.00    +0.051 A 
ATOM     32 CL   UNL     1       9.954   4.861  -0.070  0.00  0.00    -0.083 Cl
ATOM     33 CL   UNL     1      15.342   5.201  -0.120  0.00  0.00    -0.083 Cl
ENDBRANCH  24  26
ENDBRANCH  19  25
ENDBRANCH   1  20
TORSDOF 4
