REMARK  Name = ZINC04729779
REMARK  7 active torsions:
REMARK  status: ('A' for Active; 'I' for Inactive)
REMARK    1  A    between atoms: C_1  and  O_2
REMARK    2  A    between atoms: O_2  and  C_3
REMARK    3  A    between atoms: C_3  and  C_5
REMARK    4  A    between atoms: C_8  and  C_11
REMARK    5  A    between atoms: C_13  and  C_25
REMARK    6  A    between atoms: C_16  and  C_18
REMARK    7  A    between atoms: C_30  and  O_31
REMARK                            x       y       z     vdW  Elec       q    Type
REMARK                         _______ _______ _______ _____ _____    ______ ____
ROOT
ATOM      1  C   UNL     1       2.452   3.933  -0.001  0.00  0.00    +0.081 C 
ATOM      2  C   UNL     1       3.545   5.893  -0.885  0.00  0.00    -0.028 C 
ATOM      3  C   UNL     1       4.363   5.075  -1.890  0.00  0.00    +0.044 C 
ATOM      4  C   UNL     1       4.322   3.622  -1.505  0.00  0.00    +0.040 C 
ATOM      5  N   UNL     1       3.473   3.142  -0.677  0.00  0.00    -0.299 NA
ATOM      6  N   UNL     1       2.248   5.218  -0.687  0.00  0.00    +0.401 N 
ATOM      7  H   UNL     1       1.637   5.814  -0.117  0.00  0.00    -0.081 HD
ATOM      8  H   UNL     1       1.808   5.050  -1.599  0.00  0.00    -0.081 HD
ENDROOT
BRANCH   4   9
ATOM      9  C   UNL     1       5.309   2.707  -2.110  0.00  0.00    -0.004 A 
ATOM     10  C   UNL     1       6.249   3.193  -3.022  0.00  0.00    +0.011 A 
ATOM     11  C   UNL     1       7.172   2.333  -3.580  0.00  0.00    +0.020 A 
ATOM     12  C   UNL     1       7.162   0.989  -3.246  0.00  0.00    +0.041 A 
ATOM     13  C   UNL     1       6.229   0.500  -2.346  0.00  0.00    +0.020 A 
ATOM     14  C   UNL     1       5.304   1.351  -1.777  0.00  0.00    +0.011 A 
ATOM     15 CL   UNL     1       8.322  -0.087  -3.958  0.00  0.00    -0.084 Cl
ENDBRANCH   4   9
BRANCH   1  19
ATOM     16  C   UNL     1      -1.230   1.759   0.017  0.00  0.00    +0.059 A 
ATOM     17  C   UNL     1      -0.013   1.076   0.008  0.00  0.00    +0.015 A 
ATOM     18  C   UNL     1       1.172   1.783   0.000  0.00  0.00    +0.004 A 
ATOM     19  C   UNL     1       1.155   3.167   0.008  0.00  0.00    -0.040 A 
ATOM     20  C   UNL     1      -0.048   3.850   0.022  0.00  0.00    +0.004 A 
ATOM     21  C   UNL     1      -1.240   3.155   0.029  0.00  0.00    +0.015 A 
BRANCH  16  22
ATOM     22  C   UNL     1      -2.502   1.008   0.020  0.00  0.00    +0.339 C 
ATOM     23  O   UNL     1      -2.491  -0.206   0.013  0.00  0.00    -0.245 OA
BRANCH  22  25
ATOM     24  C   UNL     1      -4.886   0.868   0.031  0.00  0.00    +0.280 C 
ATOM     25  O   UNL     1      -3.675   1.670   0.029  0.00  0.00    -0.464 OA
ENDBRANCH  22  25
ENDBRANCH  16  22
ENDBRANCH   1  19
BRANCH   2  26
ATOM     26  C   UNL     1       3.314   7.280  -1.426  0.00  0.00    -0.019 A 
ATOM     27  C   UNL     1       2.118   7.592  -2.043  0.00  0.00    +0.005 A 
ATOM     28  C   UNL     1       1.904   8.866  -2.535  0.00  0.00    +0.000 A 
ATOM     29  C   UNL     1       2.890   9.829  -2.420  0.00  0.00    +0.004 A 
ATOM     30  C   UNL     1       4.089   9.521  -1.808  0.00  0.00    +0.045 A 
ATOM     31  C   UNL     1       4.305   8.245  -1.309  0.00  0.00    +0.118 A 
BRANCH  31  32
ATOM     32  O   UNL     1       5.484   7.939  -0.707  0.00  0.00    -0.507 OA
ATOM     33  H   UNL     1       6.159   7.603  -1.312  0.00  0.00    +0.292 HD
ENDBRANCH  31  32
ENDBRANCH   2  26
TORSDOF 6
