REMARK  Name = ZINC39967980
REMARK  7 active torsions:
REMARK  status: ('A' for Active; 'I' for Inactive)
REMARK    1  A    between atoms: CA_6  and  C_36
REMARK    2  A    between atoms: C_8  and  C_11
REMARK    3  A    between atoms: C_11  and  C_12
REMARK    4  A    between atoms: C_11  and  C_23
REMARK    5  A    between atoms: C_16  and  N_19
REMARK    6  A    between atoms: C_17  and  O_18
REMARK    7  A    between atoms: CA_31  and  C_33
REMARK                            x       y       z     vdW  Elec       q    Type
REMARK                         _______ _______ _______ _____ _____    ______ ____
ROOT
ATOM      1  C   UNL     1       0.691  -3.186  -0.022  0.00  0.00    +0.081 C 
ENDROOT
BRANCH   1   8
ATOM      2  C   UNL     1       0.493   0.213  -3.099  0.00  0.00    +0.001 A 
ATOM      3  C   UNL     1       1.614   1.054  -3.080  0.00  0.00    +0.002 A 
ATOM      4  C   UNL     1       2.649   0.872  -2.232  0.00  0.00    +0.026 A 
ATOM      5  C   UNL     1       2.637  -0.207  -1.305  0.00  0.00    +0.043 A 
ATOM      6  N   UNL     1       3.503  -0.588  -0.398  0.00  0.00    -0.368 N 
ATOM      7  CA  UNL     1       2.976  -1.777   0.281  0.00  0.00    +0.221 C 
ATOM      8  C   UNL     1       1.638  -2.064  -0.362  0.00  0.00    -0.016 C 
ATOM      9  C   UNL     1       1.463  -1.110  -1.305  0.00  0.00    +0.001 A 
ATOM     10  C   UNL     1       0.381  -0.842  -2.259  0.00  0.00    +0.010 A 
ATOM     11  H   UNL     1       4.350  -0.157  -0.208  0.00  0.00    +0.161 HD
BRANCH   7  12
ATOM     12  C   UNL     1       3.909  -2.944   0.084  0.00  0.00    +0.382 C 
ATOM     13  O   UNL     1       4.944  -2.798  -0.544  0.00  0.00    -0.244 OA
ATOM     14  OXT UNL     1       3.630  -4.034   0.554  0.00  0.00    -0.244 OA
ENDBRANCH   7  12
ENDBRANCH   1   8
BRANCH   1  15
ATOM     15  C   UNL     1      -0.730  -2.693  -0.129  0.00  0.00    -0.016 C 
ATOM     16  C   UNL     1      -1.200  -1.481   0.243  0.00  0.00    +0.001 A 
ATOM     17  C   UNL     1      -0.556  -0.303   0.835  0.00  0.00    +0.010 A 
ATOM     18  C   UNL     1      -1.306   0.790   1.102  0.00  0.00    +0.001 A 
ATOM     19  C   UNL     1      -2.680   0.827   0.827  0.00  0.00    +0.002 A 
ATOM     20  C   UNL     1      -3.342  -0.216   0.283  0.00  0.00    +0.026 A 
ATOM     21  C   UNL     1      -2.653  -1.417  -0.038  0.00  0.00    +0.043 A 
ATOM     22  N   UNL     1      -3.064  -2.546  -0.562  0.00  0.00    -0.368 N 
ATOM     23  CA  UNL     1      -1.916  -3.453  -0.679  0.00  0.00    +0.221 C 
ATOM     24  H   UNL     1      -3.974  -2.747  -0.831  0.00  0.00    +0.161 HD
BRANCH  23  25
ATOM     25  C   UNL     1      -2.158  -4.699   0.133  0.00  0.00    +0.382 C 
ATOM     26  O   UNL     1      -3.140  -4.778   0.851  0.00  0.00    -0.244 OA
ATOM     27  OXT UNL     1      -1.371  -5.628   0.073  0.00  0.00    -0.244 OA
ENDBRANCH  23  25
ENDBRANCH   1  15
BRANCH   1  28
ATOM     28  C   UNL     1       0.954  -3.657   1.385  0.00  0.00    +0.009 A 
ATOM     29  C   UNL     1       0.820  -2.780   2.444  0.00  0.00    +0.028 A 
ATOM     30  C   UNL     1       1.061  -3.212   3.736  0.00  0.00    +0.044 A 
ATOM     31  C   UNL     1       1.438  -4.523   3.970  0.00  0.00    +0.056 A 
ATOM     32  C   UNL     1       1.574  -5.402   2.914  0.00  0.00    +0.169 A 
ATOM     33  C   UNL     1       1.327  -4.972   1.618  0.00  0.00    +0.151 A 
ATOM     34 CL   UNL     1       0.892  -2.108   5.065  0.00  0.00    -0.083 Cl
BRANCH  32  35
ATOM     35  N   UNL     1       1.978  -6.804   3.165  0.00  0.00    +0.060 N 
ATOM     36  O   UNL     1       2.188  -7.179   4.294  0.00  0.00    -0.126 OA
ATOM     37  O   UNL     1       2.096  -7.574   2.240  0.00  0.00    -0.126 OA
ENDBRANCH  32  35
BRANCH  33  38
ATOM     38  O   UNL     1       1.455  -5.838   0.578  0.00  0.00    -0.504 OA
ATOM     39  H   UNL     1       2.342  -5.862   0.193  0.00  0.00    +0.292 HD
ENDBRANCH  33  38
ENDBRANCH   1  28
TORSDOF 7
