REMARK  Name = ZINC64871167
REMARK  7 active torsions:
REMARK  status: ('A' for Active; 'I' for Inactive)
REMARK    1  A    between atoms: C_1  and  C_2
REMARK    2  A    between atoms: C_2  and  O_3
REMARK    3  A    between atoms: O_3  and  C_4
REMARK    4  A    between atoms: C_7  and  C_10
REMARK    5  A    between atoms: C_13  and  C_17
REMARK    6  A    between atoms: N_27  and  C_30
REMARK    7  A    between atoms: C_30  and  C_31
REMARK                            x       y       z     vdW  Elec       q    Type
REMARK                         _______ _______ _______ _____ _____    ______ ____
ROOT
ATOM      1  C   UNL     1       2.984  -8.715  -2.933  0.00  0.00    -0.000 A 
ATOM      2  C   UNL     1       2.111  -8.740  -4.010  0.00  0.00    +0.008 A 
ATOM      3  C   UNL     1       2.192  -9.744  -4.951  0.00  0.00    +0.016 A 
ATOM      4  C   UNL     1       3.160 -10.737  -4.814  0.00  0.00    +0.063 A 
ATOM      5  C   UNL     1       4.045 -10.710  -3.722  0.00  0.00    +0.056 A 
ATOM      6  C   UNL     1       3.951  -9.689  -2.788  0.00  0.00    +0.034 A 
ATOM      7  N   UNL     1       4.999 -11.711  -3.611  0.00  0.00    -0.307 N 
ATOM      8  H   UNL     1       5.616 -11.706  -2.863  0.00  0.00    +0.170 HD
ATOM      9  C   UNL     1       5.076 -12.689  -4.531  0.00  0.00    +0.330 A 
ATOM     10  O   UNL     1       5.926 -13.547  -4.397  0.00  0.00    -0.246 OA
ATOM     11  N   UNL     1       4.255 -12.757  -5.590  0.00  0.00    -0.256 N 
ATOM     12  C   UNL     1       3.291 -11.832  -5.791  0.00  0.00    +0.265 A 
ATOM     13  O   UNL     1       2.551 -11.901  -6.754  0.00  0.00    -0.267 OA
ENDROOT
BRANCH   1  16
ATOM     14  C   UNL     1       1.109  -6.040  -1.847  0.00  0.00    +0.180 C 
ATOM     15  N   UNL     1       2.366  -6.382  -2.554  0.00  0.00    -0.265 NA
ATOM     16  C   UNL     1       2.880  -7.610  -1.914  0.00  0.00    +0.242 C 
ATOM     17  O   UNL     1       1.945  -7.976  -0.883  0.00  0.00    -0.274 OA
ATOM     18  N   UNL     1       1.249  -6.717  -0.530  0.00  0.00    -0.177 NA
ATOM     19  H   UNL     1       2.198  -6.531  -3.538  0.00  0.00    +0.127 HD
ATOM     20  H   UNL     1       0.346  -6.902  -0.121  0.00  0.00    +0.156 HD
BRANCH  14  24
ATOM     21  C   UNL     1       0.777  -1.810  -1.336  0.00  0.00    +0.121 A 
ATOM     22  C   UNL     1       0.243  -2.669  -0.386  0.00  0.00    +0.046 A 
ATOM     23  C   UNL     1       0.351  -4.036  -0.554  0.00  0.00    +0.010 A 
ATOM     24  C   UNL     1       0.992  -4.548  -1.667  0.00  0.00    -0.014 A 
ATOM     25  C   UNL     1       1.525  -3.694  -2.615  0.00  0.00    +0.010 A 
ATOM     26  C   UNL     1       1.414  -2.327  -2.455  0.00  0.00    +0.046 A 
BRANCH  21  27
ATOM     27  O   UNL     1       0.671  -0.465  -1.174  0.00  0.00    -0.492 OA
BRANCH  27  29
ATOM     28  C   UNL     1      -0.019   1.526   0.010  0.00  0.00    +0.048 C 
ATOM     29  C   UNL     1       0.002  -0.004   0.002  0.00  0.00    +0.225 C 
ENDBRANCH  27  29
ENDBRANCH  21  27
ENDBRANCH  14  24
ENDBRANCH   1  16
BRANCH  11  30
ATOM     30  C   UNL     1       4.406 -13.856  -6.547  0.00  0.00    +0.165 C 
BRANCH  30  31
ATOM     31  C   UNL     1       3.547 -15.018  -6.118  0.00  0.00    -0.027 A 
ATOM     32  C   UNL     1       4.062 -15.982  -5.272  0.00  0.00    +0.008 A 
ATOM     33  C   UNL     1       3.275 -17.048  -4.877  0.00  0.00    +0.038 A 
ATOM     34  C   UNL     1       1.970 -17.148  -5.329  0.00  0.00    +0.123 A 
ATOM     35  C   UNL     1       1.456 -16.182  -6.176  0.00  0.00    +0.038 A 
ATOM     36  C   UNL     1       2.243 -15.115  -6.565  0.00  0.00    +0.008 A 
ATOM     37  F   UNL     1       1.200 -18.190  -4.944  0.00  0.00    -0.205 F 
ENDBRANCH  30  31
ENDBRANCH  11  30
TORSDOF 6
