REMARK  Name = ZINC14697756
REMARK  15 active torsions:
REMARK  status: ('A' for Active; 'I' for Inactive)
REMARK    1  A    between atoms: C_1  and  C_2
REMARK    2  A    between atoms: C_2  and  C_3
REMARK    3  A    between atoms: C_3  and  C_4
REMARK    4  A    between atoms: C_4  and  C_5
REMARK    5  A    between atoms: C_5  and  N_6
REMARK    6  A    between atoms: N_6  and  C_7
REMARK    7  A    between atoms: C_8  and  N_20
REMARK    8  A    between atoms: N_9  and  C_16
REMARK    9  A    between atoms: C_16  and  C_17
REMARK   10  A    between atoms: C_17  and  C_18
REMARK   11  A    between atoms: C_18  and  C_19
REMARK   12  A    between atoms: C_21  and  C_23
REMARK   13  A    between atoms: C_23  and  C_25
REMARK   14  A    between atoms: C_23  and  O_26
REMARK   15  A    between atoms: O_26  and  C_27
REMARK                            x       y       z     vdW  Elec       q    Type
REMARK                         _______ _______ _______ _____ _____    ______ ____
ROOT
ATOM      1  N   UNL     1      -1.332  -4.799   2.376  0.00  0.00    -0.261 N 
ATOM      2  C   UNL     1      -1.429  -4.172   3.567  0.00  0.00    +0.260 C 
ATOM      3  O   UNL     1      -1.312  -4.803   4.596  0.00  0.00    -0.271 OA
ENDROOT
BRANCH   1   4
ATOM      4  C   UNL     1      -1.348  -4.050   1.181  0.00  0.00    +0.140 A 
ATOM      5  C   UNL     1      -2.391  -4.177   0.287  0.00  0.00    +0.127 A 
ATOM      6  N   UNL     1      -2.378  -3.433  -0.871  0.00  0.00    -0.280 N 
ATOM      7  C   UNL     1      -1.357  -2.596  -1.130  0.00  0.00    +0.331 A 
ATOM      8  O   UNL     1      -1.362  -1.951  -2.161  0.00  0.00    -0.246 OA
ATOM      9  N   UNL     1      -0.335  -2.456  -0.268  0.00  0.00    -0.273 N 
ATOM     10  H   UNL     1       0.408  -1.821  -0.481  0.00  0.00    +0.173 HD
ATOM     11  C   UNL     1      -0.299  -3.161   0.879  0.00  0.00    +0.277 A 
ATOM     12  O   UNL     1       0.635  -3.029   1.652  0.00  0.00    -0.266 OA
BRANCH   5  13
ATOM     13  N   UNL     1      -3.431  -5.036   0.549  0.00  0.00    -0.343 N 
ATOM     14  H   UNL     1      -4.196  -5.068  -0.047  0.00  0.00    +0.144 HD
ATOM     15  H   UNL     1      -3.400  -5.611   1.330  0.00  0.00    +0.144 HD
ENDBRANCH   5  13
BRANCH   6  16
ATOM     16  C   UNL     1      -3.479  -3.558  -1.829  0.00  0.00    +0.128 C 
BRANCH  16  17
ATOM     17  C   UNL     1      -4.569  -2.540  -1.488  0.00  0.00    +0.021 C 
BRANCH  17  18
ATOM     18  C   UNL     1      -5.719  -2.671  -2.489  0.00  0.00    -0.002 C 
ATOM     19  C   UNL     1      -6.810  -1.652  -2.149  0.00  0.00    +0.004 C 
ENDBRANCH  17  18
ENDBRANCH  16  17
ENDBRANCH   6  16
ENDBRANCH   1   4
BRANCH   2  20
ATOM     20  C   UNL     1      -1.682  -2.687   3.618  0.00  0.00    +0.256 C 
ATOM     21  C   UNL     1      -3.110  -2.397   3.151  0.00  0.00    +0.062 C 
BRANCH  20  22
ATOM     22  O   UNL     1      -1.516  -2.222   4.959  0.00  0.00    -0.480 OA
BRANCH  22  23
ATOM     23  C   UNL     1      -1.190  -0.912   5.121  0.00  0.00    +0.122 A 
ATOM     24  C   UNL     1      -1.133  -0.069   4.021  0.00  0.00    +0.047 A 
ATOM     25  C   UNL     1      -0.808   1.263   4.189  0.00  0.00    +0.019 A 
ATOM     26  C   UNL     1      -0.527   1.754   5.452  0.00  0.00    +0.018 A 
ATOM     27  C   UNL     1      -0.577   0.913   6.549  0.00  0.00    +0.019 A 
ATOM     28  C   UNL     1      -0.908  -0.418   6.386  0.00  0.00    +0.047 A 
ATOM     29 BR   UNL     1      -0.075   3.576   5.678  0.00  0.00    -0.050 Br
ENDBRANCH  22  23
ENDBRANCH  20  22
ENDBRANCH   2  20
BRANCH   1  30
ATOM     30  C   UNL     1      -1.211  -6.258   2.325  0.00  0.00    +0.114 C 
BRANCH  30  31
ATOM     31  C   UNL     1       0.267  -6.645   2.238  0.00  0.00    +0.019 C 
BRANCH  31  32
ATOM     32  C   UNL     1       0.389  -8.159   2.059  0.00  0.00    +0.001 C 
BRANCH  32  34
ATOM     33  C   UNL     1       1.988 -10.060   1.794  0.00  0.00    +0.004 C 
ATOM     34  C   UNL     1       1.867  -8.546   1.973  0.00  0.00    -0.003 C 
ENDBRANCH  32  34
ENDBRANCH  31  32
ENDBRANCH  30  31
ENDBRANCH   1  30
TORSDOF 12
