REMARK  Name = ZINC17983337
REMARK  13 active torsions:
REMARK  status: ('A' for Active; 'I' for Inactive)
REMARK    1  A    between atoms: C_1  and  C_2
REMARK    2  A    between atoms: C_2  and  O_3
REMARK    3  A    between atoms: O_3  and  C_4
REMARK    4  A    between atoms: C_4  and  C_6
REMARK    5  A    between atoms: C_7  and  C_32
REMARK    6  A    between atoms: C_8  and  C_28
REMARK    7  A    between atoms: C_10  and  N_11
REMARK    8  A    between atoms: C_12  and  C_14
REMARK    9  A    between atoms: C_14  and  S_15
REMARK   10  A    between atoms: S_15  and  C_16
REMARK   11  A    between atoms: N_21  and  C_22
REMARK   12  A    between atoms: C_22  and  C_23
REMARK   13  A    between atoms: N_30  and  C_31
REMARK                            x       y       z     vdW  Elec       q    Type
REMARK                         _______ _______ _______ _____ _____    ______ ____
ROOT
ATOM      1  N   UNL     1       0.002  -0.004   0.002  0.00  0.00    -0.279 N 
ATOM      2  C   UNL     1      -1.156  -0.694   0.009  0.00  0.00    +0.228 C 
ATOM      3  O   UNL     1      -2.214  -0.102   0.023  0.00  0.00    -0.275 OA
ATOM      4  H   UNL     1       0.849  -0.478  -0.009  0.00  0.00    +0.155 HD
ENDROOT
BRANCH   1   9
ATOM      5  C   UNL     1       1.065   2.264   0.004  0.00  0.00    +0.091 A 
ATOM      6  C   UNL     1       0.786   3.622   0.013  0.00  0.00    -0.015 A 
ATOM      7  C   UNL     1      -0.528   4.001   0.028  0.00  0.00    +0.079 A 
ATOM      8  S   UNL     1      -1.387   2.439   0.021  0.00  0.00    -0.068 S 
ATOM      9  C   UNL     1      -0.017   1.377   0.010  0.00  0.00    +0.087 A 
ATOM     10  C   UNL     1       1.893   4.645   0.009  0.00  0.00    +0.046 C 
BRANCH   7  11
ATOM     11  C   UNL     1      -1.090   5.353   0.040  0.00  0.00    +0.251 C 
ATOM     12  O   UNL     1      -0.350   6.320   0.038  0.00  0.00    -0.270 OA
ATOM     13  N   UNL     1      -2.426   5.527   0.053  0.00  0.00    -0.314 N 
ATOM     14  C   UNL     1      -2.989   6.880   0.065  0.00  0.00    +0.128 C 
ATOM     15  H   UNL     1      -3.016   4.757   0.055  0.00  0.00    +0.149 HD
ENDBRANCH   7  11
BRANCH   5  16
ATOM     16  C   UNL     1       2.448   1.773  -0.011  0.00  0.00    +0.342 C 
ATOM     17  O   UNL     1       3.012   1.575  -1.070  0.00  0.00    -0.245 OA
BRANCH  16  18
ATOM     18  O   UNL     1       3.094   1.542   1.150  0.00  0.00    -0.461 OA
BRANCH  18  20
ATOM     19  C   UNL     1       5.023   0.854   2.467  0.00  0.00    +0.048 C 
ATOM     20  C   UNL     1       4.460   1.057   1.059  0.00  0.00    +0.229 C 
ENDBRANCH  18  20
ENDBRANCH  16  18
ENDBRANCH   5  16
ENDBRANCH   1   9
BRANCH   2  21
ATOM     21  C   UNL     1      -1.135  -2.201   0.001  0.00  0.00    +0.172 C 
BRANCH  21  22
ATOM     22  S   UNL     1      -2.837  -2.829   0.014  0.00  0.00    -0.088 S 
BRANCH  22  23
ATOM     23  C   UNL     1      -2.645  -4.580   0.003  0.00  0.00    +0.160 A 
ATOM     24  N   UNL     1      -1.540  -5.300  -0.011  0.00  0.00    -0.133 NA
ATOM     25  N   UNL     1      -1.618  -6.673  -0.017  0.00  0.00    -0.125 NA
ATOM     26  C   UNL     1      -2.797  -7.264  -0.009  0.00  0.00    +0.183 A 
ATOM     27  S   UNL     1      -3.896  -5.856   0.015  0.00  0.00    -0.025 S 
ATOM     28  N   UNL     1      -3.103  -8.620  -0.013  0.00  0.00    -0.315 N 
ATOM     29  H   UNL     1      -4.029  -8.908  -0.005  0.00  0.00    +0.148 HD
BRANCH  28  30
ATOM     30  C   UNL     1      -2.027  -9.614  -0.028  0.00  0.00    +0.178 C 
BRANCH  30  31
ATOM     31  C   UNL     1      -2.621 -10.998  -0.029  0.00  0.00    +0.122 A 
ATOM     32  C   UNL     1      -2.942 -11.716  -1.121  0.00  0.00    +0.046 A 
ATOM     33  C   UNL     1      -3.466 -12.947  -0.663  0.00  0.00    +0.041 A 
ATOM     34  C   UNL     1      -3.433 -12.908   0.681  0.00  0.00    +0.195 A 
ATOM     35  O   UNL     1      -2.915 -11.728   1.060  0.00  0.00    -0.466 OA
ENDBRANCH  30  31
ENDBRANCH  28  30
ENDBRANCH  22  23
ENDBRANCH  21  22
ENDBRANCH   2  21
TORSDOF 10
