REMARK  Name = ZINC12585990
REMARK  9 active torsions:
REMARK  status: ('A' for Active; 'I' for Inactive)
REMARK    1  A    between atoms: C_4  and  C_7
REMARK    2  A    between atoms: C_7  and  N_8
REMARK    3  A    between atoms: N_8  and  S_9
REMARK    4  A    between atoms: S_9  and  C_12
REMARK    5  A    between atoms: C_14  and  C_19
REMARK    6  A    between atoms: N_21  and  C_22
REMARK    7  A    between atoms: C_22  and  C_23
REMARK    8  A    between atoms: C_23  and  C_25
REMARK    9  A    between atoms: C_23  and  N_59
REMARK                            x       y       z     vdW  Elec       q    Type
REMARK                         _______ _______ _______ _____ _____    ______ ____
ROOT
ATOM      1  C   UNL     1      -2.357   6.895  -5.908  0.00  0.00    +0.124 A 
ATOM      2  C   UNL     1      -2.528   5.537  -5.740  0.00  0.00    +0.043 A 
ATOM      3  C   UNL     1      -1.782   4.857  -4.776  0.00  0.00    +0.039 A 
ATOM      4  C   UNL     1      -0.870   5.557  -3.985  0.00  0.00    +0.014 A 
ATOM      5  C   UNL     1      -0.703   6.913  -4.166  0.00  0.00    +0.023 A 
ATOM      6  C   UNL     1      -1.446   7.584  -5.124  0.00  0.00    +0.067 A 
ATOM      7 CL   UNL     1      -1.235   9.293  -5.342  0.00  0.00    -0.082 Cl
ENDROOT
BRANCH   3   8
ATOM      8  C   UNL     1      -1.962   3.401  -4.590  0.00  0.00    +0.244 C 
ATOM      9  O   UNL     1      -2.760   2.795  -5.277  0.00  0.00    -0.270 OA
ATOM     10  N   UNL     1      -1.240   2.747  -3.659  0.00  0.00    -0.312 N 
ATOM     11  H   UNL     1      -0.603   3.231  -3.111  0.00  0.00    +0.149 HD
BRANCH  10  12
ATOM     12  C   UNL     1      -1.418   1.304  -3.475  0.00  0.00    +0.097 C 
BRANCH  12  13
ATOM     13  C   UNL     1      -0.487   0.813  -2.365  0.00  0.00    +0.016 C 
BRANCH  13  18
ATOM     14  C   UNL     1      -0.061   0.968   0.028  0.00  0.00    -0.078 C 
ATOM     15  C   UNL     1      -0.808   1.536   1.253  0.00  0.00    -0.020 C 
ATOM     16  C   UNL     1      -2.198   1.949   0.716  0.00  0.00    -0.020 C 
ATOM     17  C   UNL     1      -2.169   1.594  -0.786  0.00  0.00    -0.078 C 
ATOM     18  N   UNL     1      -0.745   1.591  -1.112  0.00  0.00    +0.387 N 
ATOM     19  H   UNL     1      -0.411   2.554  -1.238  0.00  0.00    -0.081 HD
ENDBRANCH  13  18
BRANCH  13  20
ATOM     20  C   UNL     1      -0.757  -0.644  -2.091  0.00  0.00    +0.093 A 
ATOM     21  C   UNL     1       0.039  -1.671  -2.440  0.00  0.00    +0.043 A 
ATOM     22  C   UNL     1      -0.594  -2.851  -1.988  0.00  0.00    +0.041 A 
ATOM     23  C   UNL     1      -1.742  -2.476  -1.396  0.00  0.00    +0.195 A 
ATOM     24  O   UNL     1      -1.836  -1.138  -1.462  0.00  0.00    -0.469 OA
ENDBRANCH  13  20
ENDBRANCH  12  13
ENDBRANCH  10  12
ENDBRANCH   3   8
BRANCH   1  25
ATOM     25  S   UNL     1      -3.297   7.756  -7.124  0.00  0.00    +0.060 S 
ATOM     26  O   UNL     1      -2.376   8.542  -7.869  0.00  0.00    -0.153 OA
ATOM     27  O   UNL     1      -4.147   6.796  -7.736  0.00  0.00    -0.153 OA
BRANCH  25  28
ATOM     28  N   UNL     1      -4.282   8.817  -6.321  0.00  0.00    -0.186 NA
ATOM     29  H   UNL     1      -5.245   8.705  -6.355  0.00  0.00    +0.148 HD
BRANCH  28  30
ATOM     30  C   UNL     1      -3.700   9.925  -5.559  0.00  0.00    +0.141 C 
BRANCH  30  34
ATOM     31  C   UNL     1      -6.740  12.786  -4.655  0.00  0.00    +0.000 A 
ATOM     32  C   UNL     1      -6.487  11.746  -3.780  0.00  0.00    +0.000 A 
ATOM     33  C   UNL     1      -5.504  10.820  -4.072  0.00  0.00    +0.005 A 
ATOM     34  C   UNL     1      -4.773  10.934  -5.240  0.00  0.00    -0.032 A 
ATOM     35  C   UNL     1      -5.022  11.977  -6.112  0.00  0.00    +0.005 A 
ATOM     36  C   UNL     1      -6.009  12.900  -5.822  0.00  0.00    +0.000 A 
ENDBRANCH  30  34
ENDBRANCH  28  30
ENDBRANCH  25  28
ENDBRANCH   1  25
TORSDOF 9
