REMARK  Name = ZINC39676551
REMARK  12 active torsions:
REMARK  status: ('A' for Active; 'I' for Inactive)
REMARK    1  A    between atoms: C_1  and  C_2
REMARK    2  A    between atoms: C_2  and  C_3
REMARK    3  A    between atoms: C_3  and  C_4
REMARK    4  A    between atoms: C_4  and  C_5
REMARK    5  A    between atoms: C_9  and  C_18
REMARK    6  A    between atoms: N_20  and  C_21
REMARK    7  A    between atoms: C_21  and  C_22
REMARK    8  A    between atoms: C_21  and  C_30
REMARK    9  A    between atoms: C_25  and  O_28
REMARK   10  A    between atoms: O_28  and  C_29
REMARK   11  A    between atoms: C_33  and  O_36
REMARK   12  A    between atoms: O_36  and  C_37
REMARK                            x       y       z     vdW  Elec       q    Type
REMARK                         _______ _______ _______ _____ _____    ______ ____
ROOT
ATOM      1  C   UNL     1      -2.076  -5.921   2.335  0.00  0.00    +0.219 C 
ATOM      2  O   UNL     1      -1.665  -4.840   2.702  0.00  0.00    -0.275 OA
ATOM      3  N   UNL     1      -2.029  -6.979   3.168  0.00  0.00    -0.304 N 
ATOM      4  H   UNL     1      -2.357  -7.843   2.874  0.00  0.00    +0.150 HD
ENDROOT
BRANCH   1   9
ATOM      5  C   UNL     1      -2.533  -2.615  -0.101  0.00  0.00    +0.216 C 
ATOM      6  O   UNL     1      -3.399  -1.766  -0.123  0.00  0.00    -0.276 OA
ATOM      7  N   UNL     1      -2.869  -3.920  -0.065  0.00  0.00    -0.300 N 
ATOM      8  C   UNL     1      -1.961  -5.090  -0.027  0.00  0.00    +0.121 C 
ATOM      9  C   UNL     1      -2.640  -6.080   0.946  0.00  0.00    +0.100 C 
ATOM     10  C   UNL     1      -4.129  -5.693   0.923  0.00  0.00    -0.004 C 
ATOM     11  C   UNL     1      -4.230  -4.507  -0.047  0.00  0.00    +0.115 C 
ATOM     12  C   UNL     1      -4.971  -6.862   0.420  0.00  0.00    -0.010 C 
ATOM     13  C   UNL     1      -6.451  -6.474   0.461  0.00  0.00    -0.082 C 
ATOM     14  N   UNL     1      -6.831  -6.128   1.836  0.00  0.00    +0.379 N 
ATOM     15  C   UNL     1      -6.083  -4.946   2.280  0.00  0.00    -0.082 C 
ATOM     16  C   UNL     1      -4.586  -5.269   2.316  0.00  0.00    -0.010 C 
ATOM     17  H   UNL     1      -7.820  -5.932   1.872  0.00  0.00    -0.086 HD
ATOM     18  H   UNL     1      -6.622  -6.905   2.446  0.00  0.00    -0.086 HD
BRANCH   5  19
ATOM     19  C   UNL     1      -1.081  -2.211  -0.113  0.00  0.00    +0.096 C 
BRANCH  19  20
ATOM     20  C   UNL     1      -0.977  -0.685  -0.155  0.00  0.00    +0.009 C 
BRANCH  20  22
ATOM     21  C   UNL     1       0.601   1.252  -0.210  0.00  0.00    +0.004 C 
ATOM     22  C   UNL     1       0.497  -0.274  -0.168  0.00  0.00    -0.003 C 
ENDBRANCH  20  22
ENDBRANCH  19  20
ENDBRANCH   5  19
ENDBRANCH   1   9
BRANCH   3  23
ATOM     23  C   UNL     1      -1.480  -6.824   4.518  0.00  0.00    +0.134 C 
BRANCH  23  24
ATOM     24  C   UNL     1      -2.064  -7.879   5.421  0.00  0.00    -0.023 A 
ATOM     25  C   UNL     1      -2.239  -9.169   4.954  0.00  0.00    +0.009 A 
ATOM     26  C   UNL     1      -2.774 -10.138   5.780  0.00  0.00    +0.046 A 
ATOM     27  C   UNL     1      -3.138  -9.816   7.080  0.00  0.00    +0.120 A 
ATOM     28  C   UNL     1      -2.961  -8.521   7.546  0.00  0.00    +0.046 A 
ATOM     29  C   UNL     1      -2.420  -7.557   6.718  0.00  0.00    +0.009 A 
BRANCH  27  30
ATOM     30  O   UNL     1      -3.665 -10.767   7.894  0.00  0.00    -0.495 OA
ATOM     31  C   UNL     1      -4.016 -10.364   9.220  0.00  0.00    +0.277 C 
ENDBRANCH  27  30
ENDBRANCH  23  24
BRANCH  23  32
ATOM     32  C   UNL     1       0.018  -6.976   4.471  0.00  0.00    -0.023 A 
ATOM     33  C   UNL     1       0.590  -7.936   3.656  0.00  0.00    +0.009 A 
ATOM     34  C   UNL     1       1.963  -8.077   3.612  0.00  0.00    +0.046 A 
ATOM     35  C   UNL     1       2.769  -7.256   4.387  0.00  0.00    +0.120 A 
ATOM     36  C   UNL     1       2.194  -6.294   5.204  0.00  0.00    +0.046 A 
ATOM     37  C   UNL     1       0.820  -6.153   5.240  0.00  0.00    +0.009 A 
BRANCH  35  38
ATOM     38  O   UNL     1       4.121  -7.394   4.346  0.00  0.00    -0.495 OA
ATOM     39  C   UNL     1       4.888  -6.514   5.170  0.00  0.00    +0.277 C 
ENDBRANCH  35  38
ENDBRANCH  23  32
ENDBRANCH   3  23
TORSDOF 9
