REMARK  Name = ZINC09886551
REMARK  10 active torsions:
REMARK  status: ('A' for Active; 'I' for Inactive)
REMARK    1  A    between atoms: C_1  and  C_2
REMARK    2  A    between atoms: C_2  and  C_3
REMARK    3  A    between atoms: C_2  and  C_4
REMARK    4  A    between atoms: C_4  and  C_6
REMARK    5  A    between atoms: C_4  and  N_28
REMARK    6  A    between atoms: N_8  and  N_9
REMARK    7  A    between atoms: C_10  and  C_11
REMARK    8  A    between atoms: N_13  and  C_20
REMARK    9  A    between atoms: C_20  and  C_21
REMARK   10  A    between atoms: C_29  and  C_31
REMARK                            x       y       z     vdW  Elec       q    Type
REMARK                         _______ _______ _______ _____ _____    ______ ____
ROOT
ATOM      1  C   UNL     1      -3.752   4.440   0.010  0.00  0.00    +0.253 C 
ATOM      2  O   UNL     1      -4.378   5.424  -0.326  0.00  0.00    -0.272 OA
ATOM      3  N   UNL     1      -2.584   4.577   0.669  0.00  0.00    -0.205 N 
ATOM      4  H   UNL     1      -2.119   3.793   0.999  0.00  0.00    +0.177 HD
ENDROOT
BRANCH   3   5
ATOM      5  N   UNL     1      -2.044   5.853   0.878  0.00  0.00    -0.188 NA
ATOM      6  C   UNL     1      -0.979   5.995   1.609  0.00  0.00    +0.140 C 
BRANCH   6   7
ATOM      7  C   UNL     1      -0.466   4.858   2.391  0.00  0.00    +0.020 A 
ATOM      8  C   UNL     1      -1.160   3.750   2.765  0.00  0.00    +0.096 A 
ATOM      9  N   UNL     1      -0.348   2.919   3.479  0.00  0.00    -0.342 N 
ATOM     10  C   UNL     1       0.913   3.465   3.593  0.00  0.00    +0.050 A 
ATOM     11  C   UNL     1       0.900   4.699   2.921  0.00  0.00    +0.009 A 
ATOM     12  C   UNL     1       2.053   5.480   2.873  0.00  0.00    +0.010 A 
ATOM     13  C   UNL     1       3.201   5.038   3.491  0.00  0.00    +0.001 A 
ATOM     14  C   UNL     1       3.217   3.817   4.151  0.00  0.00    +0.002 A 
ATOM     15  C   UNL     1       2.085   3.035   4.206  0.00  0.00    +0.026 A 
BRANCH   9  16
ATOM     16  C   UNL     1      -0.757   1.631   4.043  0.00  0.00    +0.157 C 
BRANCH  16  17
ATOM     17  C   UNL     1      -1.172   1.820   5.480  0.00  0.00    -0.028 A 
ATOM     18  C   UNL     1      -0.236   1.699   6.491  0.00  0.00    +0.008 A 
ATOM     19  C   UNL     1      -0.615   1.878   7.808  0.00  0.00    +0.038 A 
ATOM     20  C   UNL     1      -1.933   2.168   8.115  0.00  0.00    +0.123 A 
ATOM     21  C   UNL     1      -2.870   2.284   7.102  0.00  0.00    +0.038 A 
ATOM     22  C   UNL     1      -2.488   2.110   5.786  0.00  0.00    +0.008 A 
ATOM     23  F   UNL     1      -2.305   2.338   9.403  0.00  0.00    -0.205 F 
ENDBRANCH  16  17
ENDBRANCH   9  16
ENDBRANCH   6   7
ENDBRANCH   3   5
BRANCH   1  24
ATOM     24  C   UNL     1      -4.280   3.066  -0.309  0.00  0.00    +0.163 C 
BRANCH  24  25
ATOM     25  N   UNL     1      -5.691   3.161  -0.693  0.00  0.00    -0.300 N 
ATOM     26  C   UNL     1      -6.505   2.099  -0.538  0.00  0.00    +0.245 C 
ATOM     27  O   UNL     1      -6.069   1.061  -0.079  0.00  0.00    -0.270 OA
ATOM     28  H   UNL     1      -6.039   3.990  -1.059  0.00  0.00    +0.150 HD
BRANCH  26  29
ATOM     29  C   UNL     1      -7.928   2.195  -0.925  0.00  0.00    +0.037 A 
ATOM     30  C   UNL     1      -8.433   3.388  -1.447  0.00  0.00    +0.014 A 
ATOM     31  C   UNL     1      -9.760   3.470  -1.813  0.00  0.00    +0.021 A 
ATOM     32  C   UNL     1     -10.595   2.376  -1.652  0.00  0.00    +0.041 A 
ATOM     33  C   UNL     1     -10.101   1.192  -1.129  0.00  0.00    +0.021 A 
ATOM     34  C   UNL     1      -8.774   1.096  -0.766  0.00  0.00    +0.014 A 
ATOM     35 CL   UNL     1     -12.266   2.489  -2.107  0.00  0.00    -0.084 Cl
ENDBRANCH  26  29
ENDBRANCH  24  25
BRANCH  24  37
ATOM     36  C   UNL     1      -3.499   3.428  -2.654  0.00  0.00    +0.009 C 
ATOM     37  C   UNL     1      -3.477   2.466  -1.465  0.00  0.00    +0.012 C 
ATOM     38  C   UNL     1      -2.031   2.241  -1.018  0.00  0.00    +0.009 C 
ENDBRANCH  24  37
ENDBRANCH   1  24
TORSDOF 8
