REMARK  Name = ZINC63384091
REMARK  6 active torsions:
REMARK  status: ('A' for Active; 'I' for Inactive)
REMARK    1  A    between atoms: C_1  and  C_2
REMARK    2  A    between atoms: C_2  and  N_3
REMARK    3  A    between atoms: C_16  and  C_18
REMARK    4  A    between atoms: N_24  and  C_27
REMARK    5  A    between atoms: C_31  and  C_34
REMARK    6  A    between atoms: C_32  and  C_33
REMARK                            x       y       z     vdW  Elec       q    Type
REMARK                         _______ _______ _______ _____ _____    ______ ____
ROOT
ATOM      1  C   UNL     1       1.420  -2.346  -0.218  0.00  0.00    +0.071 A 
ATOM      2  C   UNL     1       2.651  -1.811  -0.638  0.00  0.00    +0.259 A 
ATOM      3  N   UNL     1       3.160  -2.173  -1.832  0.00  0.00    -0.274 N 
ATOM      4  H   UNL     1       4.010  -1.806  -2.124  0.00  0.00    +0.173 HD
ATOM      5  C   UNL     1       2.501  -3.039  -2.622  0.00  0.00    +0.337 A 
ATOM      6  O   UNL     1       2.977  -3.354  -3.696  0.00  0.00    -0.246 OA
ATOM      7  N   UNL     1       1.321  -3.563  -2.242  0.00  0.00    -0.229 N 
ATOM      8  C   UNL     1       0.768  -3.226  -1.030  0.00  0.00    +0.266 A 
ATOM      9  O   UNL     1      -0.412  -3.758  -0.649  0.00  0.00    -0.267 OA
ATOM     10  O   UNL     1       3.253  -1.026   0.073  0.00  0.00    -0.267 OA
ENDROOT
BRANCH   1  23
ATOM     11  N   UNL     1       0.713  -0.491   1.192  0.00  0.00    +0.386 N 
ATOM     12  C   UNL     1      -0.015  -0.063   2.389  0.00  0.00    -0.073 C 
ATOM     13  C   UNL     1       0.788  -0.411   3.657  0.00  0.00    +0.015 C 
ATOM     14  C   UNL     1       1.155  -1.869   3.531  0.00  0.00    -0.041 C 
ATOM     15  C   UNL     1       1.050  -2.893   4.363  0.00  0.00    -0.001 A 
ATOM     16  C   UNL     1       0.665  -2.972   5.782  0.00  0.00    +0.010 A 
ATOM     17  C   UNL     1       0.637  -4.216   6.328  0.00  0.00    +0.001 A 
ATOM     18  C   UNL     1       0.951  -5.377   5.614  0.00  0.00    +0.002 A 
ATOM     19  C   UNL     1       1.327  -5.397   4.310  0.00  0.00    +0.026 A 
ATOM     20  C   UNL     1       1.403  -4.148   3.630  0.00  0.00    +0.043 A 
ATOM     21  N   UNL     1       1.759  -3.876   2.408  0.00  0.00    -0.379 N 
ATOM     22  C   UNL     1       1.752  -2.425   2.241  0.00  0.00    +0.097 C 
ATOM     23  C   UNL     1       0.831  -1.955   1.113  0.00  0.00    -0.000 C 
ATOM     24  H   UNL     1       1.990  -4.525   1.725  0.00  0.00    +0.160 HD
ATOM     25  H   UNL     1       1.637  -0.087   1.210  0.00  0.00    -0.081 HD
BRANCH  11  27
ATOM     26  C   UNL     1      -0.019   1.526   0.010  0.00  0.00    -0.017 C 
ATOM     27  C   UNL     1       0.002  -0.004   0.002  0.00  0.00    -0.081 C 
ENDBRANCH  11  27
ENDBRANCH   1  23
BRANCH   7  28
ATOM     28  C   UNL     1       0.655  -4.464  -3.084  0.00  0.00    +0.058 A 
ATOM     29  C   UNL     1       0.896  -5.827  -2.975  0.00  0.00    +0.027 A 
ATOM     30  C   UNL     1       0.238  -6.712  -3.806  0.00  0.00    +0.002 A 
ATOM     31  C   UNL     1      -0.660  -6.241  -4.747  0.00  0.00    +0.004 A 
ATOM     32  C   UNL     1      -0.901  -4.885  -4.859  0.00  0.00    -0.046 A 
ATOM     33  C   UNL     1      -0.251  -3.995  -4.025  0.00  0.00    -0.023 A 
ATOM     34  C   UNL     1      -0.520  -2.517  -4.143  0.00  0.00    +0.046 C 
ATOM     35  C   UNL     1      -1.879  -4.376  -5.886  0.00  0.00    +0.044 C 
ENDBRANCH   7  28
TORSDOF 3
