REMARK  Name = ZINC00843840
REMARK  11 active torsions:
REMARK  status: ('A' for Active; 'I' for Inactive)
REMARK    1  A    between atoms: C_1  and  C_2
REMARK    2  A    between atoms: C_5  and  N_9
REMARK    3  A    between atoms: C_6  and  C_8
REMARK    4  A    between atoms: N_9  and  S_10
REMARK    5  A    between atoms: S_10  and  C_13
REMARK    6  A    between atoms: N_20  and  O_21
REMARK    7  A    between atoms: C_26  and  S_28
REMARK    8  A    between atoms: S_28  and  N_31
REMARK    9  A    between atoms: N_31  and  C_32
REMARK   10  A    between atoms: C_35  and  C_39
REMARK   11  A    between atoms: C_37  and  C_38
REMARK                            x       y       z     vdW  Elec       q    Type
REMARK                         _______ _______ _______ _____ _____    ______ ____
ROOT
ATOM      1  C   UNL     1       2.248  -5.139  -0.201  0.00  0.00    +0.109 A 
ATOM      2  C   UNL     1       2.689  -3.973  -0.802  0.00  0.00    +0.029 A 
ATOM      3  C   UNL     1       4.035  -3.663  -0.827  0.00  0.00    +0.011 A 
ATOM      4  C   UNL     1       4.959  -4.527  -0.246  0.00  0.00    -0.008 A 
ATOM      5  C   UNL     1       4.510  -5.710   0.363  0.00  0.00    +0.014 A 
ATOM      6  C   UNL     1       3.151  -6.006   0.385  0.00  0.00    +0.039 A 
ATOM      7  C   UNL     1       5.695  -6.427   0.891  0.00  0.00    +0.118 C 
ATOM      8  N   UNL     1       5.695  -7.564   1.523  0.00  0.00    -0.086 NA
ATOM      9  C   UNL     1       6.881  -5.602   0.561  0.00  0.00    +0.014 A 
ATOM     10  C   UNL     1       6.434  -4.460  -0.122  0.00  0.00    -0.008 A 
ATOM     11  C   UNL     1       7.359  -3.511  -0.550  0.00  0.00    +0.011 A 
ATOM     12  C   UNL     1       8.704  -3.697  -0.300  0.00  0.00    +0.029 A 
ATOM     13  C   UNL     1       9.144  -4.823   0.373  0.00  0.00    +0.109 A 
ATOM     14  C   UNL     1       8.240  -5.775   0.805  0.00  0.00    +0.039 A 
ENDROOT
BRANCH   1  15
ATOM     15  S   UNL     1       0.527  -5.518  -0.178  0.00  0.00    +0.072 S 
ATOM     16  O   UNL     1       0.423  -6.927  -0.032  0.00  0.00    -0.150 OA
ATOM     17  O   UNL     1      -0.057  -4.820  -1.269  0.00  0.00    -0.150 OA
BRANCH  15  18
ATOM     18  N   UNL     1      -0.102  -4.851   1.201  0.00  0.00    -0.216 N 
ATOM     19  H   UNL     1      -0.525  -5.419   1.865  0.00  0.00    +0.174 HD
BRANCH  18  24
ATOM     20  C   UNL     1       0.213   0.747   2.046  0.00  0.00    +0.044 C 
ATOM     21  C   UNL     1       0.130  -0.741   1.822  0.00  0.00    -0.050 A 
ATOM     22  C   UNL     1      -0.062  -1.236   0.545  0.00  0.00    +0.005 A 
ATOM     23  C   UNL     1      -0.140  -2.599   0.336  0.00  0.00    +0.025 A 
ATOM     24  C   UNL     1      -0.024  -3.472   1.409  0.00  0.00    +0.051 A 
ATOM     25  C   UNL     1       0.170  -2.971   2.690  0.00  0.00    -0.028 A 
ATOM     26  C   UNL     1       0.252  -1.607   2.892  0.00  0.00    +0.008 A 
ATOM     27  C   UNL     1       0.297  -3.916   3.858  0.00  0.00    +0.046 C 
ENDBRANCH  18  24
ENDBRANCH  15  18
ENDBRANCH   1  15
BRANCH  13  28
ATOM     28  S   UNL     1      10.865  -5.045   0.682  0.00  0.00    +0.072 S 
ATOM     29  O   UNL     1      11.071  -6.441   0.847  0.00  0.00    -0.150 OA
ATOM     30  O   UNL     1      11.555  -4.284  -0.300  0.00  0.00    -0.150 OA
BRANCH  28  31
ATOM     31  N   UNL     1      11.194  -4.341   2.144  0.00  0.00    -0.216 N 
ATOM     32  H   UNL     1      11.835  -3.615   2.199  0.00  0.00    +0.174 HD
BRANCH  31  33
ATOM     33  C   UNL     1      10.550  -4.794   3.298  0.00  0.00    +0.051 A 
ATOM     34  C   UNL     1      10.259  -6.144   3.449  0.00  0.00    +0.025 A 
ATOM     35  C   UNL     1       9.623  -6.588   4.591  0.00  0.00    +0.005 A 
ATOM     36  C   UNL     1       9.275  -5.690   5.584  0.00  0.00    -0.050 A 
ATOM     37  C   UNL     1       9.564  -4.346   5.437  0.00  0.00    +0.008 A 
ATOM     38  C   UNL     1      10.205  -3.896   4.300  0.00  0.00    -0.028 A 
ATOM     39  C   UNL     1      10.524  -2.431   4.143  0.00  0.00    +0.046 C 
ATOM     40  C   UNL     1       8.581  -6.178   6.829  0.00  0.00    +0.044 C 
ENDBRANCH  31  33
ENDBRANCH  28  31
ENDBRANCH  13  28
BRANCH   8  41
ATOM     41  O   UNL     1       6.915  -8.127   1.969  0.00  0.00    -0.409 OA
ATOM     42  H   UNL     1       6.814  -8.973   2.427  0.00  0.00    +0.328 HD
ENDBRANCH   8  41
TORSDOF 7
