REMARK  Name = ZINC39916139
REMARK  17 active torsions:
REMARK  status: ('A' for Active; 'I' for Inactive)
REMARK    1  A    between atoms: C_1  and  C_2
REMARK    2  A    between atoms: C_2  and  C_3
REMARK    3  A    between atoms: C_2  and  C_4
REMARK    4  A    between atoms: C_2  and  C_5
REMARK    5  A    between atoms: C_5  and  C_6
REMARK    6  A    between atoms: C_6  and  C_7
REMARK    7  A    between atoms: C_6  and  C_8
REMARK    8  A    between atoms: C_6  and  N_9
REMARK    9  A    between atoms: N_9  and  C_10
REMARK   10  A    between atoms: C_10  and  C_11
REMARK   11  A    between atoms: C_11  and  C_13
REMARK   12  A    between atoms: C_11  and  O_27
REMARK   13  A    between atoms: C_13  and  O_14
REMARK   14  A    between atoms: O_14  and  C_15
REMARK   15  A    between atoms: C_15  and  C_16
REMARK   16  A    between atoms: C_16  and  O_17
REMARK   17  A    between atoms: O_17  and  C_18
REMARK                            x       y       z     vdW  Elec       q    Type
REMARK                         _______ _______ _______ _____ _____    ______ ____
ROOT
ATOM      1  C   UNL     1       4.396  -0.230  -3.541  0.00  0.00    +0.123 C 
ENDROOT
BRANCH   1   2
ATOM      2  O   UNL     1       3.722   0.229  -4.715  0.00  0.00    -0.391 OA
ATOM      3  H   UNL     1       3.690   1.192  -4.798  0.00  0.00    +0.210 HD
ENDBRANCH   1   2
BRANCH   1   4
ATOM      4  C   UNL     1       3.682   0.308  -2.299  0.00  0.00    -0.048 C 
BRANCH   4   5
ATOM      5  N   UNL     1       2.333  -0.268  -2.223  0.00  0.00    +0.384 N 
ATOM      6  H   UNL     1       2.400  -1.273  -2.164  0.00  0.00    -0.085 HD
ATOM      7  H   UNL     1       1.811  -0.013  -3.047  0.00  0.00    -0.085 HD
BRANCH   5   8
ATOM      8  C   UNL     1       1.648   0.248  -1.030  0.00  0.00    -0.073 C 
ATOM      9  C   UNL     1       1.346   1.736  -1.220  0.00  0.00    -0.010 C 
ATOM     10  C   UNL     1       2.545   0.061   0.195  0.00  0.00    -0.010 C 
BRANCH   8  11
ATOM     11  C   UNL     1       0.338  -0.516  -0.825  0.00  0.00    -0.007 C 
BRANCH  11  13
ATOM     12  C   UNL     1       0.519  -1.831  -2.941  0.00  0.00    +0.010 C 
ATOM     13  C   UNL     1      -0.310  -0.793  -2.183  0.00  0.00    -0.039 C 
ATOM     14  C   UNL     1      -0.368   0.503  -2.994  0.00  0.00    +0.010 C 
ATOM     15  C   UNL     1      -1.728  -1.327  -1.972  0.00  0.00    +0.010 C 
ENDBRANCH  11  13
ENDBRANCH   8  11
ENDBRANCH   5   8
ENDBRANCH   4   5
ENDBRANCH   1   4
BRANCH   1  16
ATOM     16  C   UNL     1       5.842   0.272  -3.555  0.00  0.00    +0.189 C 
BRANCH  16  17
ATOM     17  O   UNL     1       6.542  -0.323  -4.650  0.00  0.00    -0.374 OA
BRANCH  17  18
ATOM     18  C   UNL     1       7.909   0.081  -4.754  0.00  0.00    +0.201 C 
BRANCH  18  19
ATOM     19  C   UNL     1       8.555  -0.614  -5.955  0.00  0.00    +0.257 C 
BRANCH  19  20
ATOM     20  O   UNL     1       7.934  -0.160  -7.159  0.00  0.00    -0.484 OA
BRANCH  20  21
ATOM     21  C   UNL     1       8.395  -0.683  -8.327  0.00  0.00    +0.191 A 
ATOM     22  C   UNL     1       9.440  -0.066  -9.001  0.00  0.00    +0.169 A 
ATOM     23  C   UNL     1       9.907  -0.600 -10.188  0.00  0.00    +0.057 A 
ATOM     24  C   UNL     1       9.335  -1.749 -10.704  0.00  0.00    +0.024 A 
ATOM     25  C   UNL     1       8.294  -2.367 -10.034  0.00  0.00    +0.057 A 
ATOM     26  C   UNL     1       7.826  -1.839  -8.843  0.00  0.00    +0.169 A 
ATOM     27  F   UNL     1       6.813  -2.446  -8.187  0.00  0.00    -0.202 F 
ATOM     28 BR   UNL     1       9.976  -2.477 -12.327  0.00  0.00    -0.050 Br
ATOM     29  F   UNL     1       9.999   1.057  -8.499  0.00  0.00    -0.202 F 
ENDBRANCH  20  21
ENDBRANCH  19  20
ENDBRANCH  18  19
ENDBRANCH  17  18
ENDBRANCH  16  17
ENDBRANCH   1  16
TORSDOF 12
