REMARK  Name = ZINC10755627
REMARK  15 active torsions:
REMARK  status: ('A' for Active; 'I' for Inactive)
REMARK    1  A    between atoms: C_1  and  N_2
REMARK    2  A    between atoms: N_2  and  C_3
REMARK    3  A    between atoms: N_2  and  C_4
REMARK    4  A    between atoms: C_7  and  C_10
REMARK    5  A    between atoms: C_10  and  C_12
REMARK    6  A    between atoms: C_10  and  N_63
REMARK    7  A    between atoms: C_12  and  N_13
REMARK    8  A    between atoms: C_14  and  C_16
REMARK    9  A    between atoms: N_18  and  C_19
REMARK   10  A    between atoms: C_19  and  C_20
REMARK   11  A    between atoms: C_20  and  C_21
REMARK   12  A    between atoms: C_24  and  S_27
REMARK   13  A    between atoms: S_27  and  N_30
REMARK   14  A    between atoms: C_31  and  N_63
REMARK   15  A    between atoms: C_32  and  N_63
REMARK                            x       y       z     vdW  Elec       q    Type
REMARK                         _______ _______ _______ _____ _____    ______ ____
ROOT
ATOM      1  N   UNL     1       0.060   0.760   0.342  0.00  0.00    -0.309 N 
ATOM      2  C   UNL     1       1.229   1.422   0.444  0.00  0.00    +0.299 C 
ATOM      3  O   UNL     1       1.258   2.628   0.305  0.00  0.00    -0.265 OA
ATOM      4  H   UNL     1       0.036  -0.203   0.453  0.00  0.00    +0.149 HD
ENDROOT
BRANCH   2   5
ATOM      5  C   UNL     1       2.491   0.672   0.726  0.00  0.00    +0.299 C 
ATOM      6  O   UNL     1       2.462  -0.533   0.865  0.00  0.00    -0.265 OA
ATOM      7  N   UNL     1       3.660   1.334   0.828  0.00  0.00    -0.307 N 
ATOM      8  H   UNL     1       3.683   2.297   0.717  0.00  0.00    +0.149 HD
BRANCH   7   9
ATOM      9  C   UNL     1       4.896   0.599   1.105  0.00  0.00    +0.109 C 
BRANCH   9  10
ATOM     10  C   UNL     1       6.070   1.579   1.169  0.00  0.00    +0.054 C 
BRANCH  10  11
ATOM     11  C   UNL     1       7.341   0.822   1.454  0.00  0.00    -0.046 A 
ATOM     12  C   UNL     1       7.747   0.619   2.760  0.00  0.00    +0.005 A 
ATOM     13  C   UNL     1       8.911  -0.079   3.021  0.00  0.00    +0.029 A 
ATOM     14  C   UNL     1       9.675  -0.566   1.977  0.00  0.00    +0.105 A 
ATOM     15  C   UNL     1       9.272  -0.358   0.671  0.00  0.00    +0.029 A 
ATOM     16  C   UNL     1       8.105   0.336   0.409  0.00  0.00    +0.005 A 
BRANCH  14  17
ATOM     17  S   UNL     1      11.161  -1.451   2.310  0.00  0.00    +0.056 S 
ATOM     18  O   UNL     1      11.032  -1.982   3.622  0.00  0.00    -0.153 OA
ATOM     19  O   UNL     1      11.407  -2.273   1.177  0.00  0.00    -0.153 OA
BRANCH  17  20
ATOM     20  N   UNL     1      12.390  -0.342   2.366  0.00  0.00    -0.204 NA
ATOM     21  H   UNL     1      13.162  -0.502   2.932  0.00  0.00    +0.144 HD
ATOM     22  H   UNL     1      12.337   0.467   1.834  0.00  0.00    +0.144 HD
ENDBRANCH  17  20
ENDBRANCH  14  17
ENDBRANCH  10  11
ENDBRANCH   9  10
ENDBRANCH   7   9
ENDBRANCH   2   5
BRANCH   1  23
ATOM     23  C   UNL     1      -1.176   1.495   0.059  0.00  0.00    +0.094 C 
BRANCH  23  24
ATOM     24  C   UNL     1      -2.318   0.503  -0.170  0.00  0.00    -0.021 C 
BRANCH  24  28
ATOM     25  C   UNL     1      -5.961   2.647  -0.801  0.00  0.00    +0.029 A 
ATOM     26  C   UNL     1      -5.724   2.020   0.416  0.00  0.00    +0.023 A 
ATOM     27  C   UNL     1      -4.546   1.328   0.617  0.00  0.00    +0.004 A 
ATOM     28  C   UNL     1      -3.603   1.259  -0.392  0.00  0.00    -0.059 A 
ATOM     29  C   UNL     1      -3.833   1.887  -1.603  0.00  0.00    +0.004 A 
ATOM     30  C   UNL     1      -5.011   2.576  -1.812  0.00  0.00    +0.023 A 
BRANCH  25  32
ATOM     31  C   UNL     1      -8.096   3.529   0.099  0.00  0.00    +0.129 C 
ATOM     32  N   UNL     1      -7.152   3.348  -1.007  0.00  0.00    -0.336 N 
ATOM     33  C   UNL     1      -7.456   3.902  -2.328  0.00  0.00    +0.129 C 
ENDBRANCH  25  32
ENDBRANCH  24  28
BRANCH  24  36
ATOM     34  C   UNL     1      -1.155   0.402  -2.291  0.00  0.00    -0.096 C 
ATOM     35  C   UNL     1      -1.425  -1.603  -0.962  0.00  0.00    -0.096 C 
ATOM     36  N   UNL     1      -2.048  -0.325  -1.364  0.00  0.00    +0.382 N 
ATOM     37  H   UNL     1      -2.936  -0.522  -1.841  0.00  0.00    -0.082 HD
ENDBRANCH  24  36
ENDBRANCH  23  24
ENDBRANCH   1  23
TORSDOF 11
