REMARK  Name = ZINC39674460
REMARK  10 active torsions:
REMARK  status: ('A' for Active; 'I' for Inactive)
REMARK    1  A    between atoms: C_1  and  C_2
REMARK    2  A    between atoms: C_4  and  C_7
REMARK    3  A    between atoms: C_9  and  C_14
REMARK    4  A    between atoms: C_10  and  C_13
REMARK    5  A    between atoms: C_18  and  C_27
REMARK    6  A    between atoms: N_29  and  C_30
REMARK    7  A    between atoms: C_30  and  C_32
REMARK    8  A    between atoms: C_30  and  C_33
REMARK    9  A    between atoms: C_34  and  C_40
REMARK   10  A    between atoms: C_37  and  C_39
REMARK                            x       y       z     vdW  Elec       q    Type
REMARK                         _______ _______ _______ _____ _____    ______ ____
ROOT
ATOM      1  C   UNL     1      -0.785  -5.425  -1.658  0.00  0.00    +0.247 C 
ATOM      2  O   UNL     1      -0.347  -6.152  -2.532  0.00  0.00    -0.270 OA
ATOM      3  N   UNL     1       0.035  -4.958  -0.696  0.00  0.00    -0.296 N 
ATOM      4  C   UNL     1      -0.331  -4.179   0.510  0.00  0.00    +0.121 C 
ATOM      5  C   UNL     1       0.572  -4.743   1.629  0.00  0.00    +0.100 C 
ATOM      6  C   UNL     1       1.777  -5.351   0.892  0.00  0.00    -0.004 C 
ATOM      7  C   UNL     1       1.506  -5.115  -0.601  0.00  0.00    +0.115 C 
ATOM      8  C   UNL     1       3.064  -4.648   1.315  0.00  0.00    -0.010 C 
ATOM      9  C   UNL     1       4.254  -5.308   0.613  0.00  0.00    -0.082 C 
ATOM     10  N   UNL     1       4.309  -6.730   0.971  0.00  0.00    +0.379 N 
ATOM     11  C   UNL     1       3.109  -7.418   0.479  0.00  0.00    -0.082 C 
ATOM     12  C   UNL     1       1.871  -6.847   1.176  0.00  0.00    -0.010 C 
ATOM     13  H   UNL     1       5.129  -7.149   0.556  0.00  0.00    -0.086 HD
ATOM     14  H   UNL     1       4.360  -6.821   1.975  0.00  0.00    -0.086 HD
ENDROOT
BRANCH   1  16
ATOM     15  C   UNL     1      -2.779  -3.889  -2.359  0.00  0.00    +0.237 C 
ATOM     16  C   UNL     1      -2.154  -5.072  -1.653  0.00  0.00    +0.072 C 
ATOM     17  C   UNL     1      -3.147  -5.725  -1.019  0.00  0.00    +0.047 C 
ATOM     18  N   UNL     1      -4.343  -5.111  -1.226  0.00  0.00    -0.269 N 
ATOM     19  O   UNL     1      -4.178  -3.968  -2.047  0.00  0.00    -0.260 OA
ATOM     20  C   UNL     1      -2.958  -6.970  -0.191  0.00  0.00    +0.066 C 
ATOM     21  H   UNL     1      -5.190  -5.413  -0.862  0.00  0.00    +0.194 HD
BRANCH  15  25
ATOM     22  C   UNL     1      -3.695  -4.159  -7.363  0.00  0.00    +0.089 C 
ATOM     23  C   UNL     1      -2.987  -4.111  -6.033  0.00  0.00    +0.135 A 
ATOM     24  C   UNL     1      -3.576  -4.005  -4.827  0.00  0.00    +0.073 A 
ATOM     25  C   UNL     1      -2.567  -3.995  -3.847  0.00  0.00    +0.120 A 
ATOM     26  N   UNL     1      -1.416  -4.093  -4.451  0.00  0.00    -0.080 NA
ATOM     27  O   UNL     1      -1.660  -4.174  -5.843  0.00  0.00    -0.360 OA
ENDBRANCH  15  25
ENDBRANCH   1  16
BRANCH   5  28
ATOM     28  C   UNL     1      -0.160  -5.806   2.408  0.00  0.00    +0.219 C 
ATOM     29  O   UNL     1      -0.915  -6.564   1.837  0.00  0.00    -0.275 OA
ATOM     30  N   UNL     1       0.025  -5.914   3.739  0.00  0.00    -0.309 N 
ATOM     31  H   UNL     1       0.630  -5.308   4.195  0.00  0.00    +0.149 HD
BRANCH  30  32
ATOM     32  C   UNL     1      -0.686  -6.947   4.496  0.00  0.00    +0.100 C 
ATOM     33  C   UNL     1       0.034  -8.287   4.331  0.00  0.00    +0.033 C 
BRANCH  32  34
ATOM     34  C   UNL     1      -0.718  -6.569   5.954  0.00  0.00    -0.001 C 
ATOM     35  C   UNL     1      -1.786  -6.383   6.733  0.00  0.00    +0.063 C 
ATOM     36  N   UNL     1      -1.412  -6.052   7.989  0.00  0.00    -0.159 NA
ATOM     37  N   UNL     1      -0.193  -5.990   8.161  0.00  0.00    -0.180 NA
ATOM     38  C   UNL     1       0.459  -6.319   6.881  0.00  0.00    +0.154 C 
ATOM     39  C   UNL     1       1.298  -5.140   6.385  0.00  0.00    +0.039 C 
ATOM     40  C   UNL     1      -3.214  -6.522   6.273  0.00  0.00    +0.067 C 
ENDBRANCH  32  34
ENDBRANCH  30  32
ENDBRANCH   5  28
TORSDOF 5
