REMARK  Name = ZINC11859021
REMARK  8 active torsions:
REMARK  status: ('A' for Active; 'I' for Inactive)
REMARK    1  A    between atoms: C_1  and  C_2
REMARK    2  A    between atoms: C_2  and  O_3
REMARK    3  A    between atoms: O_3  and  C_4
REMARK    4  A    between atoms: C_4  and  C_6
REMARK    5  A    between atoms: C_8  and  C_20
REMARK    6  A    between atoms: C_14  and  C_15
REMARK    7  A    between atoms: C_14  and  O_19
REMARK    8  A    between atoms: C_23  and  N_26
REMARK                            x       y       z     vdW  Elec       q    Type
REMARK                         _______ _______ _______ _____ _____    ______ ____
ROOT
ATOM      1  C   UNL     1      -1.246   1.474  -3.814  0.00  0.00    +0.181 C 
ATOM      2  C   UNL     1      -0.203   1.458  -4.937  0.00  0.00    +0.123 C 
ATOM      3  N   UNL     1       0.421   0.135  -4.994  0.00  0.00    -0.292 N 
ATOM      4  C   UNL     1      -0.244  -0.967  -4.617  0.00  0.00    +0.302 C 
ATOM      5  O   UNL     1       0.317  -2.043  -4.694  0.00  0.00    -0.253 OA
ATOM      6  N   UNL     1      -1.504  -0.929  -4.159  0.00  0.00    -0.264 N 
ATOM      7  C   UNL     1      -2.243   0.335  -4.052  0.00  0.00    +0.246 C 
ATOM      8  H   UNL     1       1.334   0.054  -5.310  0.00  0.00    +0.151 HD
ATOM      9  H   UNL     1      -1.938  -1.755  -3.891  0.00  0.00    +0.153 HD
ENDROOT
BRANCH   2  10
ATOM     10  C   UNL     1      -0.875   1.754  -6.253  0.00  0.00    -0.026 A 
ATOM     11  C   UNL     1      -1.237   0.718  -7.093  0.00  0.00    +0.008 A 
ATOM     12  C   UNL     1      -1.858   0.990  -8.298  0.00  0.00    +0.033 A 
ATOM     13  C   UNL     1      -2.108   2.298  -8.667  0.00  0.00    +0.126 A 
ATOM     14  C   UNL     1      -1.742   3.335  -7.829  0.00  0.00    +0.033 A 
ATOM     15  C   UNL     1      -1.125   3.063  -6.622  0.00  0.00    +0.008 A 
BRANCH  13  16
ATOM     16  N   UNL     1      -2.770   2.590  -9.959  0.00  0.00    +0.056 N 
ATOM     17  O   UNL     1      -2.991   3.743 -10.283  0.00  0.00    -0.126 OA
ATOM     18  O   UNL     1      -3.093   1.676 -10.697  0.00  0.00    -0.126 OA
ENDBRANCH  13  16
ENDBRANCH   2  10
BRANCH   7  19
ATOM     19  C   UNL     1      -3.226   0.263  -2.882  0.00  0.00    +0.436 C 
ATOM     20  F   UNL     1      -3.819   1.516  -2.694  0.00  0.00    -0.166 F 
ATOM     21  F   UNL     1      -4.216  -0.685  -3.162  0.00  0.00    -0.166 F 
ATOM     22  F   UNL     1      -2.541  -0.107  -1.720  0.00  0.00    -0.166 F 
ENDBRANCH   7  19
BRANCH   1  23
ATOM     23  C   UNL     1      -0.561   1.279  -2.486  0.00  0.00    +0.317 C 
ATOM     24  O   UNL     1       0.315   0.454  -2.373  0.00  0.00    -0.250 OA
BRANCH  23  25
ATOM     25  O   UNL     1      -0.925   2.021  -1.428  0.00  0.00    -0.465 OA
BRANCH  25  27
ATOM     26  C   UNL     1      -0.771   2.711   0.902  0.00  0.00    +0.048 C 
ATOM     27  C   UNL     1      -0.223   1.779  -0.180  0.00  0.00    +0.229 C 
ENDBRANCH  25  27
ENDBRANCH  23  25
ENDBRANCH   1  23
BRANCH   7  28
ATOM     28  O   UNL     1      -2.959   0.573  -5.265  0.00  0.00    -0.364 OA
ATOM     29  H   UNL     1      -3.609  -0.111  -5.479  0.00  0.00    +0.212 HD
ENDBRANCH   7  28
TORSDOF 7
