REMARK  Name = ZINC20664254
REMARK  10 active torsions:
REMARK  status: ('A' for Active; 'I' for Inactive)
REMARK    1  A    between atoms: C_1  and  C_2
REMARK    2  A    between atoms: C_7  and  N_12
REMARK    3  A    between atoms: C_9  and  C_11
REMARK    4  A    between atoms: C_13  and  C_15
REMARK    5  A    between atoms: C_15  and  S_16
REMARK    6  A    between atoms: S_16  and  C_17
REMARK    7  A    between atoms: C_20  and  C_26
REMARK    8  A    between atoms: C_22  and  N_23
REMARK    9  A    between atoms: N_28  and  C_29
REMARK   10  A    between atoms: C_34  and  C_35
REMARK                            x       y       z     vdW  Elec       q    Type
REMARK                         _______ _______ _______ _____ _____    ______ ____
ROOT
ATOM      1  C   UNL     1       4.701  -0.837   0.234  0.00  0.00    +0.039 A 
ATOM      2  C   UNL     1       3.443  -1.436   0.261  0.00  0.00    +0.018 A 
ATOM      3  C   UNL     1       2.316  -0.669   0.180  0.00  0.00    +0.014 A 
ATOM      4  C   UNL     1       2.421   0.721   0.070  0.00  0.00    +0.039 A 
ATOM      5  C   UNL     1       3.682   1.324   0.038  0.00  0.00    +0.047 A 
ATOM      6  C   UNL     1       4.814   0.547   0.126  0.00  0.00    +0.140 A 
ENDROOT
BRANCH   4   7
ATOM      7  C   UNL     1       1.204   1.549  -0.018  0.00  0.00    +0.248 C 
ATOM      8  O   UNL     1       1.296   2.758  -0.113  0.00  0.00    -0.270 OA
ATOM      9  N   UNL     1      -0.011   0.966   0.007  0.00  0.00    -0.281 N 
ATOM     10  H   UNL     1      -0.095  -0.131   0.023  0.00  0.00    +0.155 HD
BRANCH   9  11
ATOM     11  C   UNL     1      -1.165   1.755   0.013  0.00  0.00    +0.045 A 
ATOM     12  C   UNL     1      -1.192   2.954  -0.687  0.00  0.00    +0.024 A 
ATOM     13  C   UNL     1      -2.335   3.730  -0.682  0.00  0.00    +0.002 A 
ATOM     14  C   UNL     1      -3.449   3.317   0.027  0.00  0.00    +0.001 A 
ATOM     15  C   UNL     1      -3.424   2.127   0.729  0.00  0.00    +0.014 A 
ATOM     16  C   UNL     1      -2.286   1.345   0.724  0.00  0.00    +0.076 A 
BRANCH  16  17
ATOM     17  C   UNL     1      -2.259   0.047   1.491  0.00  0.00    +0.419 C 
ATOM     18  F   UNL     1      -3.493  -0.148   2.120  0.00  0.00    -0.166 F 
ATOM     19  F   UNL     1      -2.012  -1.010   0.609  0.00  0.00    -0.166 F 
ATOM     20  F   UNL     1      -1.246   0.096   2.455  0.00  0.00    -0.166 F 
ENDBRANCH  16  17
ENDBRANCH   9  11
ENDBRANCH   4   7
BRANCH   6  21
ATOM     21  N   UNL     1       6.152   1.181   0.098  0.00  0.00    +0.058 N 
ATOM     22  O   UNL     1       6.251   2.391   0.003  0.00  0.00    -0.126 OA
ATOM     23  O   UNL     1       7.154   0.492   0.170  0.00  0.00    -0.126 OA
ENDBRANCH   6  21
BRANCH   1  24
ATOM     24  S   UNL     1       6.151  -1.833   0.339  0.00  0.00    -0.114 S 
BRANCH  24  25
ATOM     25  C   UNL     1       5.512  -3.526   0.463  0.00  0.00    +0.170 C 
BRANCH  25  27
ATOM     26  N   UNL     1       6.429  -5.815   0.661  0.00  0.00    -0.312 N 
ATOM     27  C   UNL     1       6.665  -4.492   0.559  0.00  0.00    +0.223 C 
ATOM     28  O   UNL     1       7.805  -4.079   0.546  0.00  0.00    -0.275 OA
ATOM     29  H   UNL     1       5.395  -6.190   0.673  0.00  0.00    +0.149 HD
BRANCH  26  35
ATOM     30  C   UNL     1       7.838 -10.481  -0.166  0.00  0.00    +0.008 C 
ATOM     31  C   UNL     1       8.279  -9.108   0.344  0.00  0.00    -0.009 C 
ATOM     32  C   UNL     1       8.726  -9.224   1.802  0.00  0.00    +0.003 C 
ATOM     33  C   UNL     1       9.167  -7.851   2.312  0.00  0.00    +0.002 C 
ATOM     34  C   UNL     1       7.997  -6.870   2.214  0.00  0.00    +0.022 C 
ATOM     35  C   UNL     1       7.550  -6.754   0.755  0.00  0.00    +0.076 C 
ATOM     36  C   UNL     1       7.109  -8.127   0.245  0.00  0.00    +0.009 C 
ATOM     37  C   UNL     1       5.944  -8.637   1.096  0.00  0.00    +0.009 C 
ENDBRANCH  26  35
ENDBRANCH  25  27
ENDBRANCH  24  25
ENDBRANCH   1  24
TORSDOF 8
