REMARK  Name = ZINC57596331
REMARK  7 active torsions:
REMARK  status: ('A' for Active; 'I' for Inactive)
REMARK    1  A    between atoms: C_1  and  C_2
REMARK    2  A    between atoms: C_2  and  C_4
REMARK    3  A    between atoms: C_2  and  S_20
REMARK    4  A    between atoms: N_9  and  C_10
REMARK    5  A    between atoms: S_20  and  C_21
REMARK    6  A    between atoms: C_24  and  C_26
REMARK    7  A    between atoms: C_26  and  N_27
REMARK                            x       y       z     vdW  Elec       q    Type
REMARK                         _______ _______ _______ _____ _____    ______ ____
ROOT
ATOM      1  C   UNL     1       0.707  -0.490  -1.238  0.00  0.00    +0.234 C 
ATOM      2  O   UNL     1       1.864  -0.849  -1.176  0.00  0.00    -0.274 OA
ATOM      3  N   UNL     1       0.053  -0.526  -2.415  0.00  0.00    -0.239 N 
ATOM      4  C   UNL     1       0.683  -0.961  -3.524  0.00  0.00    +0.306 C 
ATOM      5  O   UNL     1       1.843  -1.320  -3.462  0.00  0.00    -0.252 OA
ATOM      6  N   UNL     1       0.029  -0.997  -4.702  0.00  0.00    -0.294 N 
ATOM      7  H   UNL     1      -0.873  -0.239  -2.465  0.00  0.00    +0.159 HD
ATOM      8  H   UNL     1      -0.896  -0.710  -4.751  0.00  0.00    +0.151 HD
ENDROOT
BRANCH   6   9
ATOM      9  C   UNL     1       0.715  -1.469  -5.907  0.00  0.00    +0.037 C 
ATOM     10  C   UNL     1       1.927  -0.579  -6.186  0.00  0.00    +0.029 C 
ATOM     11  C   UNL     1       2.644  -1.073  -7.444  0.00  0.00    -0.008 C 
ATOM     12  C   UNL     1       1.683  -1.013  -8.634  0.00  0.00    +0.007 C 
ATOM     13  C   UNL     1       0.470  -1.903  -8.355  0.00  0.00    -0.008 C 
ATOM     14  C   UNL     1      -0.246  -1.409  -7.097  0.00  0.00    +0.029 C 
ATOM     15  C   UNL     1       0.934  -3.346  -8.146  0.00  0.00    +0.007 C 
ATOM     16  C   UNL     1       1.894  -3.405  -6.956  0.00  0.00    -0.008 C 
ATOM     17  C   UNL     1       3.107  -2.516  -7.235  0.00  0.00    +0.007 C 
ATOM     18  C   UNL     1       1.178  -2.912  -5.698  0.00  0.00    +0.029 C 
ENDBRANCH   6   9
BRANCH   1  20
ATOM     19  C   UNL     1      -0.019   1.526   0.010  0.00  0.00    +0.029 C 
ATOM     20  C   UNL     1       0.002  -0.004   0.002  0.00  0.00    +0.139 C 
BRANCH  20  21
ATOM     21  S   UNL     1       0.879  -0.605   1.472  0.00  0.00    -0.053 S 
BRANCH  21  22
ATOM     22  C   UNL     1      -0.136  -0.087   2.816  0.00  0.00    +0.278 A 
ATOM     23  N   UNL     1      -1.264   0.575   2.728  0.00  0.00    -0.101 NA
ATOM     24  N   UNL     1      -1.729   0.781   3.909  0.00  0.00    -0.110 NA
ATOM     25  C   UNL     1      -0.924   0.265   4.791  0.00  0.00    +0.235 A 
ATOM     26  O   UNL     1       0.100  -0.302   4.124  0.00  0.00    -0.414 OA
BRANCH  25  27
ATOM     27  C   UNL     1      -1.106   0.291   6.287  0.00  0.00    +0.205 C 
BRANCH  27  28
ATOM     28  N   UNL     1      -1.859  -0.893   6.707  0.00  0.00    -0.292 N 
ATOM     29  C   UNL     1      -3.323  -0.953   6.803  0.00  0.00    +0.109 C 
ATOM     30  C   UNL     1      -3.671  -2.457   6.848  0.00  0.00    +0.028 C 
ATOM     31  C   UNL     1      -2.372  -3.065   7.424  0.00  0.00    +0.097 C 
ATOM     32  C   UNL     1      -1.299  -2.065   7.051  0.00  0.00    +0.216 C 
ATOM     33  O   UNL     1      -0.107  -2.289   7.062  0.00  0.00    -0.276 OA
ENDBRANCH  27  28
ENDBRANCH  25  27
ENDBRANCH  21  22
ENDBRANCH  20  21
ENDBRANCH   1  20
TORSDOF 6
