REMARK  Name = ZINC18935324
REMARK  13 active torsions:
REMARK  status: ('A' for Active; 'I' for Inactive)
REMARK    1  A    between atoms: C_1  and  C_2
REMARK    2  A    between atoms: C_2  and  C_3
REMARK    3  A    between atoms: C_3  and  C_4
REMARK    4  A    between atoms: C_4  and  N_5
REMARK    5  A    between atoms: N_5  and  C_6
REMARK    6  A    between atoms: C_7  and  N_22
REMARK    7  A    between atoms: N_8  and  C_15
REMARK    8  A    between atoms: C_15  and  C_16
REMARK    9  A    between atoms: C_23  and  C_25
REMARK   10  A    between atoms: C_25  and  N_70
REMARK   11  A    between atoms: C_26  and  N_70
REMARK   12  A    between atoms: C_27  and  C_28
REMARK   13  A    between atoms: C_27  and  N_70
REMARK                            x       y       z     vdW  Elec       q    Type
REMARK                         _______ _______ _______ _____ _____    ______ ____
ROOT
ATOM      1  N   UNL     1       0.008   1.270  -0.060  0.00  0.00    -0.266 N 
ATOM      2  C   UNL     1      -0.011  -0.060  -0.284  0.00  0.00    +0.203 C 
ATOM      3  O   UNL     1       1.006  -0.636  -0.609  0.00  0.00    -0.277 OA
ENDROOT
BRANCH   1   4
ATOM      4  C   UNL     1       1.229   1.976  -0.110  0.00  0.00    +0.140 A 
ATOM      5  C   UNL     1       2.237   1.699   0.791  0.00  0.00    +0.128 A 
ATOM      6  N   UNL     1       3.418   2.400   0.714  0.00  0.00    -0.276 N 
ATOM      7  C   UNL     1       3.584   3.353  -0.221  0.00  0.00    +0.331 A 
ATOM      8  O   UNL     1       4.633   3.966  -0.269  0.00  0.00    -0.246 OA
ATOM      9  N   UNL     1       2.611   3.640  -1.104  0.00  0.00    -0.273 N 
ATOM     10  H   UNL     1       2.760   4.353  -1.789  0.00  0.00    +0.173 HD
ATOM     11  C   UNL     1       1.437   2.979  -1.075  0.00  0.00    +0.277 A 
ATOM     12  O   UNL     1       0.561   3.248  -1.880  0.00  0.00    -0.266 OA
BRANCH   5  13
ATOM     13  N   UNL     1       2.065   0.730   1.750  0.00  0.00    -0.343 N 
ATOM     14  H   UNL     1       1.197   0.312   1.868  0.00  0.00    +0.144 HD
ATOM     15  H   UNL     1       2.811   0.463   2.310  0.00  0.00    +0.144 HD
ENDBRANCH   5  13
BRANCH   6  16
ATOM     16  C   UNL     1       4.498   2.112   1.660  0.00  0.00    +0.163 C 
BRANCH  16  17
ATOM     17  C   UNL     1       4.343   2.983   2.880  0.00  0.00    -0.028 A 
ATOM     18  C   UNL     1       4.953   4.223   2.926  0.00  0.00    +0.005 A 
ATOM     19  C   UNL     1       4.807   5.024   4.043  0.00  0.00    +0.000 A 
ATOM     20  C   UNL     1       4.059   4.581   5.118  0.00  0.00    +0.000 A 
ATOM     21  C   UNL     1       3.454   3.339   5.074  0.00  0.00    +0.000 A 
ATOM     22  C   UNL     1       3.596   2.540   3.955  0.00  0.00    +0.005 A 
ENDBRANCH  16  17
ENDBRANCH   6  16
ENDBRANCH   1   4
BRANCH   1  23
ATOM     23  C   UNL     1      -1.239   1.983   0.227  0.00  0.00    +0.114 C 
BRANCH  23  24
ATOM     24  C   UNL     1      -1.460   2.033   1.740  0.00  0.00    +0.019 C 
BRANCH  24  26
ATOM     25  C   UNL     1      -2.984   2.826   3.554  0.00  0.00    +0.004 C 
ATOM     26  C   UNL     1      -2.763   2.777   2.041  0.00  0.00    -0.002 C 
ENDBRANCH  24  26
ENDBRANCH  23  24
ENDBRANCH   1  23
BRANCH   2  27
ATOM     27  C   UNL     1      -1.297  -0.832  -0.129  0.00  0.00    +0.019 C 
BRANCH  27  29
ATOM     28  C   UNL     1      -0.164  -2.853   0.574  0.00  0.00    -0.095 C 
ATOM     29  N   UNL     1      -1.042  -2.252  -0.452  0.00  0.00    +0.386 N 
ATOM     30  H   UNL     1      -0.576  -2.308  -1.365  0.00  0.00    -0.081 HD
BRANCH  29  31
ATOM     31  C   UNL     1      -2.320  -2.991  -0.518  0.00  0.00    -0.043 C 
BRANCH  31  32
ATOM     32  C   UNL     1      -2.055  -4.372  -1.060  0.00  0.00    -0.063 A 
ATOM     33  C   UNL     1      -2.099  -4.590  -2.436  0.00  0.00    +0.002 A 
ATOM     34  C   UNL     1      -1.859  -5.823  -2.959  0.00  0.00    +0.009 A 
ATOM     35  C   UNL     1      -1.573  -6.898  -2.100  0.00  0.00    -0.018 A 
ATOM     36  C   UNL     1      -1.327  -8.188  -2.602  0.00  0.00    +0.008 A 
ATOM     37  C   UNL     1      -1.053  -9.205  -1.741  0.00  0.00    +0.001 A 
ATOM     38  C   UNL     1      -1.014  -8.989  -0.364  0.00  0.00    +0.001 A 
ATOM     39  C   UNL     1      -1.248  -7.754   0.158  0.00  0.00    +0.008 A 
ATOM     40  C   UNL     1      -1.534  -6.678  -0.701  0.00  0.00    -0.018 A 
ATOM     41  C   UNL     1      -1.781  -5.389  -0.199  0.00  0.00    +0.010 A 
ENDBRANCH  31  32
ENDBRANCH  29  31
ENDBRANCH  27  29
ENDBRANCH   2  27
TORSDOF 11
