REMARK  Name = ZINC47262151
REMARK  6 active torsions:
REMARK  status: ('A' for Active; 'I' for Inactive)
REMARK    1  A    between atoms: C_3  and  N_8
REMARK    2  A    between atoms: C_9  and  C_11
REMARK    3  A    between atoms: N_16  and  C_18
REMARK    4  A    between atoms: C_18  and  C_19
REMARK    5  A    between atoms: N_21  and  C_22
REMARK    6  A    between atoms: C_22  and  C_27
REMARK                            x       y       z     vdW  Elec       q    Type
REMARK                         _______ _______ _______ _____ _____    ______ ____
ROOT
ATOM      1  C   UNL     1       4.950   4.062  -0.240  0.00  0.00    +0.059 C 
ATOM      2  C   UNL     1       5.673   3.587  -1.503  0.00  0.00    +0.009 C 
ATOM      3  C   UNL     1       6.976   4.375  -1.661  0.00  0.00    -0.018 C 
ATOM      4  C   UNL     1       6.659   5.872  -1.703  0.00  0.00    -0.078 C 
ATOM      5  N   UNL     1       5.991   6.269  -0.457  0.00  0.00    +0.386 N 
ATOM      6  C   UNL     1       4.707   5.570  -0.334  0.00  0.00    -0.065 C 
ATOM      7  H   UNL     1       6.579   6.032   0.328  0.00  0.00    -0.081 HD
ENDROOT
BRANCH   1   9
ATOM      8  N   UNL     1       3.597   2.002  -0.022  0.00  0.00    -0.270 N 
ATOM      9  C   UNL     1       3.629   3.346  -0.117  0.00  0.00    +0.220 C 
ATOM     10  O   UNL     1       2.595   3.980  -0.104  0.00  0.00    -0.275 OA
ATOM     11  H   UNL     1       4.425   1.501   0.042  0.00  0.00    +0.156 HD
BRANCH   8  14
ATOM     12  C   UNL     1       1.130  -0.710  -0.017  0.00  0.00    +0.025 A 
ATOM     13  C   UNL     1       2.350  -0.057  -0.024  0.00  0.00    +0.045 A 
ATOM     14  C   UNL     1       2.374   1.332  -0.015  0.00  0.00    +0.125 A 
ATOM     15  N   UNL     1       1.247   2.026  -0.001  0.00  0.00    -0.239 NA
ATOM     16  C   UNL     1       0.069   1.433   0.006  0.00  0.00    +0.132 A 
ATOM     17  C   UNL     1      -0.030   0.054  -0.001  0.00  0.00    +0.059 A 
ATOM     18 CL   UNL     1      -1.586  -0.714   0.008  0.00  0.00    -0.082 Cl
ENDBRANCH   8  14
ENDBRANCH   1   9
BRANCH   5  19
ATOM     19  C   UNL     1       5.758   7.720  -0.469  0.00  0.00    +0.019 C 
BRANCH  19  20
ATOM     20  C   UNL     1       7.082   8.441  -0.462  0.00  0.00    +0.198 C 
ATOM     21  O   UNL     1       8.117   7.809  -0.447  0.00  0.00    -0.278 OA
ATOM     22  N   UNL     1       7.114   9.788  -0.471  0.00  0.00    -0.299 N 
ATOM     23  H   UNL     1       6.287  10.294  -0.482  0.00  0.00    +0.150 HD
BRANCH  22  24
ATOM     24  C   UNL     1       8.401  10.489  -0.463  0.00  0.00    +0.121 C 
ATOM     25  C   UNL     1       9.169  10.171   0.836  0.00  0.00    +0.041 C 
ATOM     26  C   UNL     1       9.870  11.503   1.200  0.00  0.00    +0.003 C 
ATOM     27  C   UNL     1       8.809  12.563   0.816  0.00  0.00    +0.003 C 
ATOM     28  C   UNL     1       8.171  12.011  -0.476  0.00  0.00    +0.041 C 
BRANCH  24  29
ATOM     29  C   UNL     1       9.199  10.090  -1.633  0.00  0.00    +0.088 C 
ATOM     30  N   UNL     1       9.815   9.782  -2.537  0.00  0.00    -0.194 NA
ENDBRANCH  24  29
ENDBRANCH  22  24
ENDBRANCH  19  20
ENDBRANCH   5  19
TORSDOF 6
