REMARK  Name = ZINC39671479
REMARK  5 active torsions:
REMARK  status: ('A' for Active; 'I' for Inactive)
REMARK    1  A    between atoms: C_1  and  C_2
REMARK    2  A    between atoms: C_4  and  C_9
REMARK    3  A    between atoms: C_13  and  C_22
REMARK    4  A    between atoms: N_24  and  C_25
REMARK    5  A    between atoms: C_25  and  C_26
REMARK                            x       y       z     vdW  Elec       q    Type
REMARK                         _______ _______ _______ _____ _____    ______ ____
ROOT
ATOM      1  C   UNL     1      -0.069  -2.871  -2.770  0.00  0.00    +0.247 C 
ATOM      2  O   UNL     1      -0.217  -2.358  -3.862  0.00  0.00    -0.270 OA
ATOM      3  N   UNL     1       0.086  -4.206  -2.668  0.00  0.00    -0.296 N 
ATOM      4  C   UNL     1       0.147  -5.021  -1.432  0.00  0.00    +0.121 C 
ATOM      5  C   UNL     1      -0.645  -6.304  -1.770  0.00  0.00    +0.100 C 
ATOM      6  C   UNL     1      -0.582  -6.410  -3.303  0.00  0.00    -0.004 C 
ATOM      7  C   UNL     1       0.229  -5.191  -3.767  0.00  0.00    +0.115 C 
ATOM      8  C   UNL     1       0.120  -7.701  -3.715  0.00  0.00    -0.010 C 
ATOM      9  C   UNL     1       0.118  -7.812  -5.242  0.00  0.00    -0.082 C 
ATOM     10  N   UNL     1      -1.265  -7.806  -5.734  0.00  0.00    +0.379 N 
ATOM     11  C   UNL     1      -1.904  -6.524  -5.414  0.00  0.00    -0.082 C 
ATOM     12  C   UNL     1      -1.988  -6.358  -3.894  0.00  0.00    -0.010 C 
ATOM     13  H   UNL     1      -1.266  -7.941  -6.734  0.00  0.00    -0.086 HD
ATOM     14  H   UNL     1      -1.780  -8.555  -5.296  0.00  0.00    -0.086 HD
ENDROOT
BRANCH   1  18
ATOM     15  C   UNL     1      -1.268   1.383  -0.454  0.00  0.00    +0.045 C 
ATOM     16  C   UNL     1      -0.635   0.015  -0.435  0.00  0.00    -0.036 A 
ATOM     17  C   UNL     1      -0.646  -0.764  -1.573  0.00  0.00    +0.017 A 
ATOM     18  C   UNL     1      -0.060  -2.031  -1.554  0.00  0.00    +0.037 A 
ATOM     19  C   UNL     1       0.536  -2.501  -0.382  0.00  0.00    +0.014 A 
ATOM     20  C   UNL     1       0.541  -1.712   0.749  0.00  0.00    +0.016 A 
ATOM     21  C   UNL     1      -0.038  -0.454   0.722  0.00  0.00    +0.021 A 
ATOM     22 BR   UNL     1      -0.020   0.624   2.276  0.00  0.00    -0.050 Br
ENDBRANCH   1  18
BRANCH   5  23
ATOM     23  C   UNL     1      -2.074  -6.175  -1.309  0.00  0.00    +0.219 C 
ATOM     24  O   UNL     1      -2.604  -5.084  -1.274  0.00  0.00    -0.275 OA
ATOM     25  N   UNL     1      -2.763  -7.271  -0.935  0.00  0.00    -0.309 N 
ATOM     26  H   UNL     1      -2.339  -8.143  -0.962  0.00  0.00    +0.149 HD
BRANCH  25  27
ATOM     27  C   UNL     1      -4.152  -7.146  -0.486  0.00  0.00    +0.157 C 
BRANCH  27  28
ATOM     28  C   UNL     1      -4.689  -8.508  -0.128  0.00  0.00    +0.034 A 
ATOM     29  H   UNL     1      -5.343  -9.237  -1.966  0.00  0.00    +0.166 HD
ATOM     30  C   UNL     1      -4.702  -9.030   1.109  0.00  0.00    +0.032 A 
ATOM     31  C   UNL     1      -5.306 -10.360   1.005  0.00  0.00    -0.000 A 
ATOM     32  C   UNL     1      -5.591 -11.371   1.925  0.00  0.00    +0.010 A 
ATOM     33  C   UNL     1      -6.176 -12.530   1.499  0.00  0.00    +0.001 A 
ATOM     34  C   UNL     1      -6.490 -12.711   0.160  0.00  0.00    +0.002 A 
ATOM     35  C   UNL     1      -6.218 -11.727  -0.765  0.00  0.00    +0.026 A 
ATOM     36  C   UNL     1      -5.622 -10.539  -0.354  0.00  0.00    +0.047 A 
ATOM     37  N   UNL     1      -5.240  -9.393  -1.014  0.00  0.00    -0.357 N 
ENDBRANCH  27  28
ENDBRANCH  25  27
ENDBRANCH   5  23
TORSDOF 4
