REMARK  Name = ZINC63588818
REMARK  10 active torsions:
REMARK  status: ('A' for Active; 'I' for Inactive)
REMARK    1  A    between atoms: C_1  and  C_2
REMARK    2  A    between atoms: N_4  and  C_5
REMARK    3  A    between atoms: C_8  and  C_11
REMARK    4  A    between atoms: C_11  and  N_13
REMARK    5  A    between atoms: N_15  and  C_16
REMARK    6  A    between atoms: C_19  and  O_22
REMARK    7  A    between atoms: O_22  and  C_23
REMARK    8  A    between atoms: N_24  and  C_25
REMARK    9  A    between atoms: C_25  and  C_26
REMARK   10  A    between atoms: C_26  and  C_27
REMARK                            x       y       z     vdW  Elec       q    Type
REMARK                         _______ _______ _______ _____ _____    ______ ____
ROOT
ATOM      1  N   UNL     1      -0.216  -6.958  -2.747  0.00  0.00    -0.143 NA
ATOM      2  C   UNL     1      -0.354  -8.259  -2.542  0.00  0.00    +0.194 C 
ATOM      3  N   UNL     1       0.278  -8.854  -1.488  0.00  0.00    -0.328 N 
ATOM      4  N   UNL     1      -1.127  -9.004  -3.383  0.00  0.00    -0.357 N 
ATOM      5  H   UNL     1       0.375  -8.378  -0.649  0.00  0.00    +0.169 HD
ATOM      6  H   UNL     1      -1.286  -8.702  -4.291  0.00  0.00    +0.162 HD
ENDROOT
BRANCH   3   7
ATOM      7  C   UNL     1       0.787 -10.153  -1.619  0.00  0.00    +0.042 A 
ATOM      8  C   UNL     1       1.290 -10.581  -2.840  0.00  0.00    +0.029 A 
ATOM      9  C   UNL     1       1.792 -11.861  -2.969  0.00  0.00    +0.047 A 
ATOM     10  C   UNL     1       1.792 -12.719  -1.878  0.00  0.00    +0.120 A 
ATOM     11  C   UNL     1       1.289 -12.291  -0.658  0.00  0.00    +0.047 A 
ATOM     12  C   UNL     1       0.792 -11.010  -0.527  0.00  0.00    +0.029 A 
BRANCH  10  13
ATOM     13  O   UNL     1       2.286 -13.980  -2.006  0.00  0.00    -0.495 OA
ATOM     14  C   UNL     1       2.255 -14.809  -0.842  0.00  0.00    +0.277 C 
ENDBRANCH  10  13
ENDBRANCH   3   7
BRANCH   1  15
ATOM     15  C   UNL     1       0.662  -6.254  -2.020  0.00  0.00    +0.270 C 
ATOM     16  O   UNL     1       1.396  -6.824  -1.232  0.00  0.00    -0.268 OA
BRANCH  15  20
ATOM     17  C   UNL     1       0.888  -2.033  -2.463  0.00  0.00    +0.033 A 
ATOM     18  C   UNL     1       1.726  -2.683  -1.562  0.00  0.00    +0.024 A 
ATOM     19  C   UNL     1       1.655  -4.050  -1.416  0.00  0.00    +0.015 A 
ATOM     20  C   UNL     1       0.740  -4.785  -2.174  0.00  0.00    +0.039 A 
ATOM     21  C   UNL     1      -0.100  -4.130  -3.077  0.00  0.00    +0.015 A 
ATOM     22  C   UNL     1      -0.028  -2.762  -3.215  0.00  0.00    +0.024 A 
BRANCH  17  26
ATOM     23  C   UNL     1       2.253   1.454  -2.799  0.00  0.00    +0.109 C 
ATOM     24  C   UNL     1       2.154  -0.024  -2.523  0.00  0.00    +0.214 C 
ATOM     25  O   UNL     1       3.147  -0.653  -2.223  0.00  0.00    -0.276 OA
ATOM     26  N   UNL     1       0.963  -0.648  -2.609  0.00  0.00    -0.286 N 
ATOM     27  H   UNL     1       0.157  -0.133  -2.772  0.00  0.00    +0.155 HD
ENDBRANCH  17  26
ENDBRANCH  15  20
ENDBRANCH   1  15
BRANCH   4  28
ATOM     28  C   UNL     1      -1.716 -10.261  -2.915  0.00  0.00    +0.120 C 
BRANCH  28  29
ATOM     29  C   UNL     1      -2.551 -10.882  -4.037  0.00  0.00    +0.054 C 
BRANCH  29  30
ATOM     30  C   UNL     1      -3.254 -12.110  -3.520  0.00  0.00    -0.040 C 
ATOM     31  C   UNL     1      -4.503 -12.175  -3.003  0.00  0.00    -0.001 A 
ATOM     32  C   UNL     1      -5.539 -11.161  -2.775  0.00  0.00    +0.010 A 
ATOM     33  C   UNL     1      -6.716 -11.538  -2.227  0.00  0.00    +0.001 A 
ATOM     34  C   UNL     1      -6.971 -12.870  -1.871  0.00  0.00    +0.002 A 
ATOM     35  C   UNL     1      -6.069 -13.858  -2.050  0.00  0.00    +0.026 A 
ATOM     36  C   UNL     1      -4.796 -13.575  -2.619  0.00  0.00    +0.043 A 
ATOM     37  N   UNL     1      -3.770 -14.345  -2.889  0.00  0.00    -0.380 N 
ATOM     38  C   UNL     1      -2.710 -13.521  -3.480  0.00  0.00    +0.144 C 
ATOM     39  H   UNL     1      -3.721 -15.300  -2.728  0.00  0.00    +0.160 HD
ENDBRANCH  29  30
ENDBRANCH  28  29
ENDBRANCH   4  28
TORSDOF 8
