REMARK  Name = ZINC10870673
REMARK  7 active torsions:
REMARK  status: ('A' for Active; 'I' for Inactive)
REMARK    1  A    between atoms: C_4  and  C_7
REMARK    2  A    between atoms: C_7  and  C_8
REMARK    3  A    between atoms: C_8  and  C_10
REMARK    4  A    between atoms: C_8  and  N_27
REMARK    5  A    between atoms: N_12  and  C_13
REMARK    6  A    between atoms: C_16  and  N_19
REMARK    7  A    between atoms: C_20  and  C_22
REMARK                            x       y       z     vdW  Elec       q    Type
REMARK                         _______ _______ _______ _____ _____    ______ ____
ROOT
ATOM      1  C   UNL     1       3.932  11.235   0.573  0.00  0.00    +0.175 C 
ENDROOT
BRANCH   1   2
ATOM      2  N   UNL     1       2.840  11.964   1.222  0.00  0.00    -0.222 N 
ATOM      3  C   UNL     1       1.600  12.087   0.714  0.00  0.00    +0.255 C 
ATOM      4  O   UNL     1       1.214  11.617  -0.337  0.00  0.00    -0.270 OA
ATOM      5  C   UNL     1       0.784  12.887   1.652  0.00  0.00    +0.049 A 
ATOM      6  C   UNL     1      -0.531  13.324   1.661  0.00  0.00    +0.014 A 
ATOM      7  C   UNL     1      -0.995  14.085   2.723  0.00  0.00    +0.001 A 
ATOM      8  C   UNL     1      -0.155  14.410   3.771  0.00  0.00    +0.001 A 
ATOM      9  C   UNL     1       1.163  13.980   3.776  0.00  0.00    +0.014 A 
ATOM     10  C   UNL     1       1.640  13.219   2.722  0.00  0.00    +0.049 A 
ATOM     11  C   UNL     1       2.946  12.605   2.400  0.00  0.00    +0.255 C 
ATOM     12  O   UNL     1       3.947  12.668   3.084  0.00  0.00    -0.270 OA
ENDBRANCH   1   2
BRANCH   1  13
ATOM     13  C   UNL     1       3.538   9.790   0.401  0.00  0.00    +0.239 C 
ATOM     14  O   UNL     1       2.368   9.473   0.432  0.00  0.00    -0.273 OA
ATOM     15  N   UNL     1       4.487   8.852   0.211  0.00  0.00    -0.284 N 
ATOM     16  H   UNL     1       5.416   9.113   0.118  0.00  0.00    +0.155 HD
BRANCH  15  17
ATOM     17  C   UNL     1       4.130   7.498   0.147  0.00  0.00    +0.034 A 
ATOM     18  C   UNL     1       4.980   6.531   0.665  0.00  0.00    +0.025 A 
ATOM     19  C   UNL     1       4.628   5.198   0.603  0.00  0.00    +0.025 A 
ATOM     20  C   UNL     1       3.424   4.824   0.022  0.00  0.00    +0.034 A 
ATOM     21  C   UNL     1       2.576   5.791  -0.502  0.00  0.00    +0.025 A 
ATOM     22  C   UNL     1       2.925   7.125  -0.434  0.00  0.00    +0.025 A 
BRANCH  20  23
ATOM     23  N   UNL     1       3.066   3.472  -0.041  0.00  0.00    -0.279 N 
ATOM     24  C   UNL     1       3.406   2.638   0.962  0.00  0.00    +0.284 C 
ATOM     25  O   UNL     1       4.095   3.040   1.881  0.00  0.00    -0.266 OA
ATOM     26  H   UNL     1       2.574   3.135  -0.806  0.00  0.00    +0.155 HD
BRANCH  24  27
ATOM     27  C   UNL     1       2.946   1.246   0.945  0.00  0.00    +0.189 A 
ATOM     28  C   UNL     1       3.216   0.300   1.892  0.00  0.00    +0.054 A 
ATOM     29  C   UNL     1       2.581  -0.881   1.476  0.00  0.00    +0.042 A 
ATOM     30  C   UNL     1       1.959  -0.608   0.308  0.00  0.00    +0.196 A 
ATOM     31  O   UNL     1       2.182   0.675  -0.009  0.00  0.00    -0.458 OA
ENDBRANCH  24  27
ENDBRANCH  20  23
ENDBRANCH  15  17
ENDBRANCH   1  13
BRANCH   1  32
ATOM     32  C   UNL     1       4.216  11.853  -0.797  0.00  0.00    +0.067 C 
BRANCH  32  36
ATOM     33  C   UNL     1       5.665  15.839  -0.288  0.00  0.00    +0.000 A 
ATOM     34  C   UNL     1       6.553  14.780  -0.325  0.00  0.00    +0.000 A 
ATOM     35  C   UNL     1       6.084  13.491  -0.489  0.00  0.00    +0.004 A 
ATOM     36  C   UNL     1       4.727  13.259  -0.617  0.00  0.00    -0.045 A 
ATOM     37  C   UNL     1       3.840  14.319  -0.586  0.00  0.00    +0.004 A 
ATOM     38  C   UNL     1       4.309  15.608  -0.416  0.00  0.00    +0.000 A 
ENDBRANCH  32  36
ENDBRANCH   1  32
TORSDOF 7
