REMARK  Name = ZINC63588889
REMARK  8 active torsions:
REMARK  status: ('A' for Active; 'I' for Inactive)
REMARK    1  A    between atoms: C_1  and  C_2
REMARK    2  A    between atoms: C_7  and  N_8
REMARK    3  A    between atoms: N_10  and  C_11
REMARK    4  A    between atoms: C_11  and  C_12
REMARK    5  A    between atoms: C_12  and  C_13
REMARK    6  A    between atoms: N_22  and  C_23
REMARK    7  A    between atoms: C_23  and  C_25
REMARK    8  A    between atoms: C_30  and  C_31
REMARK                            x       y       z     vdW  Elec       q    Type
REMARK                         _______ _______ _______ _____ _____    ______ ____
ROOT
ATOM      1  N   UNL     1       0.520  -0.913   1.433  0.00  0.00    -0.328 N 
ATOM      2  C   UNL     1       1.225  -1.044   2.595  0.00  0.00    +0.194 C 
ATOM      3  N   UNL     1       1.914   0.020   3.098  0.00  0.00    -0.357 N 
ATOM      4  N   UNL     1       1.241  -2.205   3.233  0.00  0.00    -0.143 NA
ATOM      5  H   UNL     1       2.476  -0.092   3.880  0.00  0.00    +0.162 HD
ATOM      6  H   UNL     1      -0.450  -0.928   1.450  0.00  0.00    +0.169 HD
ENDROOT
BRANCH   1  13
ATOM      7  C   UNL     1      -1.001  -0.223  -0.871  0.00  0.00    +0.046 C 
ATOM      8  C   UNL     1       0.492  -0.422  -0.931  0.00  0.00    -0.027 A 
ATOM      9  C   UNL     1       1.163  -0.265  -2.128  0.00  0.00    +0.005 A 
ATOM     10  C   UNL     1       2.532  -0.447  -2.184  0.00  0.00    +0.000 A 
ATOM     11  C   UNL     1       3.235  -0.787  -1.043  0.00  0.00    +0.002 A 
ATOM     12  C   UNL     1       2.570  -0.947   0.157  0.00  0.00    +0.026 A 
ATOM     13  C   UNL     1       1.195  -0.759   0.218  0.00  0.00    +0.045 A 
ENDBRANCH   1  13
BRANCH   4  14
ATOM     14  C   UNL     1       0.724  -3.296   2.652  0.00  0.00    +0.271 C 
ATOM     15  O   UNL     1       0.328  -3.243   1.501  0.00  0.00    -0.268 OA
BRANCH  14  16
ATOM     16  C   UNL     1       0.634  -4.565   3.409  0.00  0.00    +0.050 A 
ATOM     17  C   UNL     1       1.013  -4.609   4.751  0.00  0.00    +0.013 A 
ATOM     18  C   UNL     1       0.927  -5.795   5.450  0.00  0.00    +0.001 A 
ATOM     19  C   UNL     1       0.467  -6.939   4.824  0.00  0.00    +0.001 A 
ATOM     20  C   UNL     1       0.090  -6.903   3.493  0.00  0.00    +0.013 A 
ATOM     21  C   UNL     1       0.166  -5.721   2.784  0.00  0.00    +0.067 A 
BRANCH  21  22
ATOM     22  C   UNL     1      -0.251  -5.681   1.336  0.00  0.00    +0.418 C 
ATOM     23  F   UNL     1      -0.472  -6.984   0.879  0.00  0.00    -0.166 F 
ATOM     24  F   UNL     1      -1.429  -4.937   1.210  0.00  0.00    -0.166 F 
ATOM     25  F   UNL     1       0.761  -5.085   0.576  0.00  0.00    -0.166 F 
ENDBRANCH  21  22
ENDBRANCH  14  16
ENDBRANCH   4  14
BRANCH   3  26
ATOM     26  C   UNL     1       1.805   1.333   2.456  0.00  0.00    +0.120 C 
BRANCH  26  27
ATOM     27  C   UNL     1       2.717   2.329   3.175  0.00  0.00    +0.054 C 
BRANCH  27  28
ATOM     28  C   UNL     1       2.516   3.704   2.592  0.00  0.00    -0.040 C 
ATOM     29  C   UNL     1       1.616   4.633   2.990  0.00  0.00    -0.001 A 
ATOM     30  C   UNL     1       0.594   4.639   4.043  0.00  0.00    +0.010 A 
ATOM     31  C   UNL     1      -0.175   5.740   4.204  0.00  0.00    +0.001 A 
ATOM     32  C   UNL     1      -0.019   6.873   3.393  0.00  0.00    +0.002 A 
ATOM     33  C   UNL     1       0.898   6.942   2.405  0.00  0.00    +0.026 A 
ATOM     34  C   UNL     1       1.761   5.841   2.147  0.00  0.00    +0.043 A 
ATOM     35  N   UNL     1       2.713   5.667   1.263  0.00  0.00    -0.380 N 
ATOM     36  C   UNL     1       3.285   4.328   1.449  0.00  0.00    +0.144 C 
ATOM     37  H   UNL     1       2.995   6.315   0.599  0.00  0.00    +0.160 HD
ENDBRANCH  27  28
ENDBRANCH  26  27
ENDBRANCH   3  26
TORSDOF 7
