REMARK  Name = ZINC59410947
REMARK  10 active torsions:
REMARK  status: ('A' for Active; 'I' for Inactive)
REMARK    1  A    between atoms: C_1  and  C_2
REMARK    2  A    between atoms: C_5  and  S_29
REMARK    3  A    between atoms: C_7  and  C_8
REMARK    4  A    between atoms: N_10  and  C_11
REMARK    5  A    between atoms: C_11  and  C_12
REMARK    6  A    between atoms: C_15  and  C_18
REMARK    7  A    between atoms: C_18  and  N_19
REMARK    8  A    between atoms: C_21  and  C_28
REMARK    9  A    between atoms: C_24  and  C_27
REMARK   10  A    between atoms: S_29  and  N_32
REMARK                            x       y       z     vdW  Elec       q    Type
REMARK                         _______ _______ _______ _____ _____    ______ ____
ROOT
ATOM      1  C   UNL     1       0.242   0.021   2.481  0.00  0.00    +0.245 C 
ATOM      2  O   UNL     1       0.135   1.232   2.503  0.00  0.00    -0.270 OA
ATOM      3  N   UNL     1       0.465  -0.656   3.625  0.00  0.00    -0.307 N 
ATOM      4  H   UNL     1       0.551  -1.622   3.607  0.00  0.00    +0.149 HD
ENDROOT
BRANCH   1  11
ATOM      5  C   UNL     1      -0.511   1.452   0.082  0.00  0.00    +0.044 C 
ATOM      6  C   UNL     1      -0.234  -0.028   0.036  0.00  0.00    -0.038 A 
ATOM      7  C   UNL     1      -0.334  -0.714  -1.157  0.00  0.00    +0.006 A 
ATOM      8  C   UNL     1      -0.080  -2.073  -1.200  0.00  0.00    +0.029 A 
ATOM      9  C   UNL     1       0.275  -2.754  -0.049  0.00  0.00    +0.106 A 
ATOM     10  C   UNL     1       0.378  -2.080   1.150  0.00  0.00    +0.041 A 
ATOM     11  C   UNL     1       0.128  -0.708   1.200  0.00  0.00    +0.041 A 
BRANCH   9  12
ATOM     12  S   UNL     1       0.595  -4.486  -0.115  0.00  0.00    +0.056 S 
ATOM     13  O   UNL     1       0.375  -4.989   1.195  0.00  0.00    -0.153 OA
ATOM     14  O   UNL     1      -0.101  -4.984  -1.250  0.00  0.00    -0.153 OA
BRANCH  12  15
ATOM     15  N   UNL     1       2.210  -4.673  -0.430  0.00  0.00    -0.204 NA
ATOM     16  H   UNL     1       2.776  -3.894  -0.539  0.00  0.00    +0.144 HD
ATOM     17  H   UNL     1       2.589  -5.563  -0.506  0.00  0.00    +0.144 HD
ENDBRANCH  12  15
ENDBRANCH   9  12
ENDBRANCH   1  11
BRANCH   3  18
ATOM     18  C   UNL     1       0.578   0.067   4.894  0.00  0.00    +0.139 C 
BRANCH  18  19
ATOM     19  C   UNL     1       0.825  -0.915   6.011  0.00  0.00    -0.030 A 
ATOM     20  C   UNL     1      -0.243  -1.477   6.685  0.00  0.00    +0.005 A 
ATOM     21  C   UNL     1      -0.017  -2.377   7.710  0.00  0.00    +0.002 A 
ATOM     22  C   UNL     1       1.277  -2.716   8.059  0.00  0.00    -0.064 A 
ATOM     23  C   UNL     1       2.345  -2.155   7.383  0.00  0.00    +0.002 A 
ATOM     24  C   UNL     1       2.119  -1.258   6.356  0.00  0.00    +0.005 A 
BRANCH  22  25
ATOM     25  C   UNL     1       1.524  -3.696   9.176  0.00  0.00    -0.043 C 
BRANCH  25  26
ATOM     26  N   UNL     1       1.576  -5.059   8.629  0.00  0.00    +0.383 N 
ATOM     27  C   UNL     1       2.732  -5.180   7.732  0.00  0.00    -0.075 C 
ATOM     28  C   UNL     1       2.745  -6.572   7.097  0.00  0.00    -0.031 C 
ATOM     29  C   UNL     1       2.840  -7.630   8.200  0.00  0.00    +0.003 C 
ATOM     30  C   UNL     1       1.670  -7.447   9.172  0.00  0.00    -0.031 C 
ATOM     31  C   UNL     1       1.697  -6.022   9.730  0.00  0.00    -0.075 C 
ATOM     32  C   UNL     1       1.798  -8.449  10.320  0.00  0.00    +0.005 C 
ATOM     33  C   UNL     1       1.458  -6.781   6.297  0.00  0.00    +0.005 C 
ATOM     34  H   UNL     1       0.731  -5.245   8.111  0.00  0.00    -0.081 HD
ENDBRANCH  25  26
ENDBRANCH  22  25
ENDBRANCH  18  19
ENDBRANCH   3  18
TORSDOF 7
