REMARK  Name = ZINC56956129
REMARK  6 active torsions:
REMARK  status: ('A' for Active; 'I' for Inactive)
REMARK    1  A    between atoms: C_1  and  C_2
REMARK    2  A    between atoms: C_12  and  N_17
REMARK    3  A    between atoms: C_14  and  O_16
REMARK    4  A    between atoms: C_26  and  C_40
REMARK    5  A    between atoms: C_28  and  N_34
REMARK    6  A    between atoms: C_30  and  O_33
REMARK                            x       y       z     vdW  Elec       q    Type
REMARK                         _______ _______ _______ _____ _____    ______ ____
ROOT
ATOM      1  C   UNL     1       0.086   1.624   0.167  0.00  0.00    +0.014 C 
ATOM      2  C   UNL     1       0.231   0.102   0.233  0.00  0.00    -0.005 C 
ATOM      3  C   UNL     1       0.713  -0.476  -1.099  0.00  0.00    +0.010 C 
ATOM      4  C   UNL     1       2.182  -0.136  -1.337  0.00  0.00    +0.005 C 
ATOM      5  C   UNL     1       3.019  -0.783  -0.229  0.00  0.00    -0.001 C 
ATOM      6  C   UNL     1       2.612  -0.166   1.108  0.00  0.00    -0.004 C 
ATOM      7  C   UNL     1       1.157  -0.332   1.382  0.00  0.00    -0.001 C 
ATOM      8  C   UNL     1       0.782  -1.808   1.609  0.00  0.00    -0.009 C 
ATOM      9  C   UNL     1      -0.755  -1.820   1.440  0.00  0.00    -0.039 C 
ATOM     10  C   UNL     1      -1.113  -0.589   0.587  0.00  0.00    +0.107 C 
ATOM     11  C   UNL     1       3.452  -0.778   2.232  0.00  0.00    +0.004 C 
ATOM     12  C   UNL     1       4.933  -0.501   1.971  0.00  0.00    +0.004 C 
ATOM     13  C   UNL     1       5.082   0.297   0.674  0.00  0.00    -0.002 C 
ATOM     14  C   UNL     1       4.503  -0.523  -0.499  0.00  0.00    -0.025 C 
ATOM     15  C   UNL     1       4.651   0.266  -1.802  0.00  0.00    +0.028 C 
ATOM     16  C   UNL     1       6.134   0.530  -2.072  0.00  0.00    +0.086 C 
ATOM     17  C   UNL     1       6.728   1.337  -0.916  0.00  0.00    +0.132 C 
ATOM     18  C   UNL     1       6.564   0.575   0.413  0.00  0.00    +0.037 C 
ATOM     19  C   UNL     1       5.241  -1.857  -0.622  0.00  0.00    +0.012 C 
ENDROOT
BRANCH   9  20
ATOM     20  N   UNL     1      -1.177  -3.049   0.755  0.00  0.00    +0.383 N 
ATOM     21  C   UNL     1      -0.409  -3.222  -0.504  0.00  0.00    -0.078 C 
ATOM     22  C   UNL     1      -0.531  -4.741  -0.788  0.00  0.00    -0.020 C 
ATOM     23  C   UNL     1      -0.454  -5.363   0.625  0.00  0.00    -0.020 C 
ATOM     24  C   UNL     1      -0.860  -4.230   1.587  0.00  0.00    -0.078 C 
ATOM     25  H   UNL     1      -2.166  -3.016   0.560  0.00  0.00    -0.081 HD
ENDBRANCH   9  20
BRANCH  16  26
ATOM     26  N   UNL     1       6.845  -0.750  -2.191  0.00  0.00    -0.293 NA
ATOM     27  C   UNL     1       8.277  -0.536  -2.448  0.00  0.00    +0.113 C 
ATOM     28  C   UNL     1       8.988  -1.891  -2.506  0.00  0.00    +0.175 C 
ATOM     29  O   UNL     1       8.373  -2.704  -3.509  0.00  0.00    -0.377 OA
ATOM     30  C   UNL     1       6.979  -2.933  -3.289  0.00  0.00    +0.175 C 
ATOM     31  C   UNL     1       6.247  -1.589  -3.240  0.00  0.00    +0.113 C 
ENDBRANCH  16  26
BRANCH  10  32
ATOM     32  O   UNL     1      -1.784  -0.998  -0.607  0.00  0.00    -0.393 OA
ATOM     33  H   UNL     1      -2.666  -1.363  -0.456  0.00  0.00    +0.210 HD
ENDBRANCH  10  32
BRANCH  17  34
ATOM     34  O   UNL     1       8.113   1.583  -1.169  0.00  0.00    -0.390 OA
ATOM     35  H   UNL     1       8.555   2.092  -0.475  0.00  0.00    +0.210 HD
ENDBRANCH  17  34
TORSDOF 4
