REMARK  Name = ZINC00262026
REMARK  5 active torsions:
REMARK  status: ('A' for Active; 'I' for Inactive)
REMARK    1  A    between atoms: C_3  and  C_10
REMARK    2  A    between atoms: C_5  and  N_7
REMARK    3  A    between atoms: N_11  and  C_12
REMARK    4  A    between atoms: C_15  and  C_18
REMARK    5  A    between atoms: C_18  and  C_19
REMARK                            x       y       z     vdW  Elec       q    Type
REMARK                         _______ _______ _______ _____ _____    ______ ____
ROOT
ATOM      1  C   UNL     1      -6.591  -1.612  -0.774  0.00  0.00    +0.123 C 
ATOM      2  N   UNL     1      -5.571  -1.786   0.019  0.00  0.00    -0.255 NA
ENDROOT
BRANCH   1   5
ATOM      3  C   UNL     1      -9.825  -3.313  -1.616  0.00  0.00    +0.003 A 
ATOM      4  C   UNL     1      -8.793  -2.399  -1.622  0.00  0.00    +0.013 A 
ATOM      5  C   UNL     1      -7.696  -2.582  -0.774  0.00  0.00    +0.042 A 
ATOM      6  C   UNL     1      -7.654  -3.700   0.073  0.00  0.00    +0.217 A 
ATOM      7  C   UNL     1      -8.703  -4.604   0.069  0.00  0.00    +0.173 A 
ATOM      8  C   UNL     1      -9.781  -4.412  -0.775  0.00  0.00    +0.037 A 
ATOM      9  O   UNL     1      -6.592  -3.892   0.897  0.00  0.00    -0.285 OA
BRANCH   7  10
ATOM     10  N   UNL     1      -8.668  -5.783   0.964  0.00  0.00    +0.060 N 
ATOM     11  O   UNL     1      -9.587  -6.581   0.957  0.00  0.00    -0.126 OA
ATOM     12  O   UNL     1      -7.719  -5.953   1.708  0.00  0.00    -0.126 OA
ENDBRANCH   7  10
ENDBRANCH   1   5
BRANCH   2  13
ATOM     13  C   UNL     1      -4.542  -0.883   0.019  0.00  0.00    +0.064 A 
ATOM     14  C   UNL     1      -4.009  -0.427   1.226  0.00  0.00    +0.028 A 
ATOM     15  C   UNL     1      -2.973   0.484   1.219  0.00  0.00    +0.006 A 
ATOM     16  C   UNL     1      -2.462   0.945   0.019  0.00  0.00    -0.036 A 
ATOM     17  C   UNL     1      -2.988   0.501  -1.181  0.00  0.00    +0.006 A 
ATOM     18  C   UNL     1      -4.021  -0.413  -1.189  0.00  0.00    +0.028 A 
BRANCH  16  19
ATOM     19  C   UNL     1      -1.329   1.940   0.019  0.00  0.00    +0.160 C 
BRANCH  19  20
ATOM     20  C   UNL     1      -0.014   1.204   0.009  0.00  0.00    +0.360 C 
ATOM     21  O   UNL     1       0.002  -0.004   0.002  0.00  0.00    -0.246 OA
ATOM     22  O   UNL     1       1.139   1.891   0.001  0.00  0.00    -0.246 OA
ENDBRANCH  19  20
ENDBRANCH  16  19
ENDBRANCH   2  13
TORSDOF 5
