REMARK  Name = ZINC16237507
REMARK  9 active torsions:
REMARK  status: ('A' for Active; 'I' for Inactive)
REMARK    1  A    between atoms: C_1  and  C_2
REMARK    2  A    between atoms: C_5  and  S_9
REMARK    3  A    between atoms: C_7  and  C_8
REMARK    4  A    between atoms: S_9  and  N_12
REMARK    5  A    between atoms: N_12  and  C_13
REMARK    6  A    between atoms: C_13  and  C_14
REMARK    7  A    between atoms: C_14  and  C_15
REMARK    8  A    between atoms: N_24  and  C_27
REMARK    9  A    between atoms: C_27  and  C_28
REMARK                            x       y       z     vdW  Elec       q    Type
REMARK                         _______ _______ _______ _____ _____    ______ ____
ROOT
ATOM      1  C   UNL     1       4.672  -5.231   2.207  0.00  0.00    +0.220 C 
ATOM      2  O   UNL     1       4.318  -4.418   3.034  0.00  0.00    -0.275 OA
ATOM      3  N   UNL     1       5.857  -5.859   2.343  0.00  0.00    -0.265 N 
ATOM      4  C   UNL     1       6.674  -5.574   3.431  0.00  0.00    +0.165 A 
ATOM      5  N   UNL     1       6.455  -4.734   4.420  0.00  0.00    -0.229 NA
ATOM      6  C   UNL     1       7.332  -4.563   5.400  0.00  0.00    +0.050 A 
ATOM      7  C   UNL     1       8.461  -5.315   5.298  0.00  0.00    -0.002 A 
ATOM      8  S   UNL     1       8.182  -6.225   3.807  0.00  0.00    -0.059 S 
ATOM      9  C   UNL     1       9.615  -5.329   6.240  0.00  0.00    -0.033 C 
ATOM     10  N   UNL     1       9.518  -4.137   7.106  0.00  0.00    +0.386 N 
ATOM     11  C   UNL     1       8.164  -4.046   7.668  0.00  0.00    -0.072 C 
ATOM     12  C   UNL     1       7.165  -3.622   6.586  0.00  0.00    +0.038 C 
ATOM     13  H   UNL     1       6.140  -6.509   1.681  0.00  0.00    +0.157 HD
ATOM     14  H   UNL     1       9.713  -3.310   6.562  0.00  0.00    -0.081 HD
ENDROOT
BRANCH   1  15
ATOM     15  C   UNL     1       3.787  -5.540   1.028  0.00  0.00    +0.113 C 
BRANCH  15  16
ATOM     16  C   UNL     1       2.512  -4.699   1.113  0.00  0.00    +0.115 C 
BRANCH  16  17
ATOM     17  N   UNL     1       1.651  -4.999  -0.034  0.00  0.00    -0.189 NA
ATOM     18  H   UNL     1       2.011  -5.473  -0.800  0.00  0.00    +0.148 HD
BRANCH  17  19
ATOM     19  S   UNL     1       0.063  -4.530  -0.023  0.00  0.00    +0.058 S 
ATOM     20  O   UNL     1      -0.476  -4.950   1.223  0.00  0.00    -0.153 OA
ATOM     21  O   UNL     1      -0.490  -4.937  -1.267  0.00  0.00    -0.153 OA
BRANCH  19  26
ATOM     22  C   UNL     1      -0.018   1.503   0.010  0.00  0.00    +0.044 C 
ATOM     23  C   UNL     1       0.002  -0.004   0.002  0.00  0.00    -0.047 A 
ATOM     24  C   UNL     1       0.006  -0.689  -1.199  0.00  0.00    +0.005 A 
ATOM     25  C   UNL     1       0.025  -2.071  -1.207  0.00  0.00    +0.029 A 
ATOM     26  C   UNL     1       0.040  -2.768  -0.013  0.00  0.00    +0.106 A 
ATOM     27  C   UNL     1       0.037  -2.084   1.188  0.00  0.00    +0.032 A 
ATOM     28  C   UNL     1       0.023  -0.702   1.195  0.00  0.00    -0.046 A 
ATOM     29  C   UNL     1       0.025   0.045   2.504  0.00  0.00    +0.044 C 
ENDBRANCH  19  26
ENDBRANCH  17  19
ENDBRANCH  16  17
ENDBRANCH  15  16
ENDBRANCH   1  15
BRANCH  10  30
ATOM     30  C   UNL     1      10.495  -4.246   8.199  0.00  0.00    -0.043 C 
BRANCH  30  31
ATOM     31  C   UNL     1      11.890  -4.214   7.630  0.00  0.00    -0.064 A 
ATOM     32  C   UNL     1      12.512  -5.391   7.260  0.00  0.00    +0.002 A 
ATOM     33  C   UNL     1      13.792  -5.362   6.738  0.00  0.00    +0.000 A 
ATOM     34  C   UNL     1      14.450  -4.155   6.587  0.00  0.00    +0.000 A 
ATOM     35  C   UNL     1      13.827  -2.978   6.957  0.00  0.00    +0.000 A 
ATOM     36  C   UNL     1      12.545  -3.007   7.474  0.00  0.00    +0.002 A 
ENDBRANCH  30  31
ENDBRANCH  10  30
TORSDOF 7
