REMARK  Name = ZINC36607516
REMARK  9 active torsions:
REMARK  status: ('A' for Active; 'I' for Inactive)
REMARK    1  A    between atoms: C_4  and  N_7
REMARK    2  A    between atoms: N_7  and  C_8
REMARK    3  A    between atoms: C_8  and  C_10
REMARK    4  A    between atoms: C_8  and  C_19
REMARK    5  A    between atoms: C_11  and  O_18
REMARK    6  A    between atoms: C_13  and  O_17
REMARK    7  A    between atoms: C_15  and  O_16
REMARK    8  A    between atoms: N_21  and  C_22
REMARK    9  A    between atoms: C_28  and  C_30
REMARK                            x       y       z     vdW  Elec       q    Type
REMARK                         _______ _______ _______ _____ _____    ______ ____
ROOT
ATOM      1  C   UNL     1       2.773  -1.843  -0.400  0.00  0.00    +0.204 C 
ENDROOT
BRANCH   1   2
ATOM      2  C   UNL     1       1.649  -2.134   0.560  0.00  0.00    +0.065 A 
ATOM      3  C   UNL     1       0.622  -1.216   0.724  0.00  0.00    +0.129 A 
ATOM      4  C   UNL     1      -0.413  -1.484   1.607  0.00  0.00    +0.091 A 
ATOM      5  C   UNL     1      -0.422  -2.670   2.326  0.00  0.00    +0.124 A 
ATOM      6  C   UNL     1       0.604  -3.588   2.162  0.00  0.00    +0.091 A 
ATOM      7  C   UNL     1       1.637  -3.322   1.276  0.00  0.00    +0.129 A 
BRANCH   7   8
ATOM      8  O   UNL     1       2.640  -4.224   1.111  0.00  0.00    -0.506 OA
ATOM      9  H   UNL     1       3.386  -4.097   1.714  0.00  0.00    +0.292 HD
ENDBRANCH   7   8
BRANCH   5  10
ATOM     10  O   UNL     1      -1.436  -2.931   3.192  0.00  0.00    -0.507 OA
ATOM     11  H   UNL     1      -2.183  -3.398   2.794  0.00  0.00    +0.292 HD
ENDBRANCH   5  10
BRANCH   3  12
ATOM     12  O   UNL     1       0.630  -0.055   0.019  0.00  0.00    -0.506 OA
ATOM     13  H   UNL     1       0.114  -0.087  -0.798  0.00  0.00    +0.292 HD
ENDBRANCH   3  12
ENDBRANCH   1   2
BRANCH   1  14
ATOM     14  C   UNL     1       2.228  -1.759  -1.802  0.00  0.00    +0.239 C 
ATOM     15  O   UNL     1       2.353  -0.735  -2.440  0.00  0.00    -0.273 OA
ATOM     16  N   UNL     1       1.601  -2.821  -2.346  0.00  0.00    -0.311 N 
ATOM     17  H   UNL     1       1.502  -3.639  -1.836  0.00  0.00    +0.149 HD
BRANCH  16  18
ATOM     18  C   UNL     1       1.071  -2.738  -3.710  0.00  0.00    +0.073 C 
ATOM     19  C   UNL     1      -0.326  -2.116  -3.677  0.00  0.00    +0.022 C 
ATOM     20  C   UNL     1      -0.880  -2.030  -5.100  0.00  0.00    +0.002 C 
ATOM     21  C   UNL     1      -0.961  -3.435  -5.702  0.00  0.00    +0.000 C 
ATOM     22  C   UNL     1       0.436  -4.057  -5.735  0.00  0.00    +0.002 C 
ATOM     23  C   UNL     1       0.990  -4.143  -4.311  0.00  0.00    +0.022 C 
ENDBRANCH  16  18
ENDBRANCH   1  14
BRANCH   1  24
ATOM     24  N   UNL     1       3.403  -0.570  -0.043  0.00  0.00    -0.251 N 
ATOM     25  C   UNL     1       4.357  -0.044  -0.836  0.00  0.00    +0.252 C 
ATOM     26  O   UNL     1       4.995   0.921  -0.462  0.00  0.00    -0.270 OA
BRANCH  25  27
ATOM     27  C   UNL     1       4.627  -0.640  -2.161  0.00  0.00    +0.037 A 
ATOM     28  C   UNL     1       4.289  -1.971  -2.413  0.00  0.00    +0.014 A 
ATOM     29  C   UNL     1       4.544  -2.522  -3.651  0.00  0.00    +0.021 A 
ATOM     30  C   UNL     1       5.134  -1.757  -4.644  0.00  0.00    +0.041 A 
ATOM     31  C   UNL     1       5.472  -0.436  -4.400  0.00  0.00    +0.021 A 
ATOM     32  C   UNL     1       5.217   0.127  -3.168  0.00  0.00    +0.014 A 
ATOM     33 CL   UNL     1       5.453  -2.458  -6.200  0.00  0.00    -0.084 Cl
ENDBRANCH  25  27
BRANCH  24  37
ATOM     34  C   UNL     1       2.245   1.427   3.425  0.00  0.00    +0.000 A 
ATOM     35  C   UNL     1       2.785   0.157   3.508  0.00  0.00    +0.002 A 
ATOM     36  C   UNL     1       3.169  -0.508   2.360  0.00  0.00    +0.023 A 
ATOM     37  C   UNL     1       3.014   0.101   1.121  0.00  0.00    +0.038 A 
ATOM     38  C   UNL     1       2.472   1.377   1.041  0.00  0.00    +0.023 A 
ATOM     39  C   UNL     1       2.089   2.036   2.193  0.00  0.00    +0.002 A 
ENDBRANCH  24  37
ENDBRANCH   1  24
TORSDOF 9
