REMARK  Name = ZINC39601976
REMARK  13 active torsions:
REMARK  status: ('A' for Active; 'I' for Inactive)
REMARK    1  A    between atoms: C_1  and  C_2
REMARK    2  A    between atoms: C_2  and  C_3
REMARK    3  A    between atoms: C_2  and  C_4
REMARK    4  A    between atoms: C_4  and  C_6
REMARK    5  A    between atoms: C_4  and  O_28
REMARK    6  A    between atoms: C_10  and  C_19
REMARK    7  A    between atoms: N_21  and  C_22
REMARK    8  A    between atoms: C_22  and  C_23
REMARK    9  A    between atoms: C_23  and  O_24
REMARK   10  A    between atoms: O_24  and  C_25
REMARK   11  A    between atoms: C_25  and  C_26
REMARK   12  A    between atoms: C_26  and  O_27
REMARK   13  A    between atoms: O_28  and  C_29
REMARK                            x       y       z     vdW  Elec       q    Type
REMARK                         _______ _______ _______ _____ _____    ______ ____
ROOT
ATOM      1  C   UNL     1      -2.011  -0.054  -1.131  0.00  0.00    +0.257 C 
ATOM      2  O   UNL     1      -2.986   0.656  -1.002  0.00  0.00    -0.272 OA
ATOM      3  N   UNL     1      -1.668  -0.511  -2.352  0.00  0.00    -0.297 N 
ATOM      4  C   UNL     1      -0.526  -1.386  -2.706  0.00  0.00    +0.121 C 
ATOM      5  C   UNL     1      -1.088  -2.347  -3.778  0.00  0.00    +0.100 C 
ATOM      6  C   UNL     1      -2.283  -1.596  -4.390  0.00  0.00    -0.004 C 
ATOM      7  C   UNL     1      -2.352  -0.256  -3.643  0.00  0.00    +0.115 C 
ATOM      8  C   UNL     1      -2.050  -1.360  -5.880  0.00  0.00    -0.010 C 
ATOM      9  C   UNL     1      -3.276  -0.663  -6.478  0.00  0.00    -0.082 C 
ATOM     10  N   UNL     1      -4.465  -1.500  -6.275  0.00  0.00    +0.379 N 
ATOM     11  C   UNL     1      -4.734  -1.646  -4.839  0.00  0.00    -0.082 C 
ATOM     12  C   UNL     1      -3.571  -2.384  -4.171  0.00  0.00    -0.010 C 
ATOM     13  H   UNL     1      -5.259  -1.069  -6.723  0.00  0.00    -0.086 HD
ATOM     14  H   UNL     1      -4.307  -2.411  -6.680  0.00  0.00    -0.086 HD
ENDROOT
BRANCH   5  15
ATOM     15  C   UNL     1      -0.046  -2.627  -4.830  0.00  0.00    +0.218 C 
ATOM     16  O   UNL     1       0.833  -1.819  -5.043  0.00  0.00    -0.275 OA
ATOM     17  N   UNL     1      -0.091  -3.776  -5.533  0.00  0.00    -0.313 N 
ATOM     18  H   UNL     1      -0.794  -4.423  -5.362  0.00  0.00    +0.149 HD
BRANCH  17  19
ATOM     19  C   UNL     1       0.922  -4.049  -6.555  0.00  0.00    +0.132 C 
BRANCH  19  20
ATOM     20  C   UNL     1       0.644  -5.409  -7.199  0.00  0.00    +0.178 C 
BRANCH  20  21
ATOM     21  O   UNL     1      -0.599  -5.357  -7.902  0.00  0.00    -0.376 OA
BRANCH  21  22
ATOM     22  C   UNL     1      -0.955  -6.584  -8.544  0.00  0.00    +0.187 C 
BRANCH  22  23
ATOM     23  C   UNL     1      -2.295  -6.413  -9.262  0.00  0.00    +0.184 C 
BRANCH  23  24
ATOM     24  O   UNL     1      -2.152  -5.462 -10.318  0.00  0.00    -0.393 OA
ATOM     25  H   UNL     1      -2.965  -5.303 -10.818  0.00  0.00    +0.209 HD
ENDBRANCH  23  24
ENDBRANCH  22  23
ENDBRANCH  21  22
ENDBRANCH  20  21
ENDBRANCH  19  20
ENDBRANCH  17  19
ENDBRANCH   5  15
BRANCH   1  26
ATOM     26  C   UNL     1      -1.184  -0.425   0.072  0.00  0.00    +0.261 C 
BRANCH  26  28
ATOM     27  C   UNL     1       0.113   1.708  -0.030  0.00  0.00    +0.011 C 
ATOM     28  C   UNL     1       0.214   0.182  -0.064  0.00  0.00    +0.033 C 
ATOM     29  C   UNL     1       1.093  -0.296   1.094  0.00  0.00    +0.011 C 
ENDBRANCH  26  28
BRANCH  26  30
ATOM     30  O   UNL     1      -1.809   0.079   1.254  0.00  0.00    -0.479 OA
BRANCH  30  31
ATOM     31  C   UNL     1      -1.777  -0.716   2.356  0.00  0.00    +0.122 A 
ATOM     32  C   UNL     1      -2.468  -0.345   3.500  0.00  0.00    +0.045 A 
ATOM     33  C   UNL     1      -2.434  -1.155   4.619  0.00  0.00    +0.004 A 
ATOM     34  C   UNL     1      -1.712  -2.334   4.599  0.00  0.00    +0.000 A 
ATOM     35  C   UNL     1      -1.022  -2.705   3.459  0.00  0.00    +0.004 A 
ATOM     36  C   UNL     1      -1.057  -1.902   2.336  0.00  0.00    +0.045 A 
ENDBRANCH  30  31
ENDBRANCH  26  30
ENDBRANCH   1  26
TORSDOF 11
