REMARK  Name = ZINC15947263
REMARK  10 active torsions:
REMARK  status: ('A' for Active; 'I' for Inactive)
REMARK    1  A    between atoms: C_1  and  C_2
REMARK    2  A    between atoms: C_2  and  N_3
REMARK    3  A    between atoms: C_11  and  O_38
REMARK    4  A    between atoms: C_13  and  C_16
REMARK    5  A    between atoms: C_19  and  O_25
REMARK    6  A    between atoms: C_20  and  O_22
REMARK    7  A    between atoms: O_22  and  C_23
REMARK    8  A    between atoms: C_23  and  C_24
REMARK    9  A    between atoms: O_25  and  C_26
REMARK   10  A    between atoms: C_26  and  C_28
REMARK                            x       y       z     vdW  Elec       q    Type
REMARK                         _______ _______ _______ _____ _____    ______ ____
ROOT
ATOM      1  C   UNL     1       4.442  -1.581  -7.247  0.00  0.00    -0.002 A 
ATOM      2  C   UNL     1       4.931  -0.288  -7.236  0.00  0.00    +0.011 A 
ATOM      3  C   UNL     1       4.446   0.646  -8.133  0.00  0.00    +0.050 A 
ATOM      4  C   UNL     1       3.468   0.286  -9.046  0.00  0.00    +0.173 A 
ATOM      5  C   UNL     1       2.976  -1.016  -9.058  0.00  0.00    +0.163 A 
ATOM      6  C   UNL     1       3.470  -1.948  -8.160  0.00  0.00    +0.056 A 
ENDROOT
BRANCH   1  17
ATOM      7  N   UNL     1       0.596  -0.585  -1.251  0.00  0.00    +0.383 N 
ATOM      8  C   UNL     1       0.529  -2.050  -1.337  0.00  0.00    -0.074 C 
ATOM      9  C   UNL     1       0.982  -2.519  -2.724  0.00  0.00    +0.018 C 
ATOM     10  C   UNL     1       2.337  -1.888  -3.013  0.00  0.00    -0.027 A 
ATOM     11  C   UNL     1       2.757  -0.824  -2.287  0.00  0.00    -0.021 A 
ATOM     12  S   UNL     1       4.351  -0.428  -2.949  0.00  0.00    -0.080 S 
ATOM     13  C   UNL     1       4.457  -1.596  -4.122  0.00  0.00    +0.080 A 
ATOM     14  C   UNL     1       3.268  -2.330  -4.031  0.00  0.00    +0.067 A 
ATOM     15  C   UNL     1       3.094  -3.469  -4.968  0.00  0.00    +0.220 C 
ATOM     16  N   UNL     1       3.926  -3.564  -5.970  0.00  0.00    -0.223 NA
ATOM     17  C   UNL     1       4.973  -2.595  -6.267  0.00  0.00    +0.224 C 
ATOM     18  N   UNL     1       5.427  -1.895  -5.052  0.00  0.00    -0.313 N 
ATOM     19  C   UNL     1       2.006  -0.158  -1.178  0.00  0.00    -0.035 C 
ATOM     20  H   UNL     1       6.358  -1.657  -4.915  0.00  0.00    +0.149 HD
ATOM     21  H   UNL     1       0.164  -0.181  -2.068  0.00  0.00    -0.081 HD
BRANCH   7  23
ATOM     22  C   UNL     1      -0.156   1.396  -0.024  0.00  0.00    -0.017 C 
ATOM     23  C   UNL     1      -0.115  -0.133  -0.048  0.00  0.00    -0.082 C 
ENDBRANCH   7  23
BRANCH  15  24
ATOM     24  O   UNL     1       2.107  -4.378  -4.791  0.00  0.00    -0.492 OA
ATOM     25  H   UNL     1       2.089  -5.075  -5.460  0.00  0.00    +0.294 HD
ENDBRANCH  15  24
ENDBRANCH   1  17
BRANCH   5  26
ATOM     26  O   UNL     1       2.016  -1.373  -9.952  0.00  0.00    -0.489 OA
BRANCH  26  27
ATOM     27  C   UNL     1       1.558  -2.726  -9.906  0.00  0.00    +0.226 C 
ATOM     28  C   UNL     1       0.488  -2.939 -10.979  0.00  0.00    +0.048 C 
ENDBRANCH  26  27
ENDBRANCH   5  26
BRANCH   4  29
ATOM     29  O   UNL     1       2.990   1.203  -9.929  0.00  0.00    -0.419 OA
BRANCH  29  30
ATOM     30  C   UNL     1       1.815   1.800  -9.647  0.00  0.00    +0.345 C 
ATOM     31  O   UNL     1       1.262   1.583  -8.587  0.00  0.00    -0.245 OA
BRANCH  30  32
ATOM     32  C   UNL     1       1.200   2.715 -10.625  0.00  0.00    +0.067 A 
ATOM     33  C   UNL     1       1.756   2.881 -11.887  0.00  0.00    +0.015 A 
ATOM     34  C   UNL     1       1.175   3.744 -12.806  0.00  0.00    +0.001 A 
ATOM     35  C   UNL     1       0.051   4.455 -12.513  0.00  0.00    +0.008 A 
ATOM     36  C   UNL     1      -0.564   4.336 -11.256  0.00  0.00    -0.017 A 
ATOM     37  C   UNL     1      -0.010   3.462 -10.289  0.00  0.00    -0.004 A 
ATOM     38  C   UNL     1      -0.624   3.336  -9.037  0.00  0.00    +0.009 A 
ATOM     39  C   UNL     1      -1.752   4.052  -8.765  0.00  0.00    +0.001 A 
ATOM     40  C   UNL     1      -2.304   4.907  -9.716  0.00  0.00    +0.001 A 
ATOM     41  C   UNL     1      -1.724   5.064 -10.938  0.00  0.00    +0.008 A 
ENDBRANCH  30  32
ENDBRANCH  29  30
ENDBRANCH   4  29
TORSDOF 8
