REMARK  Name = ZINC09594155
REMARK  9 active torsions:
REMARK  status: ('A' for Active; 'I' for Inactive)
REMARK    1  A    between atoms: C_1  and  C_2
REMARK    2  A    between atoms: C_3  and  C_8
REMARK    3  A    between atoms: C_4  and  C_7
REMARK    4  A    between atoms: C_8  and  O_9
REMARK    5  A    between atoms: O_9  and  C_10
REMARK    6  A    between atoms: C_13  and  C_16
REMARK    7  A    between atoms: N_18  and  N_19
REMARK    8  A    between atoms: C_22  and  C_26
REMARK    9  A    between atoms: C_22  and  C_27
REMARK                            x       y       z     vdW  Elec       q    Type
REMARK                         _______ _______ _______ _____ _____    ______ ____
ROOT
ATOM      1  C   UNL     1       2.264  -2.203  -1.160  0.00  0.00    +0.261 C 
ATOM      2  O   UNL     1       2.311  -1.533  -2.173  0.00  0.00    -0.269 OA
ATOM      3  N   UNL     1       1.767  -1.673  -0.025  0.00  0.00    -0.220 N 
ATOM      4  H   UNL     1       1.729  -2.208   0.784  0.00  0.00    +0.174 HD
ENDROOT
BRANCH   3   5
ATOM      5  N   UNL     1       1.304  -0.351  -0.012  0.00  0.00    -0.137 N 
ATOM      6  C   UNL     1       0.002  -0.004   0.002  0.00  0.00    +0.267 C 
ATOM      7  O   UNL     1      -0.954  -0.749   0.006  0.00  0.00    -0.271 OA
ATOM      8  C   UNL     1      -0.018   1.512   0.010  0.00  0.00    +0.137 C 
ATOM      9  N   UNL     1       1.409   1.877  -0.001  0.00  0.00    -0.280 N 
ATOM     10  C   UNL     1       2.101   0.724  -0.014  0.00  0.00    +0.327 C 
ATOM     11  O   UNL     1       3.315   0.665  -0.026  0.00  0.00    -0.251 OA
ATOM     12  C   UNL     1      -0.698   2.034   1.278  0.00  0.00    +0.047 C 
ATOM     13  H   UNL     1       1.777   2.775  -0.000  0.00  0.00    +0.152 HD
BRANCH   8  14
ATOM     14  C   UNL     1      -0.711   2.039  -1.220  0.00  0.00    -0.015 A 
ATOM     15  C   UNL     1      -1.712   1.299  -1.820  0.00  0.00    +0.006 A 
ATOM     16  C   UNL     1      -2.351   1.785  -2.946  0.00  0.00    +0.000 A 
ATOM     17  C   UNL     1      -1.982   3.007  -3.476  0.00  0.00    +0.000 A 
ATOM     18  C   UNL     1      -0.977   3.745  -2.879  0.00  0.00    +0.000 A 
ATOM     19  C   UNL     1      -0.342   3.261  -1.750  0.00  0.00    +0.006 A 
ENDBRANCH   8  14
ENDBRANCH   3   5
BRANCH   1  23
ATOM     20  C   UNL     1       3.666  -6.211  -1.197  0.00  0.00    +0.121 A 
ATOM     21  C   UNL     1       3.720  -5.447  -2.357  0.00  0.00    +0.046 A 
ATOM     22  C   UNL     1       3.266  -4.147  -2.349  0.00  0.00    +0.016 A 
ATOM     23  C   UNL     1       2.751  -3.596  -1.173  0.00  0.00    +0.038 A 
ATOM     24  C   UNL     1       2.703  -4.366  -0.007  0.00  0.00    +0.016 A 
ATOM     25  C   UNL     1       3.153  -5.667  -0.025  0.00  0.00    +0.046 A 
BRANCH  20  26
ATOM     26  O   UNL     1       4.113  -7.492  -1.209  0.00  0.00    -0.487 OA
BRANCH  26  27
ATOM     27  C   UNL     1       4.027  -8.221   0.018  0.00  0.00    +0.269 C 
BRANCH  27  30
ATOM     28  C   UNL     1       2.386 -10.870  -0.885  0.00  0.00    +0.069 C 
ATOM     29  C   UNL     1       3.858 -10.772  -0.579  0.00  0.00    +0.087 A 
ATOM     30  C   UNL     1       4.566  -9.613  -0.187  0.00  0.00    +0.054 A 
ATOM     31  C   UNL     1       5.841 -10.046  -0.031  0.00  0.00    +0.141 A 
ATOM     32  O   UNL     1       5.836 -11.354  -0.323  0.00  0.00    -0.359 OA
ATOM     33  N   UNL     1       4.730 -11.737  -0.627  0.00  0.00    -0.083 NA
ATOM     34  C   UNL     1       7.029  -9.219   0.389  0.00  0.00    +0.089 C 
ENDBRANCH  27  30
ENDBRANCH  26  27
ENDBRANCH  20  26
ENDBRANCH   1  23
TORSDOF 6
