REMARK  Name = ZINC65329853
REMARK  7 active torsions:
REMARK  status: ('A' for Active; 'I' for Inactive)
REMARK    1  A    between atoms: C_1  and  C_2
REMARK    2  A    between atoms: C_7  and  C_8
REMARK    3  A    between atoms: C_8  and  N_10
REMARK    4  A    between atoms: N_12  and  C_13
REMARK    5  A    between atoms: N_19  and  C_20
REMARK    6  A    between atoms: C_20  and  C_21
REMARK    7  A    between atoms: C_21  and  C_22
REMARK                            x       y       z     vdW  Elec       q    Type
REMARK                         _______ _______ _______ _____ _____    ______ ____
ROOT
ATOM      1  N   UNL     1      -0.163  -0.791   3.819  0.00  0.00    -0.143 NA
ATOM      2  C   UNL     1      -0.361   0.051   4.821  0.00  0.00    +0.194 C 
ATOM      3  N   UNL     1       0.187   1.301   4.781  0.00  0.00    -0.328 N 
ATOM      4  N   UNL     1      -1.113  -0.330   5.894  0.00  0.00    -0.357 N 
ATOM      5  H   UNL     1       0.247   1.777   3.938  0.00  0.00    +0.169 HD
ATOM      6  H   UNL     1      -1.222  -1.272   6.100  0.00  0.00    +0.162 HD
ENDROOT
BRANCH   3   7
ATOM      7  C   UNL     1       0.661   1.894   5.955  0.00  0.00    +0.042 A 
ATOM      8  C   UNL     1       1.229   1.110   6.951  0.00  0.00    +0.026 A 
ATOM      9  C   UNL     1       1.697   1.699   8.109  0.00  0.00    +0.002 A 
ATOM     10  C   UNL     1       1.601   3.068   8.278  0.00  0.00    +0.000 A 
ATOM     11  C   UNL     1       1.036   3.852   7.289  0.00  0.00    +0.002 A 
ATOM     12  C   UNL     1       0.572   3.270   6.125  0.00  0.00    +0.026 A 
ENDBRANCH   3   7
BRANCH   1  13
ATOM     13  C   UNL     1       0.556  -0.409   2.755  0.00  0.00    +0.270 C 
ATOM     14  O   UNL     1       1.100   0.681   2.747  0.00  0.00    -0.268 OA
BRANCH  13  21
ATOM     15  C   UNL     1       2.244   0.360   0.534  0.00  0.00    +0.044 C 
ATOM     16  C   UNL     1       1.501  -0.951   0.513  0.00  0.00    -0.038 A 
ATOM     17  C   UNL     1       1.626  -1.799  -0.569  0.00  0.00    +0.004 A 
ATOM     18  C   UNL     1       0.945  -3.002  -0.590  0.00  0.00    +0.000 A 
ATOM     19  C   UNL     1       0.134  -3.364   0.472  0.00  0.00    +0.001 A 
ATOM     20  C   UNL     1       0.001  -2.525   1.559  0.00  0.00    +0.013 A 
ATOM     21  C   UNL     1       0.690  -1.312   1.589  0.00  0.00    +0.042 A 
ENDBRANCH  13  21
ENDBRANCH   1  13
BRANCH   4  22
ATOM     22  C   UNL     1      -1.756   0.683   6.734  0.00  0.00    +0.120 C 
BRANCH  22  23
ATOM     23  C   UNL     1      -2.492  -0.003   7.886  0.00  0.00    +0.054 C 
BRANCH  23  24
ATOM     24  C   UNL     1      -3.254   1.027   8.681  0.00  0.00    -0.040 C 
ATOM     25  C   UNL     1      -4.547   1.386   8.517  0.00  0.00    -0.001 A 
ATOM     26  C   UNL     1      -5.593   0.943   7.587  0.00  0.00    +0.010 A 
ATOM     27  C   UNL     1      -6.822   1.502   7.667  0.00  0.00    +0.001 A 
ATOM     28  C   UNL     1      -7.122   2.490   8.614  0.00  0.00    +0.002 A 
ATOM     29  C   UNL     1      -6.214   2.949   9.502  0.00  0.00    +0.026 A 
ATOM     30  C   UNL     1      -4.890   2.431   9.508  0.00  0.00    +0.043 A 
ATOM     31  N   UNL     1      -3.848   2.708  10.255  0.00  0.00    -0.380 N 
ATOM     32  C   UNL     1      -2.728   1.863   9.825  0.00  0.00    +0.144 C 
ATOM     33  H   UNL     1      -3.823   3.358  10.974  0.00  0.00    +0.160 HD
ENDBRANCH  23  24
ENDBRANCH  22  23
ENDBRANCH   4  22
TORSDOF 6
