REMARK  Name = ZINC38580948
REMARK  10 active torsions:
REMARK  status: ('A' for Active; 'I' for Inactive)
REMARK    1  A    between atoms: N_9  and  C_10
REMARK    2  A    between atoms: C_12  and  O_25
REMARK    3  A    between atoms: P_21  and  O_24
REMARK    4  A    between atoms: N_26  and  C_27
REMARK    5  A    between atoms: C_27  and  C_28
REMARK    6  A    between atoms: C_28  and  C_29
REMARK    7  A    between atoms: C_29  and  C_30
REMARK    8  A    between atoms: C_30  and  C_31
REMARK    9  A    between atoms: C_31  and  C_32
REMARK   10  A    between atoms: C_32  and  N_33
REMARK                            x       y       z     vdW  Elec       q    Type
REMARK                         _______ _______ _______ _____ _____    ______ ____
ROOT
ATOM      1  C   UNL     1      -0.016   1.360   0.009  0.00  0.00    +0.203 A 
ATOM      2  N   UNL     1       1.200   1.821   0.000  0.00  0.00    -0.231 NA
ATOM      3  C   UNL     1       2.075   0.785  -0.013  0.00  0.00    +0.147 A 
ATOM      4  C   UNL     1       3.476   0.677  -0.028  0.00  0.00    +0.149 A 
ATOM      5  N   UNL     1       4.021  -0.534  -0.040  0.00  0.00    -0.198 NA
ATOM      6  C   UNL     1       3.265  -1.625  -0.039  0.00  0.00    +0.219 A 
ATOM      7  N   UNL     1       1.944  -1.569  -0.025  0.00  0.00    -0.195 NA
ATOM      8  C   UNL     1       1.316  -0.397  -0.013  0.00  0.00    +0.169 A 
ATOM      9  N   UNL     1       0.002  -0.004   0.002  0.00  0.00    -0.285 N 
ATOM     10  N   UNL     1       3.882  -2.866  -0.052  0.00  0.00    -0.313 N 
ATOM     11  N   UNL     1       4.272   1.809  -0.030  0.00  0.00    -0.341 N 
ATOM     12  H   UNL     1       3.346  -3.674  -0.051  0.00  0.00    +0.149 HD
ATOM     13  H   UNL     1       3.864   2.689  -0.021  0.00  0.00    +0.144 HD
ATOM     14  H   UNL     1       5.238   1.723  -0.040  0.00  0.00    +0.144 HD
ENDROOT
BRANCH   9  15
ATOM     15  C   UNL     1      -1.167  -0.887   0.008  0.00  0.00    +0.253 C 
ATOM     16  C   UNL     1      -1.502  -1.308   1.464  0.00  0.00    +0.196 C 
ATOM     17  C   UNL     1      -2.625  -0.314   1.817  0.00  0.00    +0.191 C 
ATOM     18  C   UNL     1      -3.354  -0.251   0.449  0.00  0.00    +0.179 C 
ATOM     19  O   UNL     1      -2.315  -0.185  -0.515  0.00  0.00    -0.346 OA
ATOM     20  C   UNL     1      -4.348   0.892   0.462  0.00  0.00    +0.204 C 
ATOM     21  O   UNL     1      -5.378   0.540   1.418  0.00  0.00    -0.308 OA
ATOM     22  P   UNL     1      -4.971   0.034   2.906  0.00  0.00    +0.306 P 
ATOM     23  S   UNL     1      -4.702   1.500   4.025  0.00  0.00    +0.022 S 
ATOM     24  O   UNL     1      -3.573  -0.822   2.762  0.00  0.00    -0.302 OA
BRANCH  22  25
ATOM     25  O   UNL     1      -6.132  -0.908   3.503  0.00  0.00    -0.327 OA
ATOM     26  H   UNL     1      -6.992  -0.472   3.580  0.00  0.00    +0.219 HD
ENDBRANCH  22  25
BRANCH  16  27
ATOM     27  O   UNL     1      -1.974  -2.656   1.513  0.00  0.00    -0.385 OA
ATOM     28  H   UNL     1      -1.333  -3.309   1.202  0.00  0.00    +0.210 HD
ENDBRANCH  16  27
ENDBRANCH   9  15
BRANCH  10  29
ATOM     29  C   UNL     1       5.344  -2.957  -0.067  0.00  0.00    +0.104 C 
BRANCH  29  30
ATOM     30  C   UNL     1       5.763  -4.428  -0.080  0.00  0.00    +0.019 C 
BRANCH  30  31
ATOM     31  C   UNL     1       7.290  -4.523  -0.096  0.00  0.00    +0.001 C 
BRANCH  31  32
ATOM     32  C   UNL     1       7.710  -5.994  -0.109  0.00  0.00    -0.002 C 
BRANCH  32  33
ATOM     33  C   UNL     1       9.237  -6.089  -0.125  0.00  0.00    -0.020 C 
BRANCH  33  34
ATOM     34  C   UNL     1       9.656  -7.560  -0.138  0.00  0.00    -0.086 C 
BRANCH  34  35
ATOM     35  N   UNL     1      11.122  -7.652  -0.153  0.00  0.00    +0.378 N 
ATOM     36  H   UNL     1      11.399  -8.622  -0.162  0.00  0.00    -0.090 HD
ATOM     37  H   UNL     1      11.479  -7.193  -0.978  0.00  0.00    -0.090 HD
ATOM     38  H   UNL     1      11.496  -7.202   0.669  0.00  0.00    -0.090 HD
ENDBRANCH  34  35
ENDBRANCH  33  34
ENDBRANCH  32  33
ENDBRANCH  31  32
ENDBRANCH  30  31
ENDBRANCH  29  30
ENDBRANCH  10  29
TORSDOF 10
