REMARK  Name = ZINC08845337
REMARK  11 active torsions:
REMARK  status: ('A' for Active; 'I' for Inactive)
REMARK    1  A    between atoms: C_1  and  C_2
REMARK    2  A    between atoms: C_4  and  C_10
REMARK    3  A    between atoms: C_5  and  O_9
REMARK    4  A    between atoms: C_7  and  C_8
REMARK    5  A    between atoms: N_18  and  C_31
REMARK    6  A    between atoms: C_19  and  C_21
REMARK    7  A    between atoms: C_23  and  O_29
REMARK    8  A    between atoms: C_24  and  O_28
REMARK    9  A    between atoms: O_29  and  C_30
REMARK   10  A    between atoms: C_31  and  C_32
REMARK   11  A    between atoms: C_32  and  O_33
REMARK                            x       y       z     vdW  Elec       q    Type
REMARK                         _______ _______ _______ _____ _____    ______ ____
ROOT
ATOM      1  C   UNL     1       0.537  -2.880  -2.460  0.00  0.00    +0.102 A 
ATOM      2  C   UNL     1       0.366  -4.257  -2.632  0.00  0.00    +0.035 A 
ATOM      3  C   UNL     1       0.638  -4.506  -3.964  0.00  0.00    +0.126 A 
ATOM      4  N   UNL     1       0.952  -3.298  -4.520  0.00  0.00    -0.272 N 
ATOM      5  H   UNL     1       1.189  -3.158  -5.450  0.00  0.00    +0.189 HD
ATOM      6  N   UNL     1       0.880  -2.375  -3.628  0.00  0.00    -0.173 NA
ATOM      7  C   UNL     1       0.475  -5.943  -4.213  0.00  0.00    +0.266 C 
ATOM      8  O   UNL     1       0.643  -6.485  -5.289  0.00  0.00    -0.268 OA
ATOM      9  N   UNL     1       0.115  -6.576  -3.082  0.00  0.00    -0.283 N 
ATOM     10  C   UNL     1       0.018  -5.580  -2.007  0.00  0.00    +0.141 C 
ENDROOT
BRANCH   1  14
ATOM     11  C   UNL     1      -2.053  -2.000   1.716  0.00  0.00    +0.044 C 
ATOM     12  C   UNL     1      -0.884  -1.697   0.815  0.00  0.00    -0.047 A 
ATOM     13  C   UNL     1      -0.722  -2.403  -0.361  0.00  0.00    +0.017 A 
ATOM     14  C   UNL     1       0.357  -2.124  -1.195  0.00  0.00    +0.044 A 
ATOM     15  C   UNL     1       1.272  -1.130  -0.835  0.00  0.00    +0.126 A 
ATOM     16  C   UNL     1       1.097  -0.430   0.347  0.00  0.00    +0.049 A 
ATOM     17  C   UNL     1       0.019  -0.710   1.165  0.00  0.00    -0.044 A 
ATOM     18  C   UNL     1      -0.170   0.059   2.447  0.00  0.00    +0.044 C 
BRANCH  15  19
ATOM     19  O   UNL     1       2.329  -0.852  -1.643  0.00  0.00    -0.506 OA
ATOM     20  H   UNL     1       2.175  -0.117  -2.253  0.00  0.00    +0.292 HD
ENDBRANCH  15  19
ENDBRANCH   1  14
BRANCH  10  21
ATOM     21  C   UNL     1       0.995  -5.907  -0.907  0.00  0.00    -0.018 A 
ATOM     22  C   UNL     1       2.349  -5.961  -1.181  0.00  0.00    +0.055 A 
ATOM     23  C   UNL     1       3.249  -6.261  -0.171  0.00  0.00    +0.163 A 
ATOM     24  C   UNL     1       2.787  -6.507   1.118  0.00  0.00    +0.173 A 
ATOM     25  C   UNL     1       1.429  -6.451   1.387  0.00  0.00    +0.063 A 
ATOM     26  C   UNL     1       0.536  -6.146   0.374  0.00  0.00    +0.025 A 
ATOM     27 BR   UNL     1       0.796  -6.784   3.137  0.00  0.00    -0.046 Br
BRANCH  24  28
ATOM     28  O   UNL     1       3.667  -6.803   2.113  0.00  0.00    -0.503 OA
ATOM     29  H   UNL     1       3.995  -6.028   2.591  0.00  0.00    +0.292 HD
ENDBRANCH  24  28
BRANCH  23  30
ATOM     30  O   UNL     1       4.582  -6.316  -0.440  0.00  0.00    -0.491 OA
ATOM     31  C   UNL     1       4.983  -6.053  -1.785  0.00  0.00    +0.277 C 
ENDBRANCH  23  30
ENDBRANCH  10  21
BRANCH   9  32
ATOM     32  C   UNL     1      -0.137  -8.013  -2.946  0.00  0.00    +0.137 C 
BRANCH  32  33
ATOM     33  C   UNL     1       1.190  -8.748  -2.752  0.00  0.00    +0.175 C 
BRANCH  33  34
ATOM     34  O   UNL     1       1.733  -8.420  -1.471  0.00  0.00    -0.393 OA
ATOM     35  H   UNL     1       2.577  -8.852  -1.280  0.00  0.00    +0.209 HD
ENDBRANCH  33  34
ENDBRANCH  32  33
ENDBRANCH   9  32
TORSDOF 8
