REMARK  Name = ZINC01037715
REMARK  8 active torsions:
REMARK  status: ('A' for Active; 'I' for Inactive)
REMARK    1  A    between atoms: C_1  and  C_2
REMARK    2  A    between atoms: C_3  and  N_15
REMARK    3  A    between atoms: C_4  and  C_7
REMARK    4  A    between atoms: N_18  and  C_19
REMARK    5  A    between atoms: C_23  and  S_24
REMARK    6  A    between atoms: S_24  and  C_27
REMARK    7  A    between atoms: C_27  and  C_28
REMARK    8  A    between atoms: C_27  and  C_29
REMARK                            x       y       z     vdW  Elec       q    Type
REMARK                         _______ _______ _______ _____ _____    ______ ____
ROOT
ATOM      1  N   UNL     1      -2.605   5.833   0.338  0.00  0.00    -0.265 N 
ATOM      2  C   UNL     1      -3.527   6.782   0.593  0.00  0.00    +0.308 C 
ATOM      3  O   UNL     1      -3.189   7.946   0.700  0.00  0.00    -0.252 OA
ATOM      4  N   UNL     1      -4.824   6.442   0.731  0.00  0.00    -0.267 N 
ATOM      5  H   UNL     1      -2.880   4.911   0.215  0.00  0.00    +0.157 HD
ATOM      6  H   UNL     1      -5.104   5.525   0.582  0.00  0.00    +0.156 HD
ENDROOT
BRANCH   1   9
ATOM      7  C   UNL     1      -0.188   4.183   1.454  0.00  0.00    +0.091 C 
ATOM      8  C   UNL     1      -0.169   5.497   0.717  0.00  0.00    +0.156 A 
ATOM      9  C   UNL     1      -1.245   6.180   0.249  0.00  0.00    +0.105 A 
ATOM     10  C   UNL     1      -0.644   7.370  -0.373  0.00  0.00    +0.138 A 
ATOM     11  N   UNL     1       0.649   7.233  -0.202  0.00  0.00    -0.076 NA
ATOM     12  O   UNL     1       0.917   6.219   0.396  0.00  0.00    -0.357 OA
BRANCH  10  13
ATOM     13  C   UNL     1      -1.349   8.483  -1.053  0.00  0.00    +0.042 A 
ATOM     14  C   UNL     1      -2.365   8.212  -1.969  0.00  0.00    +0.052 A 
ATOM     15  C   UNL     1      -3.019   9.253  -2.600  0.00  0.00    +0.021 A 
ATOM     16  C   UNL     1      -2.667  10.562  -2.324  0.00  0.00    +0.003 A 
ATOM     17  C   UNL     1      -1.656  10.837  -1.421  0.00  0.00    +0.021 A 
ATOM     18  C   UNL     1      -0.999   9.805  -0.780  0.00  0.00    +0.052 A 
ATOM     19 CL   UNL     1       0.264  10.152   0.359  0.00  0.00    -0.083 Cl
ATOM     20 CL   UNL     1      -2.809   6.570  -2.316  0.00  0.00    -0.083 Cl
ENDBRANCH  10  13
ENDBRANCH   1   9
BRANCH   4  21
ATOM     21  C   UNL     1      -5.774   7.418   1.091  0.00  0.00    +0.067 A 
ATOM     22  C   UNL     1      -5.434   8.733   1.124  0.00  0.00    +0.070 A 
ATOM     23  S   UNL     1      -6.967   9.498   1.626  0.00  0.00    -0.101 S 
ATOM     24  C   UNL     1      -7.957   8.019   1.759  0.00  0.00    +0.074 A 
ATOM     25  C   UNL     1      -7.072   7.054   1.412  0.00  0.00    +0.117 A 
BRANCH  25  26
ATOM     26  S   UNL     1      -7.561   5.361   1.375  0.00  0.00    +0.001 S 
ATOM     27  O   UNL     1      -6.581   4.684   2.150  0.00  0.00    -0.169 OA
ATOM     28  O   UNL     1      -8.924   5.369   1.778  0.00  0.00    -0.169 OA
BRANCH  26  29
ATOM     29  C   UNL     1      -7.427   4.874  -0.367  0.00  0.00    +0.130 C 
ATOM     30  C   UNL     1      -7.949   3.447  -0.539  0.00  0.00    +0.032 C 
ATOM     31  C   UNL     1      -8.256   5.829  -1.229  0.00  0.00    +0.032 C 
ENDBRANCH  26  29
ENDBRANCH  25  26
ENDBRANCH   4  21
TORSDOF 5
