REMARK  Name = ZINC62934849
REMARK  8 active torsions:
REMARK  status: ('A' for Active; 'I' for Inactive)
REMARK    1  A    between atoms: C_1  and  C_2
REMARK    2  A    between atoms: C_2  and  C_3
REMARK    3  A    between atoms: C_3  and  C_4
REMARK    4  A    between atoms: C_4  and  C_18
REMARK    5  A    between atoms: N_11  and  C_12
REMARK    6  A    between atoms: C_12  and  C_13
REMARK    7  A    between atoms: C_12  and  C_14
REMARK    8  A    between atoms: C_12  and  C_15
REMARK                            x       y       z     vdW  Elec       q    Type
REMARK                         _______ _______ _______ _____ _____    ______ ____
ROOT
ATOM      1  C   UNL     1       0.763  -2.041   1.233  0.00  0.00    +0.089 C 
ATOM      2  C   UNL     1       1.570  -2.574   2.440  0.00  0.00    +0.039 C 
ATOM      3  C   UNL     1       2.337  -3.776   1.836  0.00  0.00    +0.110 C 
ATOM      4  N   UNL     1       2.686  -3.308   0.475  0.00  0.00    -0.285 N 
ATOM      5  C   UNL     1       1.512  -2.559  -0.009  0.00  0.00    +0.127 C 
ATOM      6  C   UNL     1       3.841  -3.522  -0.186  0.00  0.00    +0.303 C 
ATOM      7  O   UNL     1       3.992  -3.076  -1.307  0.00  0.00    -0.253 OA
ATOM      8  N   UNL     1       4.829  -4.232   0.395  0.00  0.00    -0.286 N 
ATOM      9  H   UNL     1       4.708  -4.589   1.289  0.00  0.00    +0.151 HD
ENDROOT
BRANCH   8  10
ATOM     10  C   UNL     1       6.084  -4.465  -0.324  0.00  0.00    +0.106 C 
ATOM     11  C   UNL     1       5.796  -5.225  -1.620  0.00  0.00    +0.041 C 
ATOM     12  C   UNL     1       6.739  -3.123  -0.654  0.00  0.00    +0.041 C 
BRANCH  10  13
ATOM     13  C   UNL     1       7.013  -5.278   0.540  0.00  0.00    +0.233 C 
ATOM     14  O   UNL     1       7.754  -6.093   0.033  0.00  0.00    -0.274 OA
ATOM     15  N   UNL     1       7.021  -5.100   1.876  0.00  0.00    -0.328 N 
ATOM     16  H   UNL     1       6.429  -4.448   2.281  0.00  0.00    +0.145 HD
ATOM     17  H   UNL     1       7.620  -5.623   2.431  0.00  0.00    +0.145 HD
ENDBRANCH  10  13
ENDBRANCH   8  10
BRANCH   1  18
ATOM     18  C   UNL     1      -0.643  -2.583   1.260  0.00  0.00    +0.364 C 
ATOM     19  O   UNL     1      -1.425  -2.294   0.371  0.00  0.00    -0.246 OA
ATOM     20  O   UNL     1      -0.999  -3.310   2.172  0.00  0.00    -0.246 OA
ENDBRANCH   1  18
BRANCH   1  21
ATOM     21  C   UNL     1       0.742  -0.511   1.242  0.00  0.00    +0.019 C 
BRANCH  21  23
ATOM     22  C   UNL     1      -0.019   1.526   0.010  0.00  0.00    +0.004 C 
ATOM     23  C   UNL     1       0.002  -0.004   0.002  0.00  0.00    -0.002 C 
ENDBRANCH  21  23
ENDBRANCH   1  21
TORSDOF 5
