REMARK  Name = ZINC64176323
REMARK  7 active torsions:
REMARK  status: ('A' for Active; 'I' for Inactive)
REMARK    1  A    between atoms: C_1  and  C_2
REMARK    2  A    between atoms: N_10  and  N_11
REMARK    3  A    between atoms: C_12  and  C_14
REMARK    4  A    between atoms: C_18  and  S_20
REMARK    5  A    between atoms: S_20  and  N_23
REMARK    6  A    between atoms: N_23  and  C_24
REMARK    7  A    between atoms: C_24  and  C_25
REMARK                            x       y       z     vdW  Elec       q    Type
REMARK                         _______ _______ _______ _____ _____    ______ ____
ROOT
ATOM      1  C   UNL     1       5.657  -4.010  -2.369  0.00  0.00    +0.040 A 
ATOM      2  C   UNL     1       5.126  -3.628  -3.601  0.00  0.00    +0.013 A 
ATOM      3  C   UNL     1       5.725  -4.053  -4.769  0.00  0.00    +0.003 A 
ATOM      4  C   UNL     1       6.850  -4.856  -4.720  0.00  0.00    +0.028 A 
ATOM      5  C   UNL     1       7.382  -5.239  -3.501  0.00  0.00    +0.106 A 
ATOM      6  C   UNL     1       6.796  -4.816  -2.326  0.00  0.00    +0.041 A 
ENDROOT
BRANCH   1   8
ATOM      7  N   UNL     1       3.921  -2.779  -1.157  0.00  0.00    -0.230 N 
ATOM      8  C   UNL     1       5.021  -3.558  -1.113  0.00  0.00    +0.260 C 
ATOM      9  O   UNL     1       5.489  -3.888  -0.041  0.00  0.00    -0.269 OA
ATOM     10  H   UNL     1       3.548  -2.516  -2.013  0.00  0.00    +0.173 HD
BRANCH   7  19
ATOM     11  C   UNL     1      -0.019   1.526   0.010  0.00  0.00    +0.044 C 
ATOM     12  C   UNL     1       0.002  -0.004   0.002  0.00  0.00    +0.210 C 
ATOM     13  C   UNL     1       0.641  -0.458  -1.297  0.00  0.00    +0.265 C 
ATOM     14  O   UNL     1       0.187  -0.138  -2.377  0.00  0.00    -0.271 OA
ATOM     15  N   UNL     1       1.734  -1.231  -1.194  0.00  0.00    -0.145 NA
ATOM     16  C   UNL     1       2.206  -1.564  -0.013  0.00  0.00    +0.218 C 
ATOM     17  N   UNL     1       1.654  -1.172   1.169  0.00  0.00    -0.253 N 
ATOM     18  N   UNL     1       0.647  -0.458   1.246  0.00  0.00    -0.197 NA
ATOM     19  N   UNL     1       3.318  -2.351   0.032  0.00  0.00    -0.235 N 
ATOM     20  H   UNL     1       3.691  -2.614   0.888  0.00  0.00    +0.173 HD
ATOM     21  H   UNL     1       2.072  -1.468   1.992  0.00  0.00    +0.191 HD
ENDBRANCH   7  19
ENDBRANCH   1   8
BRANCH   5  22
ATOM     22  S   UNL     1       8.815  -6.263  -3.450  0.00  0.00    +0.059 S 
ATOM     23  O   UNL     1       8.794  -6.928  -2.195  0.00  0.00    -0.153 OA
ATOM     24  O   UNL     1       8.855  -6.967  -4.684  0.00  0.00    -0.153 OA
BRANCH  22  25
ATOM     25  N   UNL     1      10.133  -5.261  -3.433  0.00  0.00    -0.185 NA
ATOM     26  H   UNL     1      10.752  -5.262  -4.180  0.00  0.00    +0.148 HD
BRANCH  25  27
ATOM     27  C   UNL     1      10.363  -4.373  -2.291  0.00  0.00    +0.148 C 
BRANCH  27  28
ATOM     28  C   UNL     1      11.777  -3.852  -2.337  0.00  0.00    +0.005 A 
ATOM     29  C   UNL     1      12.255  -2.733  -2.932  0.00  0.00    +0.012 A 
ATOM     30  C   UNL     1      13.606  -2.451  -2.843  0.00  0.00    +0.008 A 
ATOM     31  C   UNL     1      14.411  -3.302  -2.162  0.00  0.00    +0.045 A 
ATOM     32  S   UNL     1      13.255  -4.546  -1.614  0.00  0.00    -0.100 S 
ENDBRANCH  27  28
ENDBRANCH  25  27
ENDBRANCH  22  25
ENDBRANCH   5  22
TORSDOF 6
