REMARK  Name = ZINC18022026
REMARK  6 active torsions:
REMARK  status: ('A' for Active; 'I' for Inactive)
REMARK    1  A    between atoms: C_1  and  C_2
REMARK    2  A    between atoms: C_3  and  N_20
REMARK    3  A    between atoms: C_4  and  O_19
REMARK    4  A    between atoms: C_9  and  C_12
REMARK    5  A    between atoms: N_21  and  C_22
REMARK    6  A    between atoms: C_25  and  C_28
REMARK                            x       y       z     vdW  Elec       q    Type
REMARK                         _______ _______ _______ _____ _____    ______ ____
ROOT
ATOM      1  C   UNL     1      -0.018   1.503   0.010  0.00  0.00    +0.070 C 
ATOM      2  C   UNL     1       0.002  -0.004   0.002  0.00  0.00    +0.091 A 
ATOM      3  C   UNL     1       0.008  -0.828  -1.150  0.00  0.00    +0.170 A 
ATOM      4  C   UNL     1       0.028  -2.147  -0.706  0.00  0.00    +0.246 A 
ATOM      5  N   UNL     1       0.034  -2.112   0.646  0.00  0.00    -0.174 N 
ATOM      6  N   UNL     1       0.023  -0.774   1.054  0.00  0.00    -0.164 NA
ATOM      7  C   UNL     1       0.052  -3.220   1.489  0.00  0.00    +0.198 A 
ATOM      8  N   UNL     1       0.053  -3.266   2.808  0.00  0.00    -0.221 NA
ATOM      9  C   UNL     1       0.072  -4.420   3.456  0.00  0.00    +0.080 A 
ATOM     10  C   UNL     1       0.091  -5.588   2.745  0.00  0.00    +0.077 A 
ATOM     11  S   UNL     1       0.073  -4.958   1.072  0.00  0.00    -0.056 S 
ENDROOT
BRANCH   9  12
ATOM     12  C   UNL     1       0.074  -4.445   4.939  0.00  0.00    +0.001 A 
ATOM     13  C   UNL     1       0.100  -5.663   5.618  0.00  0.00    +0.011 A 
ATOM     14  C   UNL     1       0.102  -5.681   6.997  0.00  0.00    +0.016 A 
ATOM     15  C   UNL     1       0.077  -4.493   7.708  0.00  0.00    +0.018 A 
ATOM     16  C   UNL     1       0.051  -3.281   7.039  0.00  0.00    +0.016 A 
ATOM     17  C   UNL     1       0.054  -3.252   5.659  0.00  0.00    +0.011 A 
ATOM     18 BR   UNL     1       0.080  -4.525   9.598  0.00  0.00    -0.050 Br
ENDBRANCH   9  12
BRANCH   4  19
ATOM     19  O   UNL     1       0.039  -3.257  -1.482  0.00  0.00    -0.491 OA
ATOM     20  H   UNL     1       0.925  -3.567  -1.711  0.00  0.00    +0.294 HD
ENDBRANCH   4  19
BRANCH   3  21
ATOM     21  N   UNL     1      -0.004  -0.410  -2.442  0.00  0.00    -0.142 NA
ATOM     22  N   UNL     1       0.003  -1.274  -3.400  0.00  0.00    -0.149 NA
BRANCH  22  23
ATOM     23  C   UNL     1      -0.009  -0.854  -4.700  0.00  0.00    +0.086 A 
ATOM     24  C   UNL     1      -0.024   0.514  -4.993  0.00  0.00    +0.030 A 
ATOM     25  C   UNL     1      -0.036   0.935  -6.297  0.00  0.00    +0.015 A 
ATOM     26  C   UNL     1      -0.033  -0.002  -7.335  0.00  0.00    +0.037 A 
ATOM     27  C   UNL     1      -0.018  -1.368  -7.042  0.00  0.00    +0.015 A 
ATOM     28  C   UNL     1      -0.001  -1.790  -5.738  0.00  0.00    +0.030 A 
BRANCH  26  29
ATOM     29  C   UNL     1      -0.046   0.453  -8.740  0.00  0.00    +0.242 C 
ATOM     30  O   UNL     1      -0.059   1.642  -8.994  0.00  0.00    -0.270 OA
ATOM     31  N   UNL     1      -0.043  -0.450  -9.740  0.00  0.00    -0.325 N 
ATOM     32  H   UNL     1      -0.033  -1.399  -9.537  0.00  0.00    +0.145 HD
ATOM     33  H   UNL     1      -0.052  -0.152 -10.663  0.00  0.00    +0.145 HD
ENDBRANCH  26  29
ENDBRANCH  22  23
ENDBRANCH   3  21
TORSDOF 5
