REMARK  Name = ZINC20160647
REMARK  8 active torsions:
REMARK  status: ('A' for Active; 'I' for Inactive)
REMARK    1  A    between atoms: C_6  and  C_30
REMARK    2  A    between atoms: C_7  and  N_9
REMARK    3  A    between atoms: C_10  and  C_12
REMARK    4  A    between atoms: C_12  and  C_13
REMARK    5  A    between atoms: C_13  and  C_14
REMARK    6  A    between atoms: C_14  and  C_15
REMARK    7  A    between atoms: N_17  and  C_18
REMARK    8  A    between atoms: C_19  and  C_27
REMARK                            x       y       z     vdW  Elec       q    Type
REMARK                         _______ _______ _______ _____ _____    ______ ____
ROOT
ATOM      1  C   UNL     1      -2.479   0.934   0.019  0.00  0.00    +0.018 C 
ENDROOT
BRANCH   1   2
ATOM      2  C   UNL     1      -1.330   1.944   0.019  0.00  0.00    +0.096 C 
BRANCH   2   4
ATOM      3  N   UNL     1       1.143   1.898   0.001  0.00  0.00    -0.279 N 
ATOM      4  C   UNL     1      -0.014   1.209   0.009  0.00  0.00    +0.218 C 
ATOM      5  O   UNL     1       0.002  -0.004   0.002  0.00  0.00    -0.275 OA
ATOM      6  H   UNL     1       1.129   2.998   0.007  0.00  0.00    +0.155 HD
BRANCH   3  13
ATOM      7  C   UNL     1       7.070   0.049   0.393  0.00  0.00    +0.005 C 
ATOM      8  C   UNL     1       6.726  -1.184  -0.448  0.00  0.00    +0.005 C 
ATOM      9  C   UNL     1       5.323  -1.672  -0.059  0.00  0.00    +0.043 C 
ATOM     10  C   UNL     1       4.401  -0.492  -0.043  0.00  0.00    -0.004 A 
ATOM     11  C   UNL     1       4.748   0.813  -0.038  0.00  0.00    -0.023 A 
ATOM     12  C   UNL     1       3.637   1.749  -0.029  0.00  0.00    +0.068 A 
ATOM     13  C   UNL     1       2.354   1.221  -0.014  0.00  0.00    +0.084 A 
ATOM     14  S   UNL     1       2.630  -0.489  -0.026  0.00  0.00    -0.077 S 
ATOM     15  C   UNL     1       6.212   1.236  -0.049  0.00  0.00    +0.037 C 
BRANCH  12  16
ATOM     16  C   UNL     1       3.863   3.198  -0.030  0.00  0.00    +0.244 C 
ATOM     17  O   UNL     1       3.970   3.799   1.023  0.00  0.00    -0.270 OA
ATOM     18  N   UNL     1       3.952   3.865  -1.198  0.00  0.00    -0.325 N 
ATOM     19  H   UNL     1       4.122   4.952  -1.200  0.00  0.00    +0.145 HD
ATOM     20  H   UNL     1       3.856   3.322  -2.150  0.00  0.00    +0.145 HD
ENDBRANCH  12  16
ENDBRANCH   3  13
ENDBRANCH   2   4
ENDBRANCH   1   2
BRANCH   1  21
ATOM     21  C   UNL     1      -3.814   1.681   0.029  0.00  0.00    +0.096 C 
BRANCH  21  22
ATOM     22  C   UNL     1      -4.946   0.686   0.029  0.00  0.00    +0.218 C 
ATOM     23  O   UNL     1      -4.708  -0.503   0.022  0.00  0.00    -0.275 OA
ATOM     24  N   UNL     1      -6.223   1.118   0.038  0.00  0.00    -0.279 N 
ATOM     25  H   UNL     1      -6.439   2.197   0.044  0.00  0.00    +0.155 HD
BRANCH  24  26
ATOM     26  C   UNL     1      -7.264   0.203   0.038  0.00  0.00    +0.084 A 
ATOM     27  C   UNL     1      -8.630   0.451   0.051  0.00  0.00    +0.068 A 
ATOM     28  C   UNL     1      -9.521  -0.697   0.043  0.00  0.00    -0.023 A 
ATOM     29  C   UNL     1      -8.908  -1.901   0.034  0.00  0.00    -0.004 A 
ATOM     30  S   UNL     1      -7.177  -1.527   0.028  0.00  0.00    -0.077 S 
ATOM     31  C   UNL     1      -9.562  -3.248   0.031  0.00  0.00    +0.043 C 
ATOM     32  C   UNL     1     -11.038  -3.069   0.417  0.00  0.00    +0.005 C 
ATOM     33  C   UNL     1     -11.630  -1.925  -0.411  0.00  0.00    +0.005 C 
ATOM     34  C   UNL     1     -11.040  -0.591   0.050  0.00  0.00    +0.037 C 
BRANCH  27  35
ATOM     35  C   UNL     1      -9.154   1.820   0.068  0.00  0.00    +0.244 C 
ATOM     36  O   UNL     1      -9.381   2.398  -0.979  0.00  0.00    -0.270 OA
ATOM     37  N   UNL     1      -9.385   2.438   1.243  0.00  0.00    -0.325 N 
ATOM     38  H   UNL     1      -9.778   3.466   1.256  0.00  0.00    +0.145 HD
ATOM     39  H   UNL     1      -9.180   1.916   2.189  0.00  0.00    +0.145 HD
ENDBRANCH  27  35
ENDBRANCH  24  26
ENDBRANCH  21  22
ENDBRANCH   1  21
TORSDOF 8
