REMARK  Name = ZINC12548730
REMARK  10 active torsions:
REMARK  status: ('A' for Active; 'I' for Inactive)
REMARK    1  A    between atoms: C_3  and  C_20
REMARK    2  A    between atoms: C_5  and  C_7
REMARK    3  A    between atoms: C_7  and  N_8
REMARK    4  A    between atoms: N_11  and  C_12
REMARK    5  A    between atoms: C_12  and  C_13
REMARK    6  A    between atoms: C_13  and  C_14
REMARK    7  A    between atoms: C_20  and  N_21
REMARK    8  A    between atoms: N_24  and  C_25
REMARK    9  A    between atoms: C_25  and  C_26
REMARK   10  A    between atoms: C_26  and  C_27
REMARK                            x       y       z     vdW  Elec       q    Type
REMARK                         _______ _______ _______ _____ _____    ______ ____
ROOT
ATOM      1  C   UNL     1      -0.013   1.076   0.008  0.00  0.00    +0.001 A 
ATOM      2  C   UNL     1      -1.219   1.751   0.017  0.00  0.00    +0.005 A 
ATOM      3  C   UNL     1      -1.238   3.133   0.029  0.00  0.00    -0.030 A 
ATOM      4  C   UNL     1      -0.050   3.840   0.023  0.00  0.00    +0.010 A 
ATOM      5  C   UNL     1       1.156   3.165   0.008  0.00  0.00    -0.030 A 
ATOM      6  C   UNL     1       1.175   1.783   0.000  0.00  0.00    +0.005 A 
ENDROOT
BRANCH   5   7
ATOM      7  C   UNL     1       2.451   3.937   0.001  0.00  0.00    +0.141 C 
BRANCH   7   8
ATOM      8  N   UNL     1       2.858   4.194  -1.383  0.00  0.00    -0.295 N 
ATOM      9  C   UNL     1       3.995   4.873  -1.635  0.00  0.00    +0.300 C 
ATOM     10  O   UNL     1       4.682   5.273  -0.715  0.00  0.00    -0.253 OA
ATOM     11  N   UNL     1       4.369   5.110  -2.908  0.00  0.00    -0.299 N 
ATOM     12  H   UNL     1       2.310   3.875  -2.117  0.00  0.00    +0.151 HD
ATOM     13  H   UNL     1       3.821   4.792  -3.642  0.00  0.00    +0.150 HD
BRANCH  11  14
ATOM     14  C   UNL     1       5.604   5.849  -3.183  0.00  0.00    +0.110 C 
BRANCH  14  15
ATOM     15  C   UNL     1       5.795   5.979  -4.695  0.00  0.00    +0.049 C 
BRANCH  15  16
ATOM     16  C   UNL     1       7.066   6.738  -4.978  0.00  0.00    -0.072 C 
ATOM     17  C   UNL     1       8.144   6.057  -5.200  0.00  0.00    -0.028 C 
ATOM     18  C   UNL     1       9.483   6.671  -5.485  0.00  0.00    +0.027 C 
ATOM     19  C   UNL     1       9.315   8.137  -5.891  0.00  0.00    +0.004 C 
ATOM     20  C   UNL     1       8.410   8.825  -4.862  0.00  0.00    +0.005 C 
ATOM     21  C   UNL     1       7.001   8.238  -4.990  0.00  0.00    +0.030 C 
ENDBRANCH  15  16
ENDBRANCH  14  15
ENDBRANCH  11  14
ENDBRANCH   7   8
ENDBRANCH   5   7
BRANCH   3  22
ATOM     22  C   UNL     1      -2.553   3.869   0.046  0.00  0.00    +0.141 C 
BRANCH  22  23
ATOM     23  N   UNL     1      -2.992   4.115  -1.330  0.00  0.00    -0.295 N 
ATOM     24  C   UNL     1      -4.150   4.764  -1.562  0.00  0.00    +0.300 C 
ATOM     25  O   UNL     1      -4.831   5.144  -0.629  0.00  0.00    -0.253 OA
ATOM     26  N   UNL     1      -4.554   4.991  -2.827  0.00  0.00    -0.299 N 
ATOM     27  H   UNL     1      -2.448   3.812  -2.074  0.00  0.00    +0.151 HD
ATOM     28  H   UNL     1      -4.011   4.687  -3.571  0.00  0.00    +0.150 HD
BRANCH  26  29
ATOM     29  C   UNL     1      -5.814   5.695  -3.079  0.00  0.00    +0.110 C 
BRANCH  29  30
ATOM     30  C   UNL     1      -6.035   5.821  -4.588  0.00  0.00    +0.049 C 
BRANCH  30  31
ATOM     31  C   UNL     1      -7.330   6.545  -4.847  0.00  0.00    -0.072 C 
ATOM     32  C   UNL     1      -7.281   7.823  -5.048  0.00  0.00    -0.028 C 
ATOM     33  C   UNL     1      -8.485   8.680  -5.309  0.00  0.00    +0.027 C 
ATOM     34  C   UNL     1      -9.674   7.809  -5.720  0.00  0.00    +0.004 C 
ATOM     35  C   UNL     1      -9.809   6.664  -4.707  0.00  0.00    +0.005 C 
ATOM     36  C   UNL     1      -8.597   5.740  -4.861  0.00  0.00    +0.030 C 
ENDBRANCH  30  31
ENDBRANCH  29  30
ENDBRANCH  26  29
ENDBRANCH  22  23
ENDBRANCH   3  22
TORSDOF 10
