REMARK  Name = ZINC17218006
REMARK  7 active torsions:
REMARK  status: ('A' for Active; 'I' for Inactive)
REMARK    1  A    between atoms: C_1  and  C_2
REMARK    2  A    between atoms: C_3  and  C_15
REMARK    3  A    between atoms: N_6  and  C_9
REMARK    4  A    between atoms: N_7  and  C_8
REMARK    5  A    between atoms: N_16  and  N_17
REMARK    6  A    between atoms: C_18  and  C_20
REMARK    7  A    between atoms: C_25  and  O_26
REMARK                            x       y       z     vdW  Elec       q    Type
REMARK                         _______ _______ _______ _____ _____    ______ ____
ROOT
ATOM      1  C   UNL     1       2.414   0.986   0.274  0.00  0.00    +0.145 C 
ATOM      2  N   UNL     1       1.359   1.654  -0.083  0.00  0.00    -0.187 NA
ENDROOT
BRANCH   1   5
ATOM      3  C   UNL     1       4.928  -0.827  -0.117  0.00  0.00    +0.066 C 
ATOM      4  C   UNL     1       3.502  -1.292   0.033  0.00  0.00    +0.047 A 
ATOM      5  C   UNL     1       2.413  -0.485   0.203  0.00  0.00    +0.081 A 
ATOM      6  C   UNL     1       1.241  -1.367   0.308  0.00  0.00    +0.281 A 
ATOM      7  O   UNL     1       0.085  -1.022   0.469  0.00  0.00    -0.265 OA
ATOM      8  N   UNL     1       1.696  -2.631   0.187  0.00  0.00    -0.217 N 
ATOM      9  N   UNL     1       3.084  -2.586   0.022  0.00  0.00    -0.283 N 
ATOM     10  C   UNL     1       3.954  -3.754  -0.139  0.00  0.00    +0.171 C 
BRANCH   8  11
ATOM     11  C   UNL     1       0.913  -3.789   0.226  0.00  0.00    +0.067 A 
ATOM     12  C   UNL     1      -0.021  -3.964   1.239  0.00  0.00    +0.028 A 
ATOM     13  C   UNL     1      -0.796  -5.107   1.272  0.00  0.00    +0.002 A 
ATOM     14  C   UNL     1      -0.635  -6.082   0.304  0.00  0.00    +0.000 A 
ATOM     15  C   UNL     1       0.299  -5.913  -0.702  0.00  0.00    +0.002 A 
ATOM     16  C   UNL     1       1.073  -4.770  -0.744  0.00  0.00    +0.028 A 
ENDBRANCH   8  11
ENDBRANCH   1   5
BRANCH   2  17
ATOM     17  N   UNL     1       0.321   1.010  -0.770  0.00  0.00    -0.203 N 
ATOM     18  C   UNL     1      -0.828   1.667  -1.025  0.00  0.00    +0.267 C 
ATOM     19  O   UNL     1      -0.935   2.841  -0.728  0.00  0.00    -0.268 OA
ATOM     20  H   UNL     1       0.431   0.092  -1.065  0.00  0.00    +0.178 HD
BRANCH  18  21
ATOM     21  C   UNL     1      -1.955   0.961  -1.663  0.00  0.00    +0.082 A 
ATOM     22  C   UNL     1      -1.871  -0.411  -1.917  0.00  0.00    +0.032 A 
ATOM     23  C   UNL     1      -2.928  -1.065  -2.514  0.00  0.00    +0.020 A 
ATOM     24  C   UNL     1      -4.075  -0.368  -2.863  0.00  0.00    +0.034 A 
ATOM     25  C   UNL     1      -4.169   0.988  -2.617  0.00  0.00    +0.061 A 
ATOM     26  C   UNL     1      -3.117   1.661  -2.012  0.00  0.00    +0.143 A 
ATOM     27 BR   UNL     1      -5.738   1.928  -3.099  0.00  0.00    -0.046 Br
ATOM     28 BR   UNL     1      -2.814  -2.921  -2.857  0.00  0.00    -0.050 Br
BRANCH  26  29
ATOM     29  O   UNL     1      -3.211   2.992  -1.765  0.00  0.00    -0.505 OA
ATOM     30  H   UNL     1      -2.896   3.550  -2.489  0.00  0.00    +0.292 HD
ENDBRANCH  26  29
ENDBRANCH  18  21
ENDBRANCH   2  17
TORSDOF 5
