REMARK  Name = ZINC63847052
REMARK  7 active torsions:
REMARK  status: ('A' for Active; 'I' for Inactive)
REMARK    1  A    between atoms: C_1  and  C_2
REMARK    2  A    between atoms: C_4  and  C_9
REMARK    3  A    between atoms: N_11  and  C_12
REMARK    4  A    between atoms: C_15  and  C_18
REMARK    5  A    between atoms: N_20  and  C_21
REMARK    6  A    between atoms: C_21  and  C_22
REMARK    7  A    between atoms: C_22  and  C_23
REMARK                            x       y       z     vdW  Elec       q    Type
REMARK                         _______ _______ _______ _____ _____    ______ ____
ROOT
ATOM      1  C   UNL     1      -4.356   1.251   1.626  0.00  0.00    +0.033 A 
ATOM      2  C   UNL     1      -3.802   2.511   1.832  0.00  0.00    +0.024 A 
ATOM      3  C   UNL     1      -4.579   3.533   2.329  0.00  0.00    +0.015 A 
ATOM      4  C   UNL     1      -5.925   3.304   2.626  0.00  0.00    +0.037 A 
ATOM      5  C   UNL     1      -6.478   2.038   2.418  0.00  0.00    +0.015 A 
ATOM      6  C   UNL     1      -5.697   1.022   1.916  0.00  0.00    +0.024 A 
ENDROOT
BRANCH   1   9
ATOM      7  C   UNL     1      -2.259   0.151   1.445  0.00  0.00    +0.228 C 
ATOM      8  O   UNL     1      -1.790   0.933   2.244  0.00  0.00    -0.275 OA
ATOM      9  N   UNL     1      -3.566   0.218   1.123  0.00  0.00    -0.285 N 
ATOM     10  H   UNL     1      -3.957  -0.452   0.541  0.00  0.00    +0.155 HD
BRANCH   7  13
ATOM     11  C   UNL     1      -1.425   0.854  -1.026  0.00  0.00    +0.053 C 
ATOM     12  C   UNL     1      -0.657  -0.331  -0.437  0.00  0.00    +0.185 C 
ATOM     13  C   UNL     1      -1.380  -0.896   0.811  0.00  0.00    +0.141 C 
ATOM     14  C   UNL     1      -0.208  -1.243   1.713  0.00  0.00    +0.027 C 
ATOM     15  C   UNL     1       0.855  -0.637   1.228  0.00  0.00    +0.184 C 
ATOM     16  O   UNL     1       0.602   0.095   0.119  0.00  0.00    -0.496 OA
ENDBRANCH   7  13
ENDBRANCH   1   9
BRANCH   4  17
ATOM     17  C   UNL     1      -6.761   4.398   3.159  0.00  0.00    +0.244 C 
ATOM     18  O   UNL     1      -6.279   5.499   3.340  0.00  0.00    -0.270 OA
ATOM     19  N   UNL     1      -8.059   4.176   3.446  0.00  0.00    -0.311 N 
ATOM     20  H   UNL     1      -8.444   3.297   3.301  0.00  0.00    +0.149 HD
BRANCH  19  21
ATOM     21  C   UNL     1      -8.889   5.261   3.975  0.00  0.00    +0.110 C 
BRANCH  21  22
ATOM     22  C   UNL     1     -10.310   4.747   4.212  0.00  0.00    +0.073 C 
BRANCH  22  23
ATOM     23  C   UNL     1     -11.164   5.864   4.756  0.00  0.00    +0.035 A 
ATOM     24  H   UNL     1     -13.014   8.375   4.691  0.00  0.00    +0.166 HD
ATOM     25  C   UNL     1     -11.809   6.794   4.027  0.00  0.00    +0.105 A 
ATOM     26  N   UNL     1     -12.461   7.609   4.913  0.00  0.00    -0.352 N 
ATOM     27  C   UNL     1     -12.191   7.148   6.153  0.00  0.00    +0.171 A 
ATOM     28  N   UNL     1     -11.418   6.101   6.052  0.00  0.00    -0.350 N 
ATOM     29  H   UNL     1     -11.080   5.579   6.795  0.00  0.00    +0.166 HD
ENDBRANCH  22  23
ENDBRANCH  21  22
ENDBRANCH  19  21
ENDBRANCH   4  17
TORSDOF 6
