REMARK  Name = ZINC39545397
REMARK  7 active torsions:
REMARK  status: ('A' for Active; 'I' for Inactive)
REMARK    1  A    between atoms: C_4  and  C_7
REMARK    2  A    between atoms: C_7  and  C_8
REMARK    3  A    between atoms: C_11  and  C_23
REMARK    4  A    between atoms: N_25  and  C_26
REMARK    5  A    between atoms: N_25  and  C_33
REMARK    6  A    between atoms: C_31  and  O_32
REMARK    7  A    between atoms: C_38  and  O_39
REMARK                            x       y       z     vdW  Elec       q    Type
REMARK                         _______ _______ _______ _____ _____    ______ ____
ROOT
ATOM      1  C   UNL     1       4.003  -0.886   1.596  0.00  0.00    +0.057 C 
ATOM      2  C   UNL     1       5.334  -1.551   1.169  0.00  0.00    +0.045 C 
ATOM      3  C   UNL     1       5.617  -2.453   2.392  0.00  0.00    +0.171 C 
ATOM      4  N   UNL     1       4.305  -2.703   3.006  0.00  0.00    -0.346 N 
ATOM      5  C   UNL     1       3.412  -1.856   2.591  0.00  0.00    +0.079 C 
ATOM      6  N   UNL     1       2.103  -1.862   3.022  0.00  0.00    -0.304 N 
ATOM      7  C   UNL     1       1.796  -2.609   4.167  0.00  0.00    +0.037 A 
ATOM      8  C   UNL     1       0.579  -2.417   4.808  0.00  0.00    +0.023 A 
ATOM      9  C   UNL     1       0.273  -3.148   5.939  0.00  0.00    +0.002 A 
ATOM     10  C   UNL     1       1.179  -4.069   6.431  0.00  0.00    +0.000 A 
ATOM     11  C   UNL     1       2.390  -4.262   5.794  0.00  0.00    +0.007 A 
ATOM     12  C   UNL     1       2.703  -3.536   4.658  0.00  0.00    -0.007 A 
ATOM     13  C   UNL     1       4.028  -3.778   3.968  0.00  0.00    +0.155 C 
ATOM     14  H   UNL     1       1.417  -1.365   2.548  0.00  0.00    +0.153 HD
ENDROOT
BRANCH   3  15
ATOM     15  C   UNL     1       6.243  -3.750   1.950  0.00  0.00    +0.247 C 
ATOM     16  O   UNL     1       5.546  -4.721   1.742  0.00  0.00    -0.273 OA
ATOM     17  N   UNL     1       7.578  -3.832   1.784  0.00  0.00    -0.232 N 
BRANCH  17  18
ATOM     18  C   UNL     1       8.171  -5.062   1.466  0.00  0.00    +0.083 A 
ATOM     19  C   UNL     1       8.401  -5.401   0.141  0.00  0.00    +0.027 A 
ATOM     20  C   UNL     1       8.986  -6.614  -0.170  0.00  0.00    +0.002 A 
ATOM     21  C   UNL     1       9.344  -7.492   0.837  0.00  0.00    +0.004 A 
ATOM     22  C   UNL     1       9.117  -7.160   2.160  0.00  0.00    +0.047 A 
ATOM     23  C   UNL     1       8.537  -5.944   2.481  0.00  0.00    +0.138 A 
BRANCH  23  24
ATOM     24  O   UNL     1       8.318  -5.615   3.781  0.00  0.00    -0.505 OA
ATOM     25  H   UNL     1       7.491  -5.961   4.141  0.00  0.00    +0.292 HD
ENDBRANCH  23  24
ENDBRANCH  17  18
BRANCH  17  26
ATOM     26  C   UNL     1       8.374  -2.687   1.931  0.00  0.00    +0.083 A 
ATOM     27  C   UNL     1       8.969  -2.405   3.152  0.00  0.00    +0.027 A 
ATOM     28  C   UNL     1       9.753  -1.276   3.293  0.00  0.00    +0.002 A 
ATOM     29  C   UNL     1       9.947  -0.425   2.220  0.00  0.00    +0.004 A 
ATOM     30  C   UNL     1       9.358  -0.700   1.000  0.00  0.00    +0.047 A 
ATOM     31  C   UNL     1       8.575  -1.833   0.848  0.00  0.00    +0.138 A 
BRANCH  31  32
ATOM     32  O   UNL     1       7.998  -2.107  -0.352  0.00  0.00    -0.505 OA
ATOM     33  H   UNL     1       7.131  -1.698  -0.475  0.00  0.00    +0.292 HD
ENDBRANCH  31  32
ENDBRANCH  17  26
ENDBRANCH   3  15
BRANCH   1  34
ATOM     34  C   UNL     1       3.075  -0.721   0.391  0.00  0.00    +0.046 C 
BRANCH  34  38
ATOM     35  C   UNL     1       4.671   2.239  -2.243  0.00  0.00    +0.000 A 
ATOM     36  C   UNL     1       5.048   0.916  -2.380  0.00  0.00    +0.000 A 
ATOM     37  C   UNL     1       4.532  -0.041  -1.528  0.00  0.00    +0.003 A 
ATOM     38  C   UNL     1       3.639   0.324  -0.538  0.00  0.00    -0.047 A 
ATOM     39  C   UNL     1       3.263   1.647  -0.400  0.00  0.00    +0.003 A 
ATOM     40  C   UNL     1       3.778   2.604  -1.254  0.00  0.00    +0.000 A 
ENDBRANCH  34  38
ENDBRANCH   1  34
TORSDOF 7
