REMARK  Name = ZINC28868358
REMARK  11 active torsions:
REMARK  status: ('A' for Active; 'I' for Inactive)
REMARK    1  A    between atoms: C_1  and  C_2
REMARK    2  A    between atoms: C_2  and  C_3
REMARK    3  A    between atoms: C_3  and  C_5
REMARK    4  A    between atoms: C_3  and  N_6
REMARK    5  A    between atoms: N_6  and  C_7
REMARK    6  A    between atoms: C_7  and  C_8
REMARK    7  A    between atoms: C_11  and  N_14
REMARK    8  A    between atoms: C_17  and  C_21
REMARK    9  A    between atoms: C_24  and  C_27
REMARK   10  A    between atoms: C_30  and  O_34
REMARK   11  A    between atoms: C_32  and  O_33
REMARK                            x       y       z     vdW  Elec       q    Type
REMARK                         _______ _______ _______ _____ _____    ______ ____
ROOT
ATOM      1  N   UNL     1      -5.955   0.785   6.115  0.00  0.00    -0.297 N 
ATOM      2  C   UNL     1      -5.754  -0.056   7.216  0.00  0.00    +0.145 A 
ATOM      3  C   UNL     1      -4.977  -1.221   7.225  0.00  0.00    +0.073 A 
ATOM      4  C   UNL     1      -5.035  -1.752   8.483  0.00  0.00    +0.068 A 
ATOM      5  N   UNL     1      -5.828  -0.936   9.234  0.00  0.00    -0.275 N 
ATOM      6  H   UNL     1      -6.052  -1.060  10.169  0.00  0.00    +0.189 HD
ATOM      7  N   UNL     1      -6.257   0.117   8.416  0.00  0.00    -0.158 NA
ATOM      8  H   UNL     1      -5.473   0.626   5.288  0.00  0.00    +0.154 HD
ENDROOT
BRANCH   1  12
ATOM      9  C   UNL     1      -8.552   3.975   6.329  0.00  0.00    +0.024 A 
ATOM     10  C   UNL     1      -8.799   2.876   7.129  0.00  0.00    +0.023 A 
ATOM     11  C   UNL     1      -7.939   1.791   7.074  0.00  0.00    +0.026 A 
ATOM     12  C   UNL     1      -6.851   1.853   6.206  0.00  0.00    +0.051 A 
ATOM     13  C   UNL     1      -6.669   2.993   5.434  0.00  0.00    +0.134 A 
ATOM     14  N   UNL     1      -7.515   4.001   5.514  0.00  0.00    -0.260 NA
BRANCH   9  15
ATOM     15  C   UNL     1      -9.483   5.159   6.383  0.00  0.00    -0.026 C 
BRANCH  15  16
ATOM     16  N   UNL     1      -8.948   6.160   7.316  0.00  0.00    +0.384 N 
ATOM     17  H   UNL     1      -8.039   6.462   7.000  0.00  0.00    -0.085 HD
ATOM     18  H   UNL     1      -8.867   5.753   8.236  0.00  0.00    -0.085 HD
BRANCH  16  19
ATOM     19  C   UNL     1      -9.856   7.314   7.370  0.00  0.00    -0.075 C 
ATOM     20  C   UNL     1      -9.883   8.005   6.005  0.00  0.00    -0.014 C 
BRANCH  19  22
ATOM     21  C   UNL     1      -9.457   7.649   9.813  0.00  0.00    +0.002 C 
ATOM     22  C   UNL     1      -9.366   8.300   8.431  0.00  0.00    -0.019 C 
ENDBRANCH  19  22
ENDBRANCH  16  19
ENDBRANCH  15  16
ENDBRANCH   9  15
ENDBRANCH   1  12
BRANCH   4  23
ATOM     23  C   UNL     1      -4.361  -2.985   8.945  0.00  0.00    -0.000 A 
ATOM     24  C   UNL     1      -3.570  -3.721   8.061  0.00  0.00    +0.010 A 
ATOM     25  C   UNL     1      -2.943  -4.869   8.491  0.00  0.00    +0.009 A 
ATOM     26  C   UNL     1      -3.098  -5.296   9.810  0.00  0.00    -0.014 A 
ATOM     27  C   UNL     1      -3.889  -4.561  10.694  0.00  0.00    +0.009 A 
ATOM     28  C   UNL     1      -4.511  -3.409  10.266  0.00  0.00    +0.010 A 
BRANCH  26  29
ATOM     29  C   UNL     1      -2.424  -6.532  10.273  0.00  0.00    +0.024 A 
ATOM     30  C   UNL     1      -2.536  -7.708   9.534  0.00  0.00    +0.015 A 
ATOM     31  C   UNL     1      -1.907  -8.856   9.967  0.00  0.00    +0.046 A 
ATOM     32  C   UNL     1      -1.160  -8.845  11.138  0.00  0.00    +0.120 A 
ATOM     33  C   UNL     1      -1.043  -7.678  11.880  0.00  0.00    +0.091 A 
ATOM     34  C   UNL     1      -1.667  -6.519  11.450  0.00  0.00    +0.128 A 
BRANCH  34  35
ATOM     35  O   UNL     1      -1.549  -5.375  12.172  0.00  0.00    -0.506 OA
ATOM     36  H   UNL     1      -2.233  -5.262  12.845  0.00  0.00    +0.292 HD
ENDBRANCH  34  35
BRANCH  32  37
ATOM     37  O   UNL     1      -0.543  -9.979  11.559  0.00  0.00    -0.507 OA
ATOM     38  H   UNL     1       0.356 -10.087  11.219  0.00  0.00    +0.292 HD
ENDBRANCH  32  37
ENDBRANCH  26  29
ENDBRANCH   4  23
TORSDOF 9
