REMARK  Name = ZINC09514505
REMARK  6 active torsions:
REMARK  status: ('A' for Active; 'I' for Inactive)
REMARK    1  A    between atoms: C_8  and  C_24
REMARK    2  A    between atoms: C_11  and  C_12
REMARK    3  A    between atoms: C_11  and  N_48
REMARK    4  A    between atoms: N_14  and  C_15
REMARK    5  A    between atoms: C_15  and  C_16
REMARK    6  A    between atoms: C_16  and  C_17
REMARK                            x       y       z     vdW  Elec       q    Type
REMARK                         _______ _______ _______ _____ _____    ______ ____
ROOT
ATOM      1  C   UNL     1       0.134   1.357   0.863  0.00  0.00    +0.000 A 
ATOM      2  C   UNL     1       1.305   2.015   0.538  0.00  0.00    +0.000 A 
ATOM      3  C   UNL     1       1.268   3.344   0.167  0.00  0.00    +0.002 A 
ATOM      4  C   UNL     1       0.060   4.025   0.120  0.00  0.00    -0.061 A 
ATOM      5  C   UNL     1      -1.108   3.369   0.446  0.00  0.00    -0.047 A 
ATOM      6  C   UNL     1      -1.070   2.032   0.811  0.00  0.00    +0.004 A 
ATOM      7  C   UNL     1      -2.443   4.068   0.415  0.00  0.00    +0.029 C 
ATOM      8  C   UNL     1      -2.336   5.361  -0.394  0.00  0.00    +0.024 C 
ATOM      9  C   UNL     1       0.069   5.473  -0.295  0.00  0.00    -0.041 C 
ATOM     10  N   UNL     1      -1.183   6.124   0.124  0.00  0.00    +0.396 N 
ATOM     11  H   UNL     1      -1.226   6.141   1.149  0.00  0.00    -0.080 HD
ENDROOT
BRANCH   8  12
ATOM     12  C   UNL     1      -3.594   6.174  -0.225  0.00  0.00    +0.197 C 
ATOM     13  O   UNL     1      -3.712   6.919   0.725  0.00  0.00    -0.278 OA
ATOM     14  N   UNL     1      -4.588   6.073  -1.129  0.00  0.00    -0.331 N 
ATOM     15  H   UNL     1      -4.494   5.478  -1.889  0.00  0.00    +0.145 HD
ATOM     16  H   UNL     1      -5.398   6.596  -1.020  0.00  0.00    +0.145 HD
ENDBRANCH   8  12
BRANCH  10  17
ATOM     17  C   UNL     1      -1.225   7.515  -0.384  0.00  0.00    +0.020 C 
BRANCH  17  18
ATOM     18  C   UNL     1      -1.239   7.521  -1.890  0.00  0.00    +0.197 C 
ATOM     19  O   UNL     1      -1.215   6.474  -2.502  0.00  0.00    -0.278 OA
ATOM     20  N   UNL     1      -1.278   8.691  -2.559  0.00  0.00    -0.317 N 
ATOM     21  H   UNL     1      -1.297   9.528  -2.070  0.00  0.00    +0.149 HD
BRANCH  20  22
ATOM     22  C   UNL     1      -1.291   8.697  -4.024  0.00  0.00    +0.109 C 
BRANCH  22  23
ATOM     23  C   UNL     1      -1.336  10.141  -4.527  0.00  0.00    +0.054 C 
BRANCH  23  24
ATOM     24  C   UNL     1      -1.350  10.148  -6.034  0.00  0.00    -0.046 A 
ATOM     25  C   UNL     1      -0.160  10.191  -6.735  0.00  0.00    +0.006 A 
ATOM     26  C   UNL     1      -0.171  10.192  -8.117  0.00  0.00    +0.038 A 
ATOM     27  C   UNL     1      -1.375  10.161  -8.799  0.00  0.00    +0.123 A 
ATOM     28  C   UNL     1      -2.567  10.124  -8.096  0.00  0.00    +0.038 A 
ATOM     29  C   UNL     1      -2.553  10.117  -6.714  0.00  0.00    +0.006 A 
ATOM     30  F   UNL     1      -1.387  10.167 -10.150  0.00  0.00    -0.205 F 
ENDBRANCH  23  24
ENDBRANCH  22  23
ENDBRANCH  20  22
ENDBRANCH  17  18
ENDBRANCH  10  17
TORSDOF 6
