REMARK  Name = ZINC09610652
REMARK  7 active torsions:
REMARK  status: ('A' for Active; 'I' for Inactive)
REMARK    1  A    between atoms: C_4  and  C_7
REMARK    2  A    between atoms: C_7  and  C_9
REMARK    3  A    between atoms: C_7  and  N_20
REMARK    4  A    between atoms: N_11  and  C_12
REMARK    5  A    between atoms: C_12  and  C_13
REMARK    6  A    between atoms: N_20  and  S_21
REMARK    7  A    between atoms: S_21  and  C_24
REMARK                            x       y       z     vdW  Elec       q    Type
REMARK                         _______ _______ _______ _____ _____    ______ ____
ROOT
ATOM      1  C   UNL     1      -0.997   1.758  -3.630  0.00  0.00    +0.192 C 
ENDROOT
BRANCH   1   5
ATOM      2  C   UNL     1      -5.005   0.279  -3.600  0.00  0.00    +0.000 A 
ATOM      3  C   UNL     1      -4.742   1.571  -3.186  0.00  0.00    +0.000 A 
ATOM      4  C   UNL     1      -3.445   2.050  -3.196  0.00  0.00    +0.006 A 
ATOM      5  C   UNL     1      -2.411   1.236  -3.619  0.00  0.00    -0.020 A 
ATOM      6  C   UNL     1      -2.675  -0.055  -4.038  0.00  0.00    +0.006 A 
ATOM      7  C   UNL     1      -3.971  -0.534  -4.024  0.00  0.00    +0.000 A 
ENDBRANCH   1   5
BRANCH   1   8
ATOM      8  C   UNL     1      -0.268   1.258  -2.409  0.00  0.00    +0.236 C 
ATOM      9  O   UNL     1       0.726   0.575  -2.534  0.00  0.00    -0.274 OA
ATOM     10  N   UNL     1      -0.721   1.571  -1.179  0.00  0.00    -0.310 N 
ATOM     11  H   UNL     1      -1.516   2.118  -1.079  0.00  0.00    +0.149 HD
BRANCH  10  12
ATOM     12  C   UNL     1      -0.013   1.086   0.008  0.00  0.00    +0.139 C 
BRANCH  12  13
ATOM     13  C   UNL     1      -0.718   1.572   1.248  0.00  0.00    -0.030 A 
ATOM     14  C   UNL     1      -0.360   2.779   1.818  0.00  0.00    +0.006 A 
ATOM     15  C   UNL     1      -1.010   3.228   2.952  0.00  0.00    +0.020 A 
ATOM     16  C   UNL     1      -2.012   2.464   3.523  0.00  0.00    +0.041 A 
ATOM     17  C   UNL     1      -2.367   1.253   2.955  0.00  0.00    +0.020 A 
ATOM     18  C   UNL     1      -1.719   0.808   1.817  0.00  0.00    +0.006 A 
ATOM     19 CL   UNL     1      -2.825   3.024   4.951  0.00  0.00    -0.084 Cl
ENDBRANCH  12  13
ENDBRANCH  10  12
ENDBRANCH   1   8
BRANCH   1  20
ATOM     20  N   UNL     1      -0.311   1.285  -4.835  0.00  0.00    -0.174 NA
ATOM     21  H   UNL     1       0.110   0.411  -4.843  0.00  0.00    +0.149 HD
BRANCH  20  22
ATOM     22  S   UNL     1      -0.255   2.243  -6.185  0.00  0.00    +0.059 S 
ATOM     23  O   UNL     1       0.491   1.527  -7.160  0.00  0.00    -0.153 OA
ATOM     24  O   UNL     1      -1.583   2.692  -6.420  0.00  0.00    -0.153 OA
BRANCH  22  25
ATOM     25  C   UNL     1       0.693   3.669  -5.772  0.00  0.00    +0.106 A 
ATOM     26  C   UNL     1       0.066   4.790  -5.260  0.00  0.00    +0.030 A 
ATOM     27  C   UNL     1       0.806   5.909  -4.932  0.00  0.00    +0.025 A 
ATOM     28  C   UNL     1       2.182   5.910  -5.126  0.00  0.00    +0.037 A 
ATOM     29  C   UNL     1       2.808   4.785  -5.645  0.00  0.00    -0.024 A 
ATOM     30  C   UNL     1       2.062   3.668  -5.967  0.00  0.00    +0.034 A 
ATOM     31  C   UNL     1       4.300   4.786  -5.854  0.00  0.00    +0.046 C 
ATOM     32  C   UNL     1       4.759   6.189  -6.250  0.00  0.00    +0.101 C 
ATOM     33  C   UNL     1       4.172   7.206  -5.308  0.00  0.00    +0.218 C 
ATOM     34  O   UNL     1       4.819   8.185  -5.003  0.00  0.00    -0.275 OA
ATOM     35  N   UNL     1       2.937   7.041  -4.800  0.00  0.00    -0.285 N 
ATOM     36  H   UNL     1       2.568   7.711  -4.204  0.00  0.00    +0.155 HD
ENDBRANCH  22  25
ENDBRANCH  20  22
ENDBRANCH   1  20
TORSDOF 7
