REMARK  Name = ZINC15016009
REMARK  8 active torsions:
REMARK  status: ('A' for Active; 'I' for Inactive)
REMARK    1  A    between atoms: C_1  and  C_2
REMARK    2  A    between atoms: N_7  and  C_8
REMARK    3  A    between atoms: C_8  and  C_10
REMARK    4  A    between atoms: C_8  and  C_22
REMARK    5  A    between atoms: C_13  and  O_16
REMARK    6  A    between atoms: O_16  and  C_17
REMARK    7  A    between atoms: C_28  and  C_33
REMARK    8  A    between atoms: C_31  and  O_32
REMARK                            x       y       z     vdW  Elec       q    Type
REMARK                         _______ _______ _______ _____ _____    ______ ____
ROOT
ATOM      1  C   UNL     1       5.371  -1.754   1.999  0.00  0.00    +0.136 C 
ENDROOT
BRANCH   1   2
ATOM      2  C   UNL     1       5.054  -1.893   3.465  0.00  0.00    +0.021 A 
ATOM      3  C   UNL     1       4.208  -2.915   3.890  0.00  0.00    +0.010 A 
ATOM      4  C   UNL     1       3.903  -3.068   5.208  0.00  0.00    +0.010 A 
ATOM      5  C   UNL     1       4.446  -2.186   6.156  0.00  0.00    +0.004 A 
ATOM      6  C   UNL     1       4.154  -2.314   7.527  0.00  0.00    +0.012 A 
ATOM      7  C   UNL     1       4.718  -1.420   8.392  0.00  0.00    +0.023 A 
ATOM      8  C   UNL     1       5.557  -0.419   7.908  0.00  0.00    +0.039 A 
ATOM      9  N   UNL     1       5.827  -0.304   6.630  0.00  0.00    -0.248 NA
ATOM     10  C   UNL     1       5.307  -1.145   5.732  0.00  0.00    +0.113 A 
ATOM     11  C   UNL     1       5.606  -1.020   4.359  0.00  0.00    +0.148 A 
ATOM     12  C   UNL     1       6.170   0.557   8.878  0.00  0.00    +0.065 C 
BRANCH  11  13
ATOM     13  O   UNL     1       6.434  -0.033   3.927  0.00  0.00    -0.504 OA
ATOM     14  H   UNL     1       5.980   0.791   3.703  0.00  0.00    +0.292 HD
ENDBRANCH  11  13
ENDBRANCH   1   2
BRANCH   1  21
ATOM     15  C   UNL     1       9.891  -4.099   2.592  0.00  0.00    +0.044 C 
ATOM     16  C   UNL     1       8.602  -4.431   1.886  0.00  0.00    -0.046 A 
ATOM     17  C   UNL     1       8.473  -5.605   1.155  0.00  0.00    +0.021 A 
ATOM     18  C   UNL     1       7.278  -5.879   0.521  0.00  0.00    +0.084 A 
ATOM     19  C   UNL     1       6.345  -3.913   1.288  0.00  0.00    +0.097 A 
ATOM     20  C   UNL     1       7.519  -3.572   1.952  0.00  0.00    +0.045 A 
ATOM     21  N   UNL     1       5.249  -3.059   1.346  0.00  0.00    -0.320 N 
ATOM     22  H   UNL     1       4.403  -3.329   0.954  0.00  0.00    +0.148 HD
ATOM     23  N   UNL     1       6.192  -5.062   0.570  0.00  0.00    -0.350 N 
ATOM     24  H   UNL     1       5.312  -5.296   0.095  0.00  0.00    +0.166 HD
ENDBRANCH   1  21
BRANCH   1  25
ATOM     25  C   UNL     1       4.405  -0.784   1.367  0.00  0.00    -0.023 A 
ATOM     26  C   UNL     1       4.839   0.473   0.987  0.00  0.00    +0.009 A 
ATOM     27  C   UNL     1       3.956   1.363   0.407  0.00  0.00    +0.046 A 
ATOM     28  C   UNL     1       2.633   0.996   0.207  0.00  0.00    +0.121 A 
ATOM     29  C   UNL     1       2.200  -0.264   0.594  0.00  0.00    +0.046 A 
ATOM     30  C   UNL     1       3.088  -1.153   1.169  0.00  0.00    +0.009 A 
BRANCH  28  31
ATOM     31  O   UNL     1       1.763   1.870  -0.363  0.00  0.00    -0.489 OA
BRANCH  31  32
ATOM     32  C   UNL     1       2.244   3.191  -0.619  0.00  0.00    +0.173 C 
ATOM     33  C   UNL     1       2.868   3.276  -2.034  0.00  0.00    +0.044 C 
ATOM     34  C   UNL     1       2.760   4.790  -2.361  0.00  0.00    +0.004 C 
ATOM     35  C   UNL     1       1.402   5.211  -1.765  0.00  0.00    +0.004 C 
ATOM     36  C   UNL     1       1.073   4.195  -0.657  0.00  0.00    +0.044 C 
ENDBRANCH  31  32
ENDBRANCH  28  31
ENDBRANCH   1  25
TORSDOF 6
