REMARK  Name = ZINC19770358
REMARK  13 active torsions:
REMARK  status: ('A' for Active; 'I' for Inactive)
REMARK    1  A    between atoms: C_1  and  C_2
REMARK    2  A    between atoms: C_3  and  C_32
REMARK    3  A    between atoms: C_4  and  C_16
REMARK    4  A    between atoms: C_10  and  C_14
REMARK    5  A    between atoms: C_10  and  C_15
REMARK    6  A    between atoms: C_19  and  O_24
REMARK    7  A    between atoms: C_20  and  O_22
REMARK    8  A    between atoms: O_22  and  C_23
REMARK    9  A    between atoms: O_24  and  C_25
REMARK   10  A    between atoms: C_25  and  C_26
REMARK   11  A    between atoms: C_32  and  O_34
REMARK   12  A    between atoms: O_34  and  C_35
REMARK   13  A    between atoms: C_35  and  C_36
REMARK                            x       y       z     vdW  Elec       q    Type
REMARK                         _______ _______ _______ _____ _____    ______ ____
ROOT
ATOM      1  C   UNL     1      -3.510  -0.986  -0.786  0.00  0.00    +0.061 C 
ATOM      2  C   UNL     1      -2.342  -0.127  -0.373  0.00  0.00    +0.016 C 
ATOM      3  C   UNL     1      -2.461   1.212  -0.383  0.00  0.00    +0.065 C 
ATOM      4  C   UNL     1      -1.323   2.098   0.032  0.00  0.00    +0.092 C 
ATOM      5  C   UNL     1      -0.016   1.346   0.009  0.00  0.00    +0.024 C 
ATOM      6  C   UNL     1       0.002  -0.004   0.002  0.00  0.00    +0.016 C 
ATOM      7  N   UNL     1      -1.168  -0.715   0.008  0.00  0.00    -0.321 N 
ATOM      8  C   UNL     1       1.305  -0.764  -0.017  0.00  0.00    +0.058 C 
ATOM      9  C   UNL     1       2.383   0.047   0.707  0.00  0.00    -0.023 C 
ATOM     10  C   UNL     1       2.519   1.405   0.009  0.00  0.00    +0.086 C 
ATOM     11  C   UNL     1       1.178   2.087   0.002  0.00  0.00    +0.162 C 
ATOM     12  O   UNL     1       1.127   3.301  -0.011  0.00  0.00    -0.292 OA
ATOM     13  C   UNL     1       1.975   0.258   2.166  0.00  0.00    +0.011 C 
ATOM     14  C   UNL     1       3.717  -0.699   0.643  0.00  0.00    +0.011 C 
ATOM     15  H   UNL     1      -1.158  -1.768   0.324  0.00  0.00    +0.152 HD
ENDROOT
BRANCH   4  16
ATOM     16  C   UNL     1      -1.573   2.612   1.427  0.00  0.00    -0.032 A 
ATOM     17  C   UNL     1      -1.675   1.724   2.481  0.00  0.00    +0.008 A 
ATOM     18  C   UNL     1      -1.904   2.190   3.762  0.00  0.00    +0.050 A 
ATOM     19  C   UNL     1      -2.033   3.551   3.991  0.00  0.00    +0.162 A 
ATOM     20  C   UNL     1      -1.931   4.445   2.930  0.00  0.00    +0.162 A 
ATOM     21  C   UNL     1      -1.696   3.971   1.649  0.00  0.00    +0.054 A 
BRANCH  20  22
ATOM     22  O   UNL     1      -2.057   5.781   3.150  0.00  0.00    -0.491 OA
ATOM     23  C   UNL     1      -1.942   6.639   2.013  0.00  0.00    +0.277 C 
ENDBRANCH  20  22
BRANCH  19  24
ATOM     24  O   UNL     1      -2.257   4.011   5.251  0.00  0.00    -0.484 OA
BRANCH  24  25
ATOM     25  C   UNL     1      -2.350   3.036   6.292  0.00  0.00    +0.264 C 
BRANCH  25  26
ATOM     26  C   UNL     1      -2.599   3.728   7.607  0.00  0.00    -0.010 A 
ATOM     27  C   UNL     1      -1.533   4.121   8.394  0.00  0.00    +0.007 A 
ATOM     28  C   UNL     1      -1.761   4.760   9.599  0.00  0.00    +0.000 A 
ATOM     29  C   UNL     1      -3.056   4.995  10.021  0.00  0.00    +0.000 A 
ATOM     30  C   UNL     1      -4.123   4.597   9.237  0.00  0.00    +0.000 A 
ATOM     31  C   UNL     1      -3.894   3.963   8.030  0.00  0.00    +0.007 A 
ENDBRANCH  25  26
ENDBRANCH  24  25
ENDBRANCH  19  24
ENDBRANCH   4  16
BRANCH   3  32
ATOM     32  C   UNL     1      -3.683   1.796  -0.790  0.00  0.00    +0.338 C 
ATOM     33  O   UNL     1      -4.614   1.089  -1.127  0.00  0.00    -0.245 OA
BRANCH  32  34
ATOM     34  O   UNL     1      -3.817   3.139  -0.804  0.00  0.00    -0.459 OA
BRANCH  34  35
ATOM     35  C   UNL     1      -5.079   3.661  -1.226  0.00  0.00    +0.264 C 
BRANCH  35  36
ATOM     36  C   UNL     1      -5.041   5.189  -1.177  0.00  0.00    +0.156 C 
ATOM     37  C   UNL     1      -6.383   5.777  -1.683  0.00  0.00    +0.037 C 
ATOM     38  C   UNL     1      -6.386   7.158  -0.971  0.00  0.00    +0.031 C 
ATOM     39  C   UNL     1      -5.687   6.839   0.367  0.00  0.00    +0.160 C 
ATOM     40  O   UNL     1      -4.922   5.642   0.181  0.00  0.00    -0.373 OA
ENDBRANCH  35  36
ENDBRANCH  34  35
ENDBRANCH  32  34
ENDBRANCH   3  32
TORSDOF 9
