REMARK  Name = ZINC63538110
REMARK  5 active torsions:
REMARK  status: ('A' for Active; 'I' for Inactive)
REMARK    1  A    between atoms: C_6  and  C_11
REMARK    2  A    between atoms: C_11  and  N_12
REMARK    3  A    between atoms: C_13  and  C_15
REMARK    4  A    between atoms: C_23  and  C_30
REMARK    5  A    between atoms: C_25  and  C_26
REMARK                            x       y       z     vdW  Elec       q    Type
REMARK                         _______ _______ _______ _____ _____    ______ ____
ROOT
ATOM      1  C   UNL     1       7.207  -3.055   2.368  0.00  0.00    +0.073 C 
ATOM      2  H   UNL     1      10.080  -3.592   3.584  0.00  0.00    +0.170 HD
ATOM      3  C   UNL     1       8.018  -3.562   3.321  0.00  0.00    +0.100 C 
ATOM      4  N   UNL     1       9.322  -3.232   3.097  0.00  0.00    -0.269 N 
ATOM      5  N   UNL     1       9.406  -2.303   2.068  0.00  0.00    -0.220 N 
ATOM      6  C   UNL     1       8.091  -2.320   1.388  0.00  0.00    +0.246 C 
ATOM      7  N   UNL     1       7.667  -0.925   1.239  0.00  0.00    -0.254 NA
ATOM      8  C   UNL     1       8.566   0.029   1.161  0.00  0.00    +0.077 C 
ATOM      9  C   UNL     1      10.006  -0.253   1.214  0.00  0.00    +0.057 C 
ATOM     10  C   UNL     1      10.418  -1.450   1.702  0.00  0.00    +0.132 C 
ENDROOT
BRANCH   8  11
ATOM     11  C   UNL     1       8.116   1.425   1.016  0.00  0.00    +0.037 A 
ATOM     12  C   UNL     1       6.837   1.919   0.951  0.00  0.00    +0.017 A 
ATOM     13  C   UNL     1       6.723   3.285   0.813  0.00  0.00    +0.008 A 
ATOM     14  C   UNL     1       7.849   4.035   0.753  0.00  0.00    +0.046 A 
ATOM     15  S   UNL     1       9.092   2.912   0.888  0.00  0.00    -0.095 S 
ENDBRANCH   8  11
BRANCH   1  17
ATOM     16  N   UNL     1       5.120  -2.633   1.277  0.00  0.00    -0.309 N 
ATOM     17  C   UNL     1       5.801  -3.192   2.297  0.00  0.00    +0.245 C 
ATOM     18  O   UNL     1       5.205  -3.814   3.158  0.00  0.00    -0.270 OA
ATOM     19  H   UNL     1       5.594  -2.137   0.591  0.00  0.00    +0.149 HD
BRANCH  16  20
ATOM     20  C   UNL     1       3.664  -2.775   1.204  0.00  0.00    +0.133 C 
BRANCH  20  26
ATOM     21  C   UNL     1      -0.016   1.348   0.009  0.00  0.00    +0.001 A 
ATOM     22  C   UNL     1       1.166   2.101   0.002  0.00  0.00    +0.002 A 
ATOM     23  C   UNL     1       2.391   1.535  -0.013  0.00  0.00    +0.026 A 
ATOM     24  C   UNL     1       2.529   0.120  -0.022  0.00  0.00    +0.043 A 
ATOM     25  N   UNL     1       3.587  -0.654  -0.037  0.00  0.00    -0.376 N 
ATOM     26  C   UNL     1       3.143  -2.053  -0.041  0.00  0.00    +0.120 C 
ATOM     27  C   UNL     1       1.631  -2.008  -0.025  0.00  0.00    +0.009 C 
ATOM     28  C   UNL     1       1.295  -0.698  -0.014  0.00  0.00    -0.004 A 
ATOM     29  C   UNL     1       0.002  -0.004   0.002  0.00  0.00    +0.010 A 
ATOM     30  H   UNL     1       4.509  -0.353  -0.045  0.00  0.00    +0.160 HD
ENDBRANCH  20  26
ENDBRANCH  16  20
ENDBRANCH   1  17
BRANCH  10  31
ATOM     31  C   UNL     1      11.874  -1.820   1.818  0.00  0.00    +0.432 C 
ATOM     32  F   UNL     1      12.663  -0.755   1.373  0.00  0.00    -0.165 F 
ATOM     33  F   UNL     1      12.179  -2.099   3.155  0.00  0.00    -0.165 F 
ATOM     34  F   UNL     1      12.131  -2.951   1.036  0.00  0.00    -0.165 F 
ENDBRANCH  10  31
TORSDOF 5
