REMARK  Name = ZINC39143334
REMARK  7 active torsions:
REMARK  status: ('A' for Active; 'I' for Inactive)
REMARK    1  A    between atoms: C_1  and  O_2
REMARK    2  A    between atoms: O_2  and  C_3
REMARK    3  A    between atoms: C_6  and  N_9
REMARK    4  A    between atoms: C_10  and  C_12
REMARK    5  A    between atoms: C_12  and  S_13
REMARK    6  A    between atoms: S_13  and  C_14
REMARK    7  A    between atoms: C_22  and  C_26
REMARK                            x       y       z     vdW  Elec       q    Type
REMARK                         _______ _______ _______ _____ _____    ______ ____
ROOT
ATOM      1  C   UNL     1       4.404  -6.642  -6.900  0.00  0.00    +0.288 C 
ATOM      2  N   UNL     1       5.772  -6.114  -7.051  0.00  0.00    -0.174 NA
ATOM      3  N   UNL     1       5.810  -5.407  -8.065  0.00  0.00    -0.251 N 
ATOM      4  C   UNL     1       4.619  -5.325  -8.711  0.00  0.00    +0.220 C 
ATOM      5  N   UNL     1       4.296  -4.636  -9.797  0.00  0.00    -0.145 NA
ATOM      6  C   UNL     1       3.005  -4.622 -10.159  0.00  0.00    +0.262 C 
ATOM      7  O   UNL     1       2.690  -4.170 -11.242  0.00  0.00    -0.271 OA
ATOM      8  C   UNL     1       1.941  -5.160  -9.239  0.00  0.00    +0.191 C 
ATOM      9  N   UNL     1       2.438  -6.346  -8.520  0.00  0.00    -0.219 NA
ATOM     10  N   UNL     1       3.698  -6.122  -8.068  0.00  0.00    -0.201 N 
ATOM     11  H   UNL     1       2.407  -7.165  -9.109  0.00  0.00    +0.146 HD
ATOM     12  H   UNL     1       6.613  -4.956  -8.370  0.00  0.00    +0.191 HD
ENDROOT
BRANCH   8  13
ATOM     13  C   UNL     1       1.562  -4.097  -8.239  0.00  0.00    -0.020 A 
ATOM     14  C   UNL     1       1.776  -2.764  -8.534  0.00  0.00    +0.007 A 
ATOM     15  C   UNL     1       1.429  -1.789  -7.618  0.00  0.00    +0.020 A 
ATOM     16  C   UNL     1       0.867  -2.148  -6.405  0.00  0.00    +0.041 A 
ATOM     17  C   UNL     1       0.653  -3.483  -6.111  0.00  0.00    +0.020 A 
ATOM     18  C   UNL     1       0.996  -4.457  -7.030  0.00  0.00    +0.007 A 
ATOM     19 CL   UNL     1       0.431  -0.925  -5.254  0.00  0.00    -0.084 Cl
ENDBRANCH   8  13
BRANCH   1  20
ATOM     20  S   UNL     1       3.648  -6.026  -5.370  0.00  0.00    -0.103 S 
BRANCH  20  21
ATOM     21  C   UNL     1       3.980  -4.243  -5.404  0.00  0.00    +0.168 C 
BRANCH  21  23
ATOM     22  N   UNL     1       3.496  -2.268  -3.996  0.00  0.00    -0.285 N 
ATOM     23  C   UNL     1       3.413  -3.603  -4.163  0.00  0.00    +0.227 C 
ATOM     24  O   UNL     1       2.884  -4.289  -3.315  0.00  0.00    -0.275 OA
ATOM     25  H   UNL     1       3.910  -1.718  -4.679  0.00  0.00    +0.155 HD
BRANCH  22  29
ATOM     26  C   UNL     1       1.966  -0.501  -0.543  0.00  0.00    +0.120 A 
ATOM     27  C   UNL     1       3.075   0.048  -1.170  0.00  0.00    +0.047 A 
ATOM     28  C   UNL     1       3.582  -0.536  -2.313  0.00  0.00    +0.027 A 
ATOM     29  C   UNL     1       2.982  -1.674  -2.836  0.00  0.00    +0.034 A 
ATOM     30  C   UNL     1       1.872  -2.223  -2.208  0.00  0.00    +0.027 A 
ATOM     31  C   UNL     1       1.369  -1.641  -1.061  0.00  0.00    +0.047 A 
BRANCH  26  33
ATOM     32  C   UNL     1       2.131   1.247   1.061  0.00  0.00    +0.277 C 
ATOM     33  O   UNL     1       1.467   0.075   0.583  0.00  0.00    -0.495 OA
ENDBRANCH  26  33
ENDBRANCH  22  29
ENDBRANCH  21  23
ENDBRANCH  20  21
ENDBRANCH   1  20
TORSDOF 6
