REMARK  Name = ZINC60089441
REMARK  12 active torsions:
REMARK  status: ('A' for Active; 'I' for Inactive)
REMARK    1  A    between atoms: C_1  and  C_2
REMARK    2  A    between atoms: C_2  and  C_3
REMARK    3  A    between atoms: C_3  and  C_4
REMARK    4  A    between atoms: N_6  and  C_7
REMARK    5  A    between atoms: C_11  and  N_14
REMARK    6  A    between atoms: C_12  and  C_13
REMARK    7  A    between atoms: N_14  and  C_15
REMARK    8  A    between atoms: C_15  and  C_16
REMARK    9  A    between atoms: N_18  and  C_19
REMARK   10  A    between atoms: C_19  and  C_21
REMARK   11  A    between atoms: C_19  and  C_28
REMARK   12  A    between atoms: C_24  and  C_27
REMARK                            x       y       z     vdW  Elec       q    Type
REMARK                         _______ _______ _______ _____ _____    ______ ____
ROOT
ATOM      1  C   UNL     1      -4.684  -8.470  -0.491  0.00  0.00    +0.197 C 
ENDROOT
BRANCH   1   2
ATOM      2  C   UNL     1      -6.076  -9.042  -0.584  0.00  0.00    +0.231 C 
ATOM      3  O   UNL     1      -7.037  -8.304  -0.565  0.00  0.00    -0.274 OA
ATOM      4  N   UNL     1      -6.251 -10.374  -0.690  0.00  0.00    -0.303 N 
ATOM      5  H   UNL     1      -5.481 -10.965  -0.705  0.00  0.00    +0.150 HD
BRANCH   4   6
ATOM      6  C   UNL     1      -7.603 -10.930  -0.780  0.00  0.00    +0.140 C 
BRANCH   6   7
ATOM      7  C   UNL     1      -7.596 -12.353  -0.283  0.00  0.00    -0.022 A 
ATOM      8  C   UNL     1      -6.540 -13.189  -0.596  0.00  0.00    +0.006 A 
ATOM      9  C   UNL     1      -6.533 -14.494  -0.140  0.00  0.00    +0.004 A 
ATOM     10  C   UNL     1      -7.582 -14.963   0.629  0.00  0.00    -0.050 A 
ATOM     11  C   UNL     1      -8.637 -14.127   0.943  0.00  0.00    +0.004 A 
ATOM     12  C   UNL     1      -8.642 -12.820   0.490  0.00  0.00    +0.006 A 
ATOM     13  C   UNL     1      -7.575 -16.386   1.125  0.00  0.00    +0.044 C 
ENDBRANCH   6   7
BRANCH   6  14
ATOM     14  C   UNL     1      -8.063 -10.902  -2.216  0.00  0.00    +0.014 A 
ATOM     15  C   UNL     1      -9.284 -10.593  -2.715  0.00  0.00    +0.013 A 
ATOM     16  C   UNL     1      -9.479 -10.634  -4.082  0.00  0.00    +0.008 A 
ATOM     17  C   UNL     1      -8.443 -10.981  -4.884  0.00  0.00    +0.045 A 
ATOM     18  S   UNL     1      -7.137 -11.259  -3.700  0.00  0.00    -0.099 S 
ENDBRANCH   6  14
ENDBRANCH   4   6
ENDBRANCH   1   2
BRANCH   1  19
ATOM     19  N   UNL     1      -4.763  -7.011  -0.385  0.00  0.00    -0.335 N 
ATOM     20  H   UNL     1      -5.627  -6.570  -0.384  0.00  0.00    +0.147 HD
BRANCH  19  25
ATOM     21  C   UNL     1      -2.502  -4.124  -0.089  0.00  0.00    +0.038 A 
ATOM     22  C   UNL     1      -1.266  -4.761  -0.090  0.00  0.00    +0.024 A 
ATOM     23  C   UNL     1      -1.197  -6.137  -0.190  0.00  0.00    +0.004 A 
ATOM     24  C   UNL     1      -2.354  -6.885  -0.288  0.00  0.00    +0.023 A 
ATOM     25  C   UNL     1      -3.593  -6.254  -0.286  0.00  0.00    +0.032 A 
ATOM     26  C   UNL     1      -3.666  -4.872  -0.181  0.00  0.00    -0.008 A 
ATOM     27  C   UNL     1      -5.007  -4.186  -0.173  0.00  0.00    +0.047 C 
BRANCH  21  30
ATOM     28  C   UNL     1      -1.565  -2.046   0.592  0.00  0.00    +0.217 C 
ATOM     29  O   UNL     1      -0.648  -2.642   1.115  0.00  0.00    -0.275 OA
ATOM     30  N   UNL     1      -2.571  -2.730   0.012  0.00  0.00    -0.285 N 
ATOM     31  H   UNL     1      -3.343  -2.257  -0.336  0.00  0.00    +0.155 HD
BRANCH  28  32
ATOM     32  C   UNL     1      -1.580  -0.539   0.590  0.00  0.00    +0.096 C 
BRANCH  32  34
ATOM     33  C   UNL     1      -0.349   1.515   1.305  0.00  0.00    +0.004 C 
ATOM     34  C   UNL     1      -0.334  -0.015   1.307  0.00  0.00    +0.006 C 
ENDBRANCH  32  34
ENDBRANCH  28  32
ENDBRANCH  21  30
ENDBRANCH  19  25
ENDBRANCH   1  19
TORSDOF 9
