REMARK  Name = ZINC02129723
REMARK  7 active torsions:
REMARK  status: ('A' for Active; 'I' for Inactive)
REMARK    1  A    between atoms: C_1  and  O_2
REMARK    2  A    between atoms: O_2  and  C_3
REMARK    3  A    between atoms: C_8  and  O_9
REMARK    4  A    between atoms: O_9  and  C_10
REMARK    5  A    between atoms: C_11  and  C_15
REMARK    6  A    between atoms: C_16  and  O_31
REMARK    7  A    between atoms: N_21  and  C_24
REMARK                            x       y       z     vdW  Elec       q    Type
REMARK                         _______ _______ _______ _____ _____    ______ ____
ROOT
ATOM      1  C   UNL     1      -5.916  -0.096   3.556  0.00  0.00    +0.067 A 
ATOM      2  C   UNL     1      -7.062   0.360   4.138  0.00  0.00    +0.201 A 
ATOM      3  N   UNL     1      -7.574  -0.297   5.228  0.00  0.00    -0.278 N 
ATOM      4  H   UNL     1      -8.390   0.022   5.644  0.00  0.00    +0.173 HD
ATOM      5  C   UNL     1      -6.947  -1.378   5.728  0.00  0.00    +0.336 A 
ATOM      6  O   UNL     1      -7.413  -1.945   6.697  0.00  0.00    -0.246 OA
ATOM      7  N   UNL     1      -5.813  -1.840   5.171  0.00  0.00    -0.229 N 
ATOM      8  C   UNL     1      -5.279  -1.227   4.096  0.00  0.00    +0.267 A 
ATOM      9  O   UNL     1      -4.252  -1.650   3.596  0.00  0.00    -0.267 OA
ENDROOT
BRANCH   1  16
ATOM     10  C   UNL     1      -1.617   2.395   3.493  0.00  0.00    +0.162 A 
ATOM     11  C   UNL     1      -1.723   1.747   2.275  0.00  0.00    +0.053 A 
ATOM     12  C   UNL     1      -2.920   1.161   1.893  0.00  0.00    -0.044 A 
ATOM     13  C   UNL     1      -4.015   1.223   2.730  0.00  0.00    -0.050 A 
ATOM     14  C   UNL     1      -3.913   1.869   3.953  0.00  0.00    +0.052 A 
ATOM     15  C   UNL     1      -2.719   2.450   4.341  0.00  0.00    +0.162 A 
ATOM     16  C   UNL     1      -5.337   0.606   2.355  0.00  0.00    +0.001 C 
ATOM     17  C   UNL     1      -4.441   0.260   0.145  0.00  0.00    -0.077 C 
ATOM     18  C   UNL     1      -2.984   0.464   0.558  0.00  0.00    +0.016 C 
ATOM     19  N   UNL     1      -5.165  -0.366   1.267  0.00  0.00    +0.387 N 
ATOM     20  H   UNL     1      -6.086  -0.682   0.944  0.00  0.00    -0.085 HD
ATOM     21  H   UNL     1      -4.628  -1.171   1.611  0.00  0.00    -0.085 HD
BRANCH  10  23
ATOM     22  C   UNL     1       0.648   2.867   2.942  0.00  0.00    +0.277 C 
ATOM     23  O   UNL     1      -0.441   2.969   3.862  0.00  0.00    -0.491 OA
ENDBRANCH  10  23
BRANCH  15  24
ATOM     24  O   UNL     1      -2.624   3.078   5.544  0.00  0.00    -0.491 OA
ATOM     25  C   UNL     1      -3.796   3.095   6.361  0.00  0.00    +0.277 C 
ENDBRANCH  15  24
ENDBRANCH   1  16
BRANCH   7  26
ATOM     26  C   UNL     1      -5.181  -2.968   5.713  0.00  0.00    +0.054 A 
ATOM     27  C   UNL     1      -5.515  -4.237   5.260  0.00  0.00    +0.027 A 
ATOM     28  C   UNL     1      -4.888  -5.346   5.793  0.00  0.00    +0.017 A 
ATOM     29  C   UNL     1      -3.935  -5.194   6.785  0.00  0.00    +0.018 A 
ATOM     30  C   UNL     1      -3.605  -3.931   7.242  0.00  0.00    +0.017 A 
ATOM     31  C   UNL     1      -4.226  -2.818   6.709  0.00  0.00    +0.027 A 
ATOM     32 BR   UNL     1      -3.084  -6.716   7.517  0.00  0.00    -0.050 Br
ENDBRANCH   7  26
BRANCH   2  33
ATOM     33  O   UNL     1      -7.690   1.448   3.642  0.00  0.00    -0.493 OA
ATOM     34  H   UNL     1      -8.492   1.692   4.123  0.00  0.00    +0.294 HD
ENDBRANCH   2  33
TORSDOF 5
