REMARK  Name = ZINC12642142
REMARK  10 active torsions:
REMARK  status: ('A' for Active; 'I' for Inactive)
REMARK    1  A    between atoms: C_1  and  C_2
REMARK    2  A    between atoms: C_2  and  C_3
REMARK    3  A    between atoms: C_2  and  C_4
REMARK    4  A    between atoms: C_4  and  C_5
REMARK    5  A    between atoms: C_5  and  N_6
REMARK    6  A    between atoms: C_7  and  C_30
REMARK    7  A    between atoms: C_12  and  C_29
REMARK    8  A    between atoms: C_14  and  C_20
REMARK    9  A    between atoms: N_22  and  C_23
REMARK   10  A    between atoms: N_32  and  C_33
REMARK                            x       y       z     vdW  Elec       q    Type
REMARK                         _______ _______ _______ _____ _____    ______ ____
ROOT
ATOM      1  N   UNL     1      -2.424   1.047   0.461  0.00  0.00    -0.287 N 
ATOM      2  C   UNL     1      -1.330   1.944   0.019  0.00  0.00    +0.198 C 
ATOM      3  C   UNL     1      -1.722   2.337  -1.371  0.00  0.00    +0.127 C 
ATOM      4  C   UNL     1      -0.767   2.734  -2.439  0.00  0.00    +0.009 C 
ATOM      5  C   UNL     1      -1.556   3.232  -3.401  0.00  0.00    +0.007 C 
ATOM      6  C   UNL     1      -2.998   3.168  -2.885  0.00  0.00    +0.098 C 
ATOM      7  O   UNL     1      -2.770   3.341  -1.440  0.00  0.00    -0.355 OA
ATOM      8  C   UNL     1      -3.425   1.665  -2.913  0.00  0.00    +0.125 C 
ATOM      9  C   UNL     1      -2.473   1.048  -1.872  0.00  0.00    +0.128 C 
ATOM     10  C   UNL     1      -3.133   0.591  -0.603  0.00  0.00    +0.223 C 
ATOM     11  O   UNL     1      -4.142  -0.080  -0.538  0.00  0.00    -0.275 OA
ATOM     12  C   UNL     1      -3.984   4.144  -3.530  0.00  0.00    +0.047 C 
ENDROOT
BRANCH   8  13
ATOM     13  C   UNL     1      -3.196   1.064  -4.276  0.00  0.00    +0.220 C 
ATOM     14  O   UNL     1      -2.348   0.210  -4.428  0.00  0.00    -0.275 OA
ATOM     15  N   UNL     1      -3.935   1.474  -5.325  0.00  0.00    -0.312 N 
ATOM     16  H   UNL     1      -4.614   2.156  -5.204  0.00  0.00    +0.149 HD
BRANCH  15  17
ATOM     17  C   UNL     1      -3.713   0.890  -6.650  0.00  0.00    +0.073 C 
ATOM     18  C   UNL     1      -2.573   1.631  -7.351  0.00  0.00    +0.022 C 
ATOM     19  C   UNL     1      -2.341   1.021  -8.734  0.00  0.00    +0.002 C 
ATOM     20  C   UNL     1      -3.618   1.146  -9.567  0.00  0.00    +0.000 C 
ATOM     21  C   UNL     1      -4.759   0.405  -8.867  0.00  0.00    +0.002 C 
ATOM     22  C   UNL     1      -4.990   1.015  -7.483  0.00  0.00    +0.022 C 
ENDBRANCH  15  17
ENDBRANCH   8  13
BRANCH   2  23
ATOM     23  C   UNL     1      -0.014   1.209   0.009  0.00  0.00    +0.237 C 
ATOM     24  O   UNL     1       0.002  -0.004   0.002  0.00  0.00    -0.274 OA
ATOM     25  N   UNL     1       1.143   1.898   0.001  0.00  0.00    -0.311 N 
ATOM     26  H   UNL     1       1.130   2.868   0.007  0.00  0.00    +0.149 HD
BRANCH  25  27
ATOM     27  C   UNL     1       2.422   1.183  -0.015  0.00  0.00    +0.073 C 
ATOM     28  C   UNL     1       2.819   0.817   1.417  0.00  0.00    +0.022 C 
ATOM     29  C   UNL     1       4.155   0.070   1.400  0.00  0.00    +0.002 C 
ATOM     30  C   UNL     1       5.232   0.965   0.785  0.00  0.00    +0.000 C 
ATOM     31  C   UNL     1       4.835   1.332  -0.647  0.00  0.00    +0.002 C 
ATOM     32  C   UNL     1       3.499   2.078  -0.630  0.00  0.00    +0.022 C 
ENDBRANCH  25  27
ENDBRANCH   2  23
BRANCH   1  33
ATOM     33  C   UNL     1      -2.702   0.700   1.857  0.00  0.00    +0.109 C 
BRANCH  33  34
ATOM     34  C   UNL     1      -3.686   1.712   2.447  0.00  0.00    +0.022 C 
BRANCH  34  36
ATOM     35  C   UNL     1      -2.698   1.497   4.732  0.00  0.00    +0.007 C 
ATOM     36  C   UNL     1      -3.977   1.349   3.905  0.00  0.00    -0.016 C 
ATOM     37  C   UNL     1      -5.053   2.285   4.458  0.00  0.00    +0.007 C 
ENDBRANCH  34  36
ENDBRANCH  33  34
ENDBRANCH   1  33
TORSDOF 7
