REMARK  Name = ZINC20711816
REMARK  5 active torsions:
REMARK  status: ('A' for Active; 'I' for Inactive)
REMARK    1  A    between atoms: C_1  and  C_2
REMARK    2  A    between atoms: C_2  and  C_4
REMARK    3  A    between atoms: C_4  and  O_5
REMARK    4  A    between atoms: O_5  and  C_6
REMARK    5  A    between atoms: C_13  and  C_22
REMARK                            x       y       z     vdW  Elec       q    Type
REMARK                         _______ _______ _______ _____ _____    ______ ____
ROOT
ATOM      1  C   UNL     1      -3.292  -1.399  -0.305  0.00  0.00    +0.142 A 
ATOM      2  C   UNL     1      -4.580  -0.895  -0.307  0.00  0.00    +0.047 A 
ATOM      3  C   UNL     1      -5.653  -1.756  -0.160  0.00  0.00    +0.004 A 
ATOM      4  C   UNL     1      -5.437  -3.110  -0.010  0.00  0.00    +0.006 A 
ATOM      5  C   UNL     1      -4.147  -3.628  -0.006  0.00  0.00    -0.016 A 
ATOM      6  C   UNL     1      -3.072  -2.772  -0.160  0.00  0.00    +0.074 A 
ATOM      7  N   UNL     1      -1.752  -3.229  -0.175  0.00  0.00    -0.334 N 
ATOM      8  C   UNL     1      -1.595  -4.492   0.548  0.00  0.00    +0.106 C 
ATOM      9  C   UNL     1      -2.520  -5.547  -0.064  0.00  0.00    +0.029 C 
ATOM     10  C   UNL     1      -3.984  -5.109   0.163  0.00  0.00    +0.049 C 
ATOM     11  C   UNL     1      -4.291  -5.531   1.569  0.00  0.00    -0.023 C 
ATOM     12  C   UNL     1      -3.458  -6.463   1.961  0.00  0.00    -0.030 C 
ATOM     13  C   UNL     1      -2.480  -6.802   0.853  0.00  0.00    +0.033 C 
ATOM     14  H   UNL     1      -0.880  -2.756  -0.650  0.00  0.00    +0.147 HD
ENDROOT
BRANCH   8  15
ATOM     15  C   UNL     1      -0.165  -4.956   0.445  0.00  0.00    -0.007 A 
ATOM     16  C   UNL     1       0.171  -5.971  -0.431  0.00  0.00    +0.007 A 
ATOM     17  C   UNL     1       1.482  -6.397  -0.526  0.00  0.00    +0.002 A 
ATOM     18  C   UNL     1       2.459  -5.809   0.255  0.00  0.00    +0.021 A 
ATOM     19  C   UNL     1       2.125  -4.793   1.133  0.00  0.00    +0.060 A 
ATOM     20  C   UNL     1       0.812  -4.362   1.223  0.00  0.00    +0.064 A 
ATOM     21 CL   UNL     1       0.392  -3.082   2.318  0.00  0.00    -0.082 Cl
ATOM     22 CL   UNL     1       3.352  -4.055   2.114  0.00  0.00    -0.082 Cl
ENDBRANCH   8  15
BRANCH   1  23
ATOM     23  O   UNL     1      -2.235  -0.555  -0.449  0.00  0.00    -0.486 OA
BRANCH  23  24
ATOM     24  C   UNL     1      -2.530   0.835  -0.598  0.00  0.00    +0.259 C 
BRANCH  24  26
ATOM     25  C   UNL     1      -1.282   3.105  -0.916  0.00  0.00    +0.042 C 
ATOM     26  C   UNL     1      -1.245   1.608  -0.744  0.00  0.00    -0.043 C 
ATOM     27  C   UNL     1      -0.096   0.980  -0.721  0.00  0.00    +0.011 C 
ENDBRANCH  24  26
ENDBRANCH  23  24
ENDBRANCH   1  23
TORSDOF 4
