REMARK  Name = ZINC12891783
REMARK  12 active torsions:
REMARK  status: ('A' for Active; 'I' for Inactive)
REMARK    1  A    between atoms: C_1  and  C_2
REMARK    2  A    between atoms: C_2  and  N_3
REMARK    3  A    between atoms: C_5  and  C_17
REMARK    4  A    between atoms: N_19  and  C_20
REMARK    5  A    between atoms: C_20  and  C_22
REMARK    6  A    between atoms: C_20  and  C_25
REMARK    7  A    between atoms: C_22  and  C_23
REMARK    8  A    between atoms: C_22  and  C_24
REMARK    9  A    between atoms: N_27  and  C_28
REMARK   10  A    between atoms: C_28  and  C_29
REMARK   11  A    between atoms: C_34  and  C_35
REMARK   12  A    between atoms: C_34  and  N_68
REMARK                            x       y       z     vdW  Elec       q    Type
REMARK                         _______ _______ _______ _____ _____    ______ ____
ROOT
ATOM      1  C   UNL     1       5.659   4.064   0.618  0.00  0.00    +0.250 C 
ATOM      2  O   UNL     1       6.803   3.877   0.248  0.00  0.00    -0.270 OA
ATOM      3  N   UNL     1       5.132   5.303   0.579  0.00  0.00    -0.300 N 
ATOM      4  H   UNL     1       4.220   5.452   0.874  0.00  0.00    +0.150 HD
ENDROOT
BRANCH   1   7
ATOM      5  N   UNL     1       2.788   2.132   1.981  0.00  0.00    -0.346 N 
ATOM      6  C   UNL     1       3.553   3.135   1.530  0.00  0.00    +0.103 A 
ATOM      7  C   UNL     1       4.851   2.936   1.108  0.00  0.00    +0.100 A 
ATOM      8  C   UNL     1       5.415   1.577   1.156  0.00  0.00    +0.202 A 
ATOM      9  O   UNL     1       6.557   1.351   0.794  0.00  0.00    -0.286 OA
ATOM     10  C   UNL     1       4.542   0.503   1.659  0.00  0.00    +0.050 A 
ATOM     11  C   UNL     1       3.234   0.829   2.060  0.00  0.00    +0.056 A 
ATOM     12  C   UNL     1       2.398  -0.173   2.539  0.00  0.00    +0.076 A 
ATOM     13  C   UNL     1       2.852  -1.478   2.616  0.00  0.00    +0.168 A 
ATOM     14  C   UNL     1       4.154  -1.799   2.214  0.00  0.00    +0.167 A 
ATOM     15  C   UNL     1       4.995  -0.816   1.738  0.00  0.00    +0.063 A 
ATOM     16  O   UNL     1       4.344  -3.140   2.390  0.00  0.00    -0.453 OA
ATOM     17  C   UNL     1       3.297  -3.562   3.284  0.00  0.00    +0.466 C 
ATOM     18  O   UNL     1       2.237  -2.618   3.041  0.00  0.00    -0.453 OA
BRANCH   5  20
ATOM     19  C   UNL     1       1.396   2.658   3.922  0.00  0.00    +0.027 C 
ATOM     20  C   UNL     1       1.419   2.432   2.409  0.00  0.00    +0.118 C 
ENDBRANCH   5  20
ENDBRANCH   1   7
BRANCH   3  21
ATOM     21  C   UNL     1       5.936   6.426   0.091  0.00  0.00    +0.162 C 
BRANCH  21  22
ATOM     22  C   UNL     1       5.420   7.711   0.686  0.00  0.00    +0.234 C 
ATOM     23  O   UNL     1       4.378   7.715   1.308  0.00  0.00    -0.274 OA
ATOM     24  N   UNL     1       6.115   8.854   0.528  0.00  0.00    -0.315 N 
ATOM     25  H   UNL     1       6.978   8.840   0.086  0.00  0.00    +0.149 HD
BRANCH  24  26
ATOM     26  C   UNL     1       5.566  10.120   1.022  0.00  0.00    +0.089 C 
BRANCH  26  27
ATOM     27  C   UNL     1       5.830  10.238   2.525  0.00  0.00    -0.051 C 
ATOM     28  C   UNL     1       5.294  11.582   3.061  0.00  0.00    -0.016 C 
ATOM     29  C   UNL     1       6.325  12.032   4.117  0.00  0.00    -0.020 C 
ATOM     30  C   UNL     1       7.397  10.921   4.129  0.00  0.00    -0.078 C 
ATOM     31  N   UNL     1       7.267  10.302   2.812  0.00  0.00    +0.382 N 
ATOM     32  H   UNL     1       7.741  10.877   2.106  0.00  0.00    -0.081 HD
BRANCH  31  33
ATOM     33  C   UNL     1       7.862   8.927   2.807  0.00  0.00    -0.082 C 
ATOM     34  C   UNL     1       9.384   9.018   2.945  0.00  0.00    -0.017 C 
ENDBRANCH  31  33
ENDBRANCH  26  27
ENDBRANCH  24  26
ENDBRANCH  21  22
BRANCH  21  35
ATOM     35  C   UNL     1       5.842   6.497  -1.435  0.00  0.00    +0.012 C 
ATOM     36  C   UNL     1       6.802   7.568  -1.956  0.00  0.00    +0.009 C 
ATOM     37  C   UNL     1       6.218   5.139  -2.032  0.00  0.00    +0.009 C 
ENDBRANCH  21  35
ENDBRANCH   3  21
TORSDOF 8
