REMARK  Name = ZINC43754957
REMARK  6 active torsions:
REMARK  status: ('A' for Active; 'I' for Inactive)
REMARK    1  A    between atoms: C_1  and  C_2
REMARK    2  A    between atoms: C_17  and  C_34
REMARK    3  A    between atoms: C_22  and  C_23
REMARK    4  A    between atoms: C_26  and  O_29
REMARK    5  A    between atoms: O_29  and  C_30
REMARK    6  A    between atoms: C_31  and  O_33
REMARK                            x       y       z     vdW  Elec       q    Type
REMARK                         _______ _______ _______ _____ _____    ______ ____
ROOT
ATOM      1  C   UNL     1       0.084   1.450  -0.180  0.00  0.00    +0.012 C 
ATOM      2  C   UNL     1       0.069  -0.085  -0.171  0.00  0.00    -0.026 C 
ATOM      3  C   UNL     1       0.694  -0.617  -1.454  0.00  0.00    +0.007 C 
ATOM      4  C   UNL     1       2.162  -0.198  -1.553  0.00  0.00    +0.001 C 
ATOM      5  C   UNL     1       2.932  -0.719  -0.340  0.00  0.00    +0.000 C 
ATOM      6  C   UNL     1       2.318  -0.170   0.947  0.00  0.00    +0.004 C 
ATOM      7  C   UNL     1       0.849  -0.581   1.049  0.00  0.00    -0.005 C 
ATOM      8  C   UNL     1       0.757  -2.099   1.195  0.00  0.00    +0.004 C 
ATOM      9  C   UNL     1      -0.710  -2.538   1.284  0.00  0.00    +0.004 C 
ATOM     10  C   UNL     1      -1.405  -2.083   0.001  0.00  0.00    -0.003 C 
ATOM     11  C   UNL     1      -1.387  -0.556  -0.048  0.00  0.00    -0.001 C 
ATOM     12  C   UNL     1      -2.265  -0.015  -1.159  0.00  0.00    +0.005 C 
ATOM     13  C   UNL     1      -3.719  -0.497  -1.068  0.00  0.00    +0.010 C 
ATOM     14  C   UNL     1      -3.885  -1.572  -0.029  0.00  0.00    +0.001 C 
ATOM     15  C   UNL     1      -2.776  -2.636  -0.185  0.00  0.00    +0.005 C 
ATOM     16  C   UNL     1      -3.260  -3.747   0.748  0.00  0.00    +0.037 C 
ATOM     17  C   UNL     1      -4.784  -3.682   0.656  0.00  0.00    -0.040 C 
ATOM     18  C   UNL     1      -5.646  -4.501   1.238  0.00  0.00    +0.009 C 
ATOM     19  C   UNL     1      -5.120  -2.486  -0.239  0.00  0.00    +0.147 C 
ATOM     20  C   UNL     1      -3.981  -1.001   1.386  0.00  0.00    +0.014 C 
ENDROOT
BRANCH  18  21
ATOM     21  C   UNL     1      -5.166  -5.521   2.192  0.00  0.00    -0.025 A 
ATOM     22  C   UNL     1      -4.097  -5.236   3.042  0.00  0.00    +0.011 A 
ATOM     23  C   UNL     1      -3.652  -6.191   3.932  0.00  0.00    +0.046 A 
ATOM     24  C   UNL     1      -4.267  -7.435   3.982  0.00  0.00    +0.120 A 
ATOM     25  C   UNL     1      -5.331  -7.723   3.138  0.00  0.00    +0.046 A 
ATOM     26  C   UNL     1      -5.785  -6.771   2.250  0.00  0.00    +0.011 A 
BRANCH  24  27
ATOM     27  O   UNL     1      -3.826  -8.374   4.860  0.00  0.00    -0.495 OA
ATOM     28  C   UNL     1      -4.503  -9.632   4.860  0.00  0.00    +0.277 C 
ENDBRANCH  24  27
ENDBRANCH  18  21
BRANCH  19  29
ATOM     29  O   UNL     1      -5.217  -2.884  -1.605  0.00  0.00    -0.387 OA
ATOM     30  H   UNL     1      -5.972  -3.458  -1.794  0.00  0.00    +0.210 HD
ENDBRANCH  19  29
TORSDOF 3
