REMARK  Name = ZINC02222656
REMARK  8 active torsions:
REMARK  status: ('A' for Active; 'I' for Inactive)
REMARK    1  A    between atoms: C_1  and  N_2
REMARK    2  A    between atoms: N_2  and  C_3
REMARK    3  A    between atoms: N_2  and  C_4
REMARK    4  A    between atoms: C_7  and  C_10
REMARK    5  A    between atoms: N_11  and  N_12
REMARK    6  A    between atoms: C_13  and  N_33
REMARK    7  A    between atoms: C_14  and  S_25
REMARK    8  A    between atoms: S_25  and  C_28
REMARK                            x       y       z     vdW  Elec       q    Type
REMARK                         _______ _______ _______ _____ _____    ______ ____
ROOT
ATOM      1  N   UNL     1       3.434  -0.800  -0.033  0.00  0.00    -0.197 N 
ATOM      2  C   UNL     1       2.891  -2.062  -0.049  0.00  0.00    +0.148 A 
ATOM      3  C   UNL     1       1.538  -2.001  -0.032  0.00  0.00    +0.162 A 
ATOM      4  C   UNL     1       1.160  -0.636  -0.003  0.00  0.00    +0.137 A 
ATOM      5  C   UNL     1       2.413   0.130  -0.005  0.00  0.00    +0.184 A 
ATOM      6  N   UNL     1       2.373   1.443   0.018  0.00  0.00    -0.224 NA
ATOM      7  C   UNL     1       1.192   2.074   0.043  0.00  0.00    +0.092 A 
ATOM      8  C   UNL     1       1.141   3.479   0.068  0.00  0.00    +0.030 A 
ATOM      9  C   UNL     1      -0.063   4.113   0.093  0.00  0.00    +0.002 A 
ATOM     10  C   UNL     1      -1.254   3.389   0.095  0.00  0.00    +0.002 A 
ATOM     11  C   UNL     1      -1.245   2.029   0.066  0.00  0.00    +0.030 A 
ATOM     12  C   UNL     1      -0.019   1.337   0.045  0.00  0.00    +0.090 A 
ATOM     13  N   UNL     1       0.000  -0.000   0.022  0.00  0.00    -0.240 NA
ENDROOT
BRANCH   3  14
ATOM     14  S   UNL     1       0.440  -3.379  -0.043  0.00  0.00    +0.037 S 
ATOM     15  O   UNL     1       1.168  -4.482   0.480  0.00  0.00    -0.164 OA
ATOM     16  O   UNL     1      -0.780  -2.930   0.531  0.00  0.00    -0.164 OA
BRANCH  14  17
ATOM     17  C   UNL     1       0.095  -3.756  -1.729  0.00  0.00    +0.131 A 
ATOM     18  C   UNL     1       0.754  -4.591  -2.569  0.00  0.00    +0.035 A 
ATOM     19  C   UNL     1       0.296  -4.737  -3.865  0.00  0.00    +0.009 A 
ATOM     20  C   UNL     1      -0.792  -4.033  -4.261  0.00  0.00    +0.047 A 
ATOM     21  S   UNL     1      -1.210  -3.133  -2.776  0.00  0.00    -0.078 S 
ENDBRANCH  14  17
ENDBRANCH   3  14
BRANCH   2  22
ATOM     22  N   UNL     1       3.625  -3.235  -0.079  0.00  0.00    -0.341 N 
ATOM     23  H   UNL     1       4.595  -3.200  -0.090  0.00  0.00    +0.144 HD
ATOM     24  H   UNL     1       3.171  -4.091  -0.089  0.00  0.00    +0.144 HD
ENDBRANCH   2  22
BRANCH   1  26
ATOM     25  C   UNL     1       5.451  -0.386   1.074  0.00  0.00    +0.141 C 
ATOM     26  N   UNL     1       4.803  -0.503  -0.044  0.00  0.00    -0.171 NA
BRANCH  25  30
ATOM     27  C   UNL     1       9.600   0.512   1.040  0.00  0.00    +0.029 A 
ATOM     28  C   UNL     1       8.937   0.344   2.251  0.00  0.00    +0.024 A 
ATOM     29  C   UNL     1       7.590   0.053   2.266  0.00  0.00    +0.011 A 
ATOM     30  C   UNL     1       6.891  -0.074   1.062  0.00  0.00    -0.005 A 
ATOM     31  C   UNL     1       7.563   0.090  -0.152  0.00  0.00    +0.011 A 
ATOM     32  C   UNL     1       8.908   0.385  -0.159  0.00  0.00    +0.024 A 
BRANCH  27  34
ATOM     33  C   UNL     1      11.668   1.063   2.288  0.00  0.00    +0.129 C 
ATOM     34  N   UNL     1      10.963   0.806   1.029  0.00  0.00    -0.336 N 
ATOM     35  C   UNL     1      11.691   0.859  -0.241  0.00  0.00    +0.129 C 
ENDBRANCH  27  34
ENDBRANCH  25  30
ENDBRANCH   1  26
TORSDOF 6
