REMARK  Name = ZINC32116697
REMARK  5 active torsions:
REMARK  status: ('A' for Active; 'I' for Inactive)
REMARK    1  A    between atoms: C_3  and  O_30
REMARK    2  A    between atoms: C_6  and  C_7
REMARK    3  A    between atoms: C_11  and  N_16
REMARK    4  A    between atoms: C_17  and  C_19
REMARK    5  A    between atoms: C_22  and  N_26
REMARK                            x       y       z     vdW  Elec       q    Type
REMARK                         _______ _______ _______ _____ _____    ______ ____
ROOT
ATOM      1  C   UNL     1      -1.280  -0.748  -0.007  0.00  0.00    +0.228 A 
ATOM      2  N   UNL     1      -1.369  -2.054   0.001  0.00  0.00    -0.209 NA
ATOM      3  C   UNL     1      -2.682  -2.402   0.009  0.00  0.00    +0.112 A 
ATOM      4  C   UNL     1      -3.354  -3.626   0.019  0.00  0.00    +0.055 A 
ATOM      5  C   UNL     1      -4.737  -3.648   0.025  0.00  0.00    +0.036 A 
ATOM      6  C   UNL     1      -5.458  -2.457   0.021  0.00  0.00    +0.027 A 
ATOM      7  C   UNL     1      -4.803  -1.244   0.011  0.00  0.00    +0.050 A 
ATOM      8  C   UNL     1      -3.417  -1.205   0.006  0.00  0.00    +0.156 A 
ATOM      9  O   UNL     1      -2.510  -0.201   0.001  0.00  0.00    -0.435 OA
ENDROOT
BRANCH   1  15
ATOM     10  C   UNL     1      -0.038   1.410  -0.020  0.00  0.00    +0.017 A 
ATOM     11  C   UNL     1       1.144   2.118  -0.029  0.00  0.00    +0.047 A 
ATOM     12  C   UNL     1       2.359   1.445  -0.036  0.00  0.00    +0.131 A 
ATOM     13  C   UNL     1       2.387   0.055  -0.035  0.00  0.00    +0.060 A 
ATOM     14  C   UNL     1       1.209  -0.660  -0.026  0.00  0.00    +0.032 A 
ATOM     15  C   UNL     1      -0.015   0.014  -0.018  0.00  0.00    +0.038 A 
ATOM     16 BR   UNL     1       4.045  -0.856  -0.045  0.00  0.00    -0.047 Br
BRANCH  12  17
ATOM     17  O   UNL     1       3.522   2.146  -0.045  0.00  0.00    -0.506 OA
ATOM     18  H   UNL     1       3.865   2.351   0.835  0.00  0.00    +0.292 HD
ENDBRANCH  12  17
ENDBRANCH   1  15
BRANCH   5  19
ATOM     19  N   UNL     1      -5.414  -4.874   0.035  0.00  0.00    -0.281 N 
ATOM     20  C   UNL     1      -6.573  -4.997   0.713  0.00  0.00    +0.250 C 
ATOM     21  O   UNL     1      -7.072  -4.025   1.245  0.00  0.00    -0.270 OA
ATOM     22  H   UNL     1      -5.050  -5.633  -0.446  0.00  0.00    +0.155 HD
BRANCH  20  23
ATOM     23  C   UNL     1      -7.235  -6.314   0.808  0.00  0.00    +0.055 A 
ATOM     24  C   UNL     1      -6.661  -7.434   0.203  0.00  0.00    +0.017 A 
ATOM     25  C   UNL     1      -7.285  -8.661   0.296  0.00  0.00    +0.033 A 
ATOM     26  C   UNL     1      -8.477  -8.784   0.988  0.00  0.00    +0.128 A 
ATOM     27  C   UNL     1      -9.053  -7.680   1.591  0.00  0.00    +0.053 A 
ATOM     28  C   UNL     1      -8.436  -6.447   1.510  0.00  0.00    +0.055 A 
ATOM     29 CL   UNL     1      -9.156  -5.063   2.272  0.00  0.00    -0.083 Cl
BRANCH  26  30
ATOM     30  N   UNL     1      -9.140 -10.104   1.083  0.00  0.00    +0.056 N 
ATOM     31  O   UNL     1      -8.640 -11.071   0.557  0.00  0.00    -0.126 OA
ATOM     32  O   UNL     1     -10.182 -10.215   1.686  0.00  0.00    -0.126 OA
ENDBRANCH  26  30
ENDBRANCH  20  23
ENDBRANCH   5  19
TORSDOF 5
