REMARK  Name = ZINC22999649
REMARK  8 active torsions:
REMARK  status: ('A' for Active; 'I' for Inactive)
REMARK    1  A    between atoms: C_1  and  C_2
REMARK    2  A    between atoms: C_5  and  N_11
REMARK    3  A    between atoms: C_6  and  N_8
REMARK    4  A    between atoms: C_12  and  C_14
REMARK    5  A    between atoms: N_16  and  C_17
REMARK    6  A    between atoms: C_17  and  C_18
REMARK    7  A    between atoms: N_21  and  C_24
REMARK    8  A    between atoms: C_24  and  C_25
REMARK                            x       y       z     vdW  Elec       q    Type
REMARK                         _______ _______ _______ _____ _____    ______ ____
ROOT
ATOM      1  C   UNL     1      -3.521   1.925  -0.255  0.00  0.00    +0.299 C 
ATOM      2  O   UNL     1      -3.586   3.136  -0.220  0.00  0.00    -0.265 OA
ATOM      3  N   UNL     1      -4.643   1.193  -0.397  0.00  0.00    -0.307 N 
ATOM      4  H   UNL     1      -4.584   0.095  -0.428  0.00  0.00    +0.149 HD
ENDROOT
BRANCH   1   6
ATOM      5  N   UNL     1      -1.073   1.977   0.001  0.00  0.00    -0.276 N 
ATOM      6  C   UNL     1      -2.196   1.245  -0.141  0.00  0.00    +0.303 C 
ATOM      7  O   UNL     1      -2.130   0.034  -0.176  0.00  0.00    -0.265 OA
ATOM      8  H   UNL     1      -1.139   3.068   0.125  0.00  0.00    +0.155 HD
BRANCH   5  13
ATOM      9  C   UNL     1       4.000  -0.557  -0.061  0.00  0.00    +0.044 C 
ATOM     10  C   UNL     1       2.652   0.115  -0.043  0.00  0.00    -0.048 A 
ATOM     11  C   UNL     1       1.575  -0.480  -0.676  0.00  0.00    +0.005 A 
ATOM     12  C   UNL     1       0.339   0.134  -0.662  0.00  0.00    +0.026 A 
ATOM     13  C   UNL     1       0.176   1.350  -0.011  0.00  0.00    +0.064 A 
ATOM     14  C   UNL     1       1.259   1.945   0.625  0.00  0.00    +0.148 A 
ATOM     15  C   UNL     1       2.493   1.325   0.607  0.00  0.00    +0.038 A 
BRANCH  14  16
ATOM     16  N   UNL     1       1.090   3.241   1.320  0.00  0.00    +0.058 N 
ATOM     17  O   UNL     1       2.058   3.809   1.793  0.00  0.00    -0.126 OA
ATOM     18  O   UNL     1      -0.017   3.739   1.419  0.00  0.00    -0.126 OA
ENDBRANCH  14  16
ENDBRANCH   5  13
ENDBRANCH   1   6
BRANCH   3  19
ATOM     19  C   UNL     1      -5.943   1.859  -0.509  0.00  0.00    +0.108 C 
BRANCH  19  20
ATOM     20  C   UNL     1      -7.044   0.807  -0.659  0.00  0.00    +0.003 C 
ATOM     21  C   UNL     1      -6.864   0.063  -1.985  0.00  0.00    -0.014 C 
ATOM     22  C   UNL     1      -8.002  -0.945  -2.158  0.00  0.00    -0.078 C 
ATOM     23  N   UNL     1      -9.289  -0.238  -2.144  0.00  0.00    +0.384 N 
ATOM     24  C   UNL     1      -9.506   0.445  -0.863  0.00  0.00    -0.078 C 
ATOM     25  C   UNL     1      -8.413   1.495  -0.651  0.00  0.00    -0.014 C 
ATOM     26  H   UNL     1      -9.259   0.529  -2.932  0.00  0.00    -0.081 HD
BRANCH  23  27
ATOM     27  C   UNL     1     -10.396  -1.155  -2.446  0.00  0.00    -0.003 C 
BRANCH  27  28
ATOM     28  C   UNL     1     -10.268  -1.649  -3.864  0.00  0.00    +0.089 A 
ATOM     29  C   UNL     1      -9.598  -2.748  -4.257  0.00  0.00    +0.042 A 
ATOM     30  C   UNL     1      -9.737  -2.832  -5.661  0.00  0.00    +0.041 A 
ATOM     31  C   UNL     1     -10.483  -1.779  -6.043  0.00  0.00    +0.195 A 
ATOM     32  O   UNL     1     -10.806  -1.069  -4.949  0.00  0.00    -0.470 OA
ENDBRANCH  27  28
ENDBRANCH  23  27
ENDBRANCH  19  20
ENDBRANCH   3  19
TORSDOF 7
