REMARK  Name = ZINC12521029
REMARK  9 active torsions:
REMARK  status: ('A' for Active; 'I' for Inactive)
REMARK    1  A    between atoms: C_1  and  C_2
REMARK    2  A    between atoms: C_6  and  N_8
REMARK    3  A    between atoms: N_8  and  S_9
REMARK    4  A    between atoms: S_9  and  C_12
REMARK    5  A    between atoms: C_16  and  C_18
REMARK    6  A    between atoms: N_20  and  C_21
REMARK    7  A    between atoms: C_21  and  C_22
REMARK    8  A    between atoms: C_22  and  C_24
REMARK    9  A    between atoms: C_22  and  N_29
REMARK                            x       y       z     vdW  Elec       q    Type
REMARK                         _______ _______ _______ _____ _____    ______ ____
ROOT
ATOM      1  C   UNL     1       3.291  -4.865   3.074  0.00  0.00    +0.109 A 
ATOM      2  C   UNL     1       3.683  -4.479   1.804  0.00  0.00    +0.029 A 
ATOM      3  C   UNL     1       4.742  -3.604   1.636  0.00  0.00    +0.003 A 
ATOM      4  C   UNL     1       5.415  -3.112   2.735  0.00  0.00    +0.013 A 
ATOM      5  C   UNL     1       5.024  -3.497   4.019  0.00  0.00    +0.039 A 
ATOM      6  C   UNL     1       3.951  -4.375   4.181  0.00  0.00    +0.041 A 
ENDROOT
BRANCH   5   7
ATOM      7  C   UNL     1       5.741  -2.973   5.201  0.00  0.00    +0.244 C 
ATOM      8  O   UNL     1       5.398  -3.310   6.318  0.00  0.00    -0.270 OA
ATOM      9  N   UNL     1       6.773  -2.121   5.041  0.00  0.00    -0.312 N 
ATOM     10  H   UNL     1       7.046  -1.852   4.150  0.00  0.00    +0.149 HD
BRANCH   9  11
ATOM     11  C   UNL     1       7.483  -1.602   6.213  0.00  0.00    +0.097 C 
BRANCH  11  12
ATOM     12  C   UNL     1       8.682  -0.770   5.755  0.00  0.00    +0.016 C 
BRANCH  12  13
ATOM     13  N   UNL     1       9.551  -1.591   4.901  0.00  0.00    +0.387 N 
ATOM     14  C   UNL     1       9.933  -2.811   5.623  0.00  0.00    -0.078 C 
ATOM     15  C   UNL     1      10.771  -3.708   4.710  0.00  0.00    -0.019 C 
ATOM     16  C   UNL     1      12.031  -2.953   4.279  0.00  0.00    -0.004 C 
ATOM     17  C   UNL     1      11.622  -1.646   3.592  0.00  0.00    -0.019 C 
ATOM     18  C   UNL     1      10.752  -0.826   4.547  0.00  0.00    -0.078 C 
ATOM     19  H   UNL     1       9.054  -1.843   4.060  0.00  0.00    -0.081 HD
ENDBRANCH  12  13
BRANCH  12  20
ATOM     20  C   UNL     1       9.459  -0.303   6.959  0.00  0.00    +0.093 A 
ATOM     21  C   UNL     1       9.509   0.960   7.421  0.00  0.00    +0.043 A 
ATOM     22  C   UNL     1      10.347   0.946   8.560  0.00  0.00    +0.041 A 
ATOM     23  C   UNL     1      10.758  -0.324   8.726  0.00  0.00    +0.195 A 
ATOM     24  O   UNL     1      10.213  -1.077   7.756  0.00  0.00    -0.469 OA
ENDBRANCH  12  20
ENDBRANCH  11  12
ENDBRANCH   9  11
ENDBRANCH   5   7
BRANCH   1  25
ATOM     25  S   UNL     1       1.941  -5.978   3.276  0.00  0.00    +0.072 S 
ATOM     26  O   UNL     1       2.116  -6.604   4.540  0.00  0.00    -0.150 OA
ATOM     27  O   UNL     1       1.840  -6.718   2.067  0.00  0.00    -0.150 OA
BRANCH  25  28
ATOM     28  N   UNL     1       0.565  -5.064   3.388  0.00  0.00    -0.216 N 
ATOM     29  H   UNL     1       0.053  -5.057   4.212  0.00  0.00    +0.174 HD
BRANCH  28  35
ATOM     30  C   UNL     1      -1.150  -0.820   1.600  0.00  0.00    +0.044 C 
ATOM     31  C   UNL     1      -0.696  -2.242   1.400  0.00  0.00    -0.049 A 
ATOM     32  C   UNL     1      -0.698  -2.796   0.132  0.00  0.00    +0.003 A 
ATOM     33  C   UNL     1      -0.282  -4.101  -0.056  0.00  0.00    +0.002 A 
ATOM     34  C   UNL     1       0.137  -4.856   1.022  0.00  0.00    +0.024 A 
ATOM     35  C   UNL     1       0.141  -4.303   2.296  0.00  0.00    +0.048 A 
ATOM     36  C   UNL     1      -0.272  -2.990   2.481  0.00  0.00    +0.027 A 
ENDBRANCH  28  35
ENDBRANCH  25  28
ENDBRANCH   1  25
TORSDOF 8
