REMARK  Name = ZINC09233751
REMARK  5 active torsions:
REMARK  status: ('A' for Active; 'I' for Inactive)
REMARK    1  A    between atoms: C_2  and  C_3
REMARK    2  A    between atoms: C_3  and  O_4
REMARK    3  A    between atoms: O_4  and  C_5
REMARK    4  A    between atoms: C_8  and  C_11
REMARK    5  A    between atoms: C_11  and  C_13
REMARK                            x       y       z     vdW  Elec       q    Type
REMARK                         _______ _______ _______ _____ _____    ______ ____
ROOT
ATOM      1  C   UNL     1      -7.078   5.971   0.694  0.00  0.00    +0.066 C 
ATOM      2  C   UNL     1      -8.001   4.947   1.397  0.00  0.00    -0.055 C 
ATOM      3  C   UNL     1      -7.149   4.021   2.282  0.00  0.00    -0.016 C 
ATOM      4  C   UNL     1      -7.094   4.704   3.662  0.00  0.00    -0.020 C 
ATOM      5  C   UNL     1      -7.888   6.015   3.495  0.00  0.00    -0.076 C 
ATOM      6  C   UNL     1      -9.048   7.054   1.650  0.00  0.00    +0.060 C 
ATOM      7  C   UNL     1      -7.966   7.221   0.582  0.00  0.00    +0.085 C 
ATOM      8  C   UNL     1      -7.167   8.478   0.778  0.00  0.00    -0.011 A 
ATOM      9  C   UNL     1      -6.403   8.964   1.815  0.00  0.00    +0.006 A 
ATOM     10  C   UNL     1      -5.771  10.189   1.696  0.00  0.00    +0.000 A 
ATOM     11  C   UNL     1      -5.910  10.925   0.533  0.00  0.00    +0.002 A 
ATOM     12  C   UNL     1      -6.673  10.442  -0.509  0.00  0.00    +0.023 A 
ATOM     13  C   UNL     1      -7.312   9.210  -0.397  0.00  0.00    +0.038 A 
ATOM     14  N   UNL     1      -8.127   8.519  -1.298  0.00  0.00    -0.285 N 
ATOM     15  C   UNL     1      -8.553   7.343  -0.798  0.00  0.00    +0.228 C 
ATOM     16  O   UNL     1      -9.271   6.539  -1.354  0.00  0.00    -0.275 OA
ATOM     17  C   UNL     1     -10.426   7.075   1.044  0.00  0.00    -0.027 A 
ATOM     18  C   UNL     1     -11.055   6.292   0.102  0.00  0.00    +0.004 A 
ATOM     19  C   UNL     1     -12.362   6.564  -0.262  0.00  0.00    +0.000 A 
ATOM     20  C   UNL     1     -13.033   7.623   0.322  0.00  0.00    +0.002 A 
ATOM     21  C   UNL     1     -12.406   8.410   1.266  0.00  0.00    +0.023 A 
ATOM     22  C   UNL     1     -11.090   8.142   1.638  0.00  0.00    +0.036 A 
ATOM     23  N   UNL     1     -10.254   8.783   2.554  0.00  0.00    -0.286 N 
ATOM     24  C   UNL     1      -9.039   8.207   2.622  0.00  0.00    +0.212 C 
ATOM     25  O   UNL     1      -8.115   8.550   3.329  0.00  0.00    -0.277 OA
ATOM     26  H   UNL     1      -8.358   8.848  -2.180  0.00  0.00    +0.155 HD
ATOM     27  H   UNL     1     -10.517   9.553   3.082  0.00  0.00    +0.155 HD
ATOM     28  N   UNL     1      -8.746   5.777   2.325  0.00  0.00    +0.395 N 
ATOM     29  H   UNL     1      -9.616   5.313   2.611  0.00  0.00    -0.079 HD
ENDROOT
BRANCH   1  30
ATOM     30  C   UNL     1      -5.860   6.256   1.535  0.00  0.00    +0.166 C 
ATOM     31  O   UNL     1      -5.893   6.070   2.733  0.00  0.00    -0.292 OA
BRANCH  30  35
ATOM     32  C   UNL     1      -2.321   7.705  -0.285  0.00  0.00    +0.121 A 
ATOM     33  C   UNL     1      -3.445   7.449  -1.063  0.00  0.00    +0.046 A 
ATOM     34  C   UNL     1      -4.592   6.974  -0.479  0.00  0.00    +0.015 A 
ATOM     35  C   UNL     1      -4.633   6.758   0.904  0.00  0.00    +0.018 A 
ATOM     36  C   UNL     1      -3.500   7.024   1.683  0.00  0.00    +0.015 A 
ATOM     37  C   UNL     1      -2.357   7.493   1.089  0.00  0.00    +0.046 A 
BRANCH  32  38
ATOM     38  O   UNL     1      -1.188   8.170  -0.869  0.00  0.00    -0.488 OA
BRANCH  38  39
ATOM     39  C   UNL     1      -1.219   8.366  -2.284  0.00  0.00    +0.256 C 
BRANCH  39  41
ATOM     40  C   UNL     1       0.681   8.371  -3.817  0.00  0.00    +0.007 C 
ATOM     41  C   UNL     1       0.118   8.881  -2.750  0.00  0.00    +0.006 C 
ENDBRANCH  39  41
ENDBRANCH  38  39
ENDBRANCH  32  38
ENDBRANCH  30  35
ENDBRANCH   1  30
TORSDOF 5
