REMARK  Name = ZINC39693396
REMARK  10 active torsions:
REMARK  status: ('A' for Active; 'I' for Inactive)
REMARK    1  A    between atoms: C_1  and  C_2
REMARK    2  A    between atoms: C_2  and  C_3
REMARK    3  A    between atoms: C_2  and  C_4
REMARK    4  A    between atoms: C_2  and  O_5
REMARK    5  A    between atoms: O_5  and  C_6
REMARK    6  A    between atoms: N_8  and  C_9
REMARK    7  A    between atoms: C_9  and  C_10
REMARK    8  A    between atoms: C_10  and  N_11
REMARK    9  A    between atoms: C_12  and  C_14
REMARK   10  A    between atoms: C_25  and  C_27
REMARK                            x       y       z     vdW  Elec       q    Type
REMARK                         _______ _______ _______ _____ _____    ______ ____
ROOT
ATOM      1  C   UNL     1       7.617   0.075  -5.702  0.00  0.00    +0.100 C 
ATOM      2  C   UNL     1       7.980   1.575  -5.767  0.00  0.00    +0.121 C 
ATOM      3  N   UNL     1       9.103   1.647  -6.732  0.00  0.00    -0.296 N 
ATOM      4  C   UNL     1       8.739   0.678  -7.793  0.00  0.00    +0.115 C 
ATOM      5  C   UNL     1       8.116  -0.510  -7.034  0.00  0.00    -0.004 C 
ATOM      6  C   UNL     1       9.169  -1.584  -6.777  0.00  0.00    -0.010 C 
ATOM      7  C   UNL     1       9.609  -2.190  -8.113  0.00  0.00    -0.082 C 
ATOM      8  N   UNL     1       8.446  -2.770  -8.796  0.00  0.00    +0.379 N 
ATOM      9  C   UNL     1       7.478  -1.716  -9.121  0.00  0.00    -0.082 C 
ATOM     10  C   UNL     1       6.949  -1.089  -7.828  0.00  0.00    -0.010 C 
ATOM     11  C   UNL     1      10.205   2.419  -6.660  0.00  0.00    +0.247 C 
ATOM     12  O   UNL     1      10.425   3.074  -5.660  0.00  0.00    -0.270 OA
ATOM     13  H   UNL     1       8.747  -3.222  -9.646  0.00  0.00    -0.086 HD
ATOM     14  H   UNL     1       8.009  -3.451  -8.193  0.00  0.00    -0.086 HD
ENDROOT
BRANCH  11  15
ATOM     15  C   UNL     1      11.147   2.470  -7.798  0.00  0.00    +0.037 A 
ATOM     16  C   UNL     1      10.707   2.108  -9.085  0.00  0.00    +0.013 A 
ATOM     17  C   UNL     1      11.553   2.146 -10.145  0.00  0.00    +0.009 A 
ATOM     18  C   UNL     1      12.888   2.550  -9.967  0.00  0.00    -0.018 A 
ATOM     19  C   UNL     1      13.782   2.598 -11.050  0.00  0.00    +0.008 A 
ATOM     20  C   UNL     1      15.069   2.994 -10.846  0.00  0.00    +0.001 A 
ATOM     21  C   UNL     1      15.517   3.354  -9.576  0.00  0.00    +0.001 A 
ATOM     22  C   UNL     1      14.680   3.321  -8.503  0.00  0.00    +0.008 A 
ATOM     23  C   UNL     1      13.344   2.917  -8.675  0.00  0.00    -0.017 A 
ATOM     24  C   UNL     1      12.454   2.878  -7.591  0.00  0.00    +0.021 A 
ENDBRANCH  11  15
BRANCH   1  26
ATOM     25  N   UNL     1       5.622  -1.167  -4.930  0.00  0.00    -0.314 N 
ATOM     26  C   UNL     1       6.125  -0.099  -5.579  0.00  0.00    +0.218 C 
ATOM     27  O   UNL     1       5.377   0.723  -6.064  0.00  0.00    -0.275 OA
ATOM     28  H   UNL     1       6.220  -1.825  -4.542  0.00  0.00    +0.149 HD
BRANCH  25  29
ATOM     29  C   UNL     1       4.171  -1.336  -4.811  0.00  0.00    +0.123 C 
BRANCH  29  30
ATOM     30  C   UNL     1       3.869  -2.619  -4.035  0.00  0.00    +0.126 C 
BRANCH  30  33
ATOM     31  C   UNL     1       1.916  -3.857  -3.266  0.00  0.00    +0.401 C 
ATOM     32  O   UNL     1       2.666  -4.680  -2.780  0.00  0.00    -0.226 OA
ATOM     33  N   UNL     1       2.419  -2.788  -3.915  0.00  0.00    -0.280 N 
ATOM     34  H   UNL     1       1.821  -2.131  -4.303  0.00  0.00    +0.152 HD
BRANCH  31  35
ATOM     35  O   UNL     1       0.583  -4.012  -3.156  0.00  0.00    -0.445 OA
BRANCH  35  37
ATOM     36  C   UNL     1       0.650  -5.140  -1.020  0.00  0.00    +0.055 C 
ATOM     37  C   UNL     1       0.120  -5.167  -2.455  0.00  0.00    +0.107 C 
ATOM     38  C   UNL     1       0.624  -6.428  -3.161  0.00  0.00    +0.055 C 
ATOM     39  C   UNL     1      -1.410  -5.172  -2.433  0.00  0.00    +0.055 C 
ENDBRANCH  35  37
ENDBRANCH  31  35
ENDBRANCH  30  33
ENDBRANCH  29  30
ENDBRANCH  25  29
ENDBRANCH   1  26
TORSDOF 7
