REMARK  Name = ZINC39657751
REMARK  8 active torsions:
REMARK  status: ('A' for Active; 'I' for Inactive)
REMARK    1  A    between atoms: C_4  and  S_30
REMARK    2  A    between atoms: C_5  and  C_7
REMARK    3  A    between atoms: C_7  and  N_8
REMARK    4  A    between atoms: C_9  and  C_11
REMARK    5  A    between atoms: C_22  and  C_24
REMARK    6  A    between atoms: S_30  and  C_31
REMARK    7  A    between atoms: C_36  and  C_37
REMARK    8  A    between atoms: C_37  and  O_38
REMARK                            x       y       z     vdW  Elec       q    Type
REMARK                         _______ _______ _______ _____ _____    ______ ____
ROOT
ATOM      1  N   UNL     1       2.934  -3.305   1.143  0.00  0.00    -0.311 N 
ATOM      2  C   UNL     1       1.821  -3.770   1.742  0.00  0.00    +0.218 C 
ATOM      3  O   UNL     1       0.737  -3.599   1.225  0.00  0.00    -0.275 OA
ATOM      4  H   UNL     1       3.801  -3.443   1.556  0.00  0.00    +0.149 HD
ENDROOT
BRANCH   2   5
ATOM      5  C   UNL     1       1.922  -4.504   3.055  0.00  0.00    +0.100 C 
ATOM      6  C   UNL     1       0.564  -4.476   3.792  0.00  0.00    +0.121 C 
ATOM      7  N   UNL     1      -0.092  -5.750   3.416  0.00  0.00    -0.296 N 
ATOM      8  C   UNL     1       1.006  -6.745   3.418  0.00  0.00    +0.115 C 
ATOM      9  C   UNL     1       2.210  -5.995   2.814  0.00  0.00    -0.004 C 
ATOM     10  C   UNL     1       3.498  -6.405   3.522  0.00  0.00    -0.010 C 
ATOM     11  C   UNL     1       3.795  -7.877   3.221  0.00  0.00    -0.082 C 
ATOM     12  N   UNL     1       3.929  -8.063   1.771  0.00  0.00    +0.379 N 
ATOM     13  C   UNL     1       2.657  -7.755   1.106  0.00  0.00    -0.082 C 
ATOM     14  C   UNL     1       2.312  -6.279   1.319  0.00  0.00    -0.010 C 
ATOM     15  C   UNL     1      -1.394  -5.957   3.136  0.00  0.00    +0.248 C 
ATOM     16  O   UNL     1      -2.161  -5.016   3.080  0.00  0.00    -0.270 OA
ATOM     17  H   UNL     1       4.648  -7.449   1.419  0.00  0.00    -0.086 HD
ATOM     18  H   UNL     1       4.185  -9.020   1.579  0.00  0.00    -0.086 HD
BRANCH  15  19
ATOM     19  C   UNL     1      -1.889  -7.330   2.897  0.00  0.00    +0.055 A 
ATOM     20  C   UNL     1      -1.201  -8.435   3.411  0.00  0.00    +0.016 A 
ATOM     21  C   UNL     1      -1.706  -9.698   3.159  0.00  0.00    +0.020 A 
ATOM     22  C   UNL     1      -2.865  -9.827   2.414  0.00  0.00    +0.111 A 
ATOM     23  N   UNL     1      -3.493  -8.767   1.942  0.00  0.00    -0.263 NA
ATOM     24  C   UNL     1      -3.054  -7.545   2.159  0.00  0.00    +0.123 A 
ENDBRANCH  15  19
ENDBRANCH   2   5
BRANCH   1  25
ATOM     25  C   UNL     1       2.836  -2.592  -0.133  0.00  0.00    +0.140 C 
BRANCH  25  30
ATOM     26  C   UNL     1       5.912  -0.507  -0.802  0.00  0.00    +0.000 A 
ATOM     27  C   UNL     1       6.745  -1.424  -1.419  0.00  0.00    +0.001 A 
ATOM     28  C   UNL     1       6.316  -2.720  -1.623  0.00  0.00    +0.015 A 
ATOM     29  C   UNL     1       5.047  -3.104  -1.206  0.00  0.00    +0.017 A 
ATOM     30  C   UNL     1       4.214  -2.181  -0.586  0.00  0.00    -0.017 A 
ATOM     31  C   UNL     1       4.649  -0.886  -0.386  0.00  0.00    +0.006 A 
BRANCH  29  32
ATOM     32  S   UNL     1       4.495  -4.758  -1.464  0.00  0.00    -0.089 S 
BRANCH  32  33
ATOM     33  C   UNL     1       5.787  -5.496  -2.408  0.00  0.00    +0.018 A 
ATOM     34  C   UNL     1       6.674  -6.379  -1.803  0.00  0.00    +0.015 A 
ATOM     35  C   UNL     1       7.685  -6.955  -2.545  0.00  0.00    +0.001 A 
ATOM     36  C   UNL     1       7.816  -6.656  -3.889  0.00  0.00    +0.000 A 
ATOM     37  C   UNL     1       6.936  -5.778  -4.494  0.00  0.00    +0.007 A 
ATOM     38  C   UNL     1       5.919  -5.201  -3.759  0.00  0.00    -0.008 A 
BRANCH  38  39
ATOM     39  C   UNL     1       4.956  -4.249  -4.421  0.00  0.00    +0.192 C 
BRANCH  39  40
ATOM     40  O   UNL     1       5.296  -4.110  -5.802  0.00  0.00    -0.390 OA
ATOM     41  H   UNL     1       4.717  -3.510  -6.291  0.00  0.00    +0.210 HD
ENDBRANCH  39  40
ENDBRANCH  38  39
ENDBRANCH  32  33
ENDBRANCH  29  32
ENDBRANCH  25  30
ENDBRANCH   1  25
TORSDOF 8
