REMARK  Name = ZINC14710879
REMARK  14 active torsions:
REMARK  status: ('A' for Active; 'I' for Inactive)
REMARK    1  A    between atoms: C_1  and  C_2
REMARK    2  A    between atoms: C_4  and  N_25
REMARK    3  A    between atoms: C_6  and  C_7
REMARK    4  A    between atoms: C_7  and  O_9
REMARK    5  A    between atoms: O_9  and  C_10
REMARK    6  A    between atoms: C_10  and  C_11
REMARK    7  A    between atoms: C_12  and  C_21
REMARK    8  A    between atoms: C_13  and  N_20
REMARK    9  A    between atoms: C_15  and  C_16
REMARK   10  A    between atoms: C_16  and  O_18
REMARK   11  A    between atoms: O_18  and  C_19
REMARK   12  A    between atoms: C_21  and  O_23
REMARK   13  A    between atoms: O_23  and  C_24
REMARK   14  A    between atoms: C_26  and  C_28
REMARK                            x       y       z     vdW  Elec       q    Type
REMARK                         _______ _______ _______ _____ _____    ______ ____
ROOT
ATOM      1  O   UNL     1      -0.149   3.404  -2.922  0.00  0.00    -0.456 OA
ENDROOT
BRANCH   1   2
ATOM      2  C   UNL     1      -0.360   2.796  -4.108  0.00  0.00    +0.346 C 
ATOM      3  O   UNL     1       0.585   2.419  -4.775  0.00  0.00    -0.244 OA
BRANCH   2   9
ATOM      4  C   UNL     1      -1.127   1.460  -6.762  0.00  0.00    +0.045 C 
ATOM      5  C   UNL     1      -2.109   2.006  -5.758  0.00  0.00    -0.028 A 
ATOM      6  C   UNL     1      -3.459   1.935  -5.971  0.00  0.00    +0.035 A 
ATOM      7  C   UNL     1      -4.310   2.457  -5.019  0.00  0.00    +0.073 A 
ATOM      8  S   UNL     1      -3.224   3.050  -3.804  0.00  0.00    -0.067 S 
ATOM      9  C   UNL     1      -1.681   2.598  -4.576  0.00  0.00    +0.101 A 
BRANCH   7  10
ATOM     10  N   UNL     1      -5.697   2.497  -5.031  0.00  0.00    -0.273 N 
ATOM     11  C   UNL     1      -6.363   3.054  -4.000  0.00  0.00    +0.284 C 
ATOM     12  O   UNL     1      -5.749   3.520  -3.059  0.00  0.00    -0.266 OA
ATOM     13  H   UNL     1      -6.186   2.126  -5.781  0.00  0.00    +0.156 HD
BRANCH  11  14
ATOM     14  C   UNL     1      -7.829   3.096  -4.013  0.00  0.00    +0.189 A 
ATOM     15  C   UNL     1      -8.625   3.628  -3.039  0.00  0.00    +0.054 A 
ATOM     16  C   UNL     1      -9.951   3.454  -3.462  0.00  0.00    +0.042 A 
ATOM     17  C   UNL     1      -9.908   2.831  -4.661  0.00  0.00    +0.196 A 
ATOM     18  O   UNL     1      -8.627   2.623  -4.992  0.00  0.00    -0.458 OA
ENDBRANCH  11  14
ENDBRANCH   7  10
ENDBRANCH   2   9
ENDBRANCH   1   2
BRANCH   1  19
ATOM     19  C   UNL     1       1.210   3.572  -2.511  0.00  0.00    +0.270 C 
BRANCH  19  20
ATOM     20  C   UNL     1       1.249   4.264  -1.173  0.00  0.00    +0.027 A 
ATOM     21  C   UNL     1       1.232   3.541   0.009  0.00  0.00    +0.094 A 
ATOM     22  C   UNL     1       1.266   4.260   1.212  0.00  0.00    +0.078 A 
ATOM     23  S   UNL     1       1.330   5.907   0.677  0.00  0.00    -0.066 S 
ATOM     24  C   UNL     1       1.302   5.630  -1.083  0.00  0.00    +0.105 A 
BRANCH  22  25
ATOM     25  N   UNL     1       1.254   3.776   2.499  0.00  0.00    -0.352 N 
ATOM     26  H   UNL     1       1.217   2.820   2.658  0.00  0.00    +0.143 HD
ATOM     27  H   UNL     1       1.281   4.392   3.248  0.00  0.00    +0.143 HD
ENDBRANCH  22  25
BRANCH  24  28
ATOM     28  C   UNL     1       1.329   6.614  -2.163  0.00  0.00    +0.346 C 
ATOM     29  O   UNL     1       1.304   6.247  -3.322  0.00  0.00    -0.244 OA
BRANCH  28  30
ATOM     30  O   UNL     1       1.383   7.931  -1.873  0.00  0.00    -0.464 OA
ATOM     31  C   UNL     1       1.407   8.838  -2.978  0.00  0.00    +0.280 C 
ENDBRANCH  28  30
ENDBRANCH  24  28
BRANCH  21  32
ATOM     32  C   UNL     1       1.175   2.076   0.002  0.00  0.00    +0.342 C 
ATOM     33  O   UNL     1       2.204   1.428  -0.011  0.00  0.00    -0.245 OA
BRANCH  32  34
ATOM     34  O   UNL     1      -0.018   1.448   0.010  0.00  0.00    -0.464 OA
ATOM     35  C   UNL     1       0.002  -0.004   0.002  0.00  0.00    +0.280 C 
ENDBRANCH  32  34
ENDBRANCH  21  32
ENDBRANCH  19  20
ENDBRANCH   1  19
TORSDOF 11
