REMARK  Name = ZINC39674277
REMARK  8 active torsions:
REMARK  status: ('A' for Active; 'I' for Inactive)
REMARK    1  A    between atoms: C_1  and  C_2
REMARK    2  A    between atoms: C_4  and  C_9
REMARK    3  A    between atoms: C_5  and  C_8
REMARK    4  A    between atoms: C_9  and  C_11
REMARK    5  A    between atoms: C_9  and  N_12
REMARK    6  A    between atoms: C_13  and  C_15
REMARK    7  A    between atoms: C_26  and  C_28
REMARK    8  A    between atoms: C_30  and  C_35
REMARK                            x       y       z     vdW  Elec       q    Type
REMARK                         _______ _______ _______ _____ _____    ______ ____
ROOT
ATOM      1  C   UNL     1      -2.599  -1.590  -5.197  0.00  0.00    +0.100 C 
ATOM      2  C   UNL     1      -3.485  -2.729  -4.645  0.00  0.00    +0.121 C 
ATOM      3  N   UNL     1      -4.263  -3.198  -5.815  0.00  0.00    -0.296 N 
ATOM      4  C   UNL     1      -3.297  -3.163  -6.939  0.00  0.00    +0.115 C 
ATOM      5  C   UNL     1      -2.477  -1.879  -6.703  0.00  0.00    -0.004 C 
ATOM      6  C   UNL     1      -1.017  -2.109  -7.081  0.00  0.00    -0.010 C 
ATOM      7  C   UNL     1      -0.916  -2.336  -8.592  0.00  0.00    -0.082 C 
ATOM      8  N   UNL     1      -1.447  -1.166  -9.302  0.00  0.00    +0.379 N 
ATOM      9  C   UNL     1      -2.876  -1.007  -9.005  0.00  0.00    -0.082 C 
ATOM     10  C   UNL     1      -3.061  -0.723  -7.511  0.00  0.00    -0.010 C 
ATOM     11  C   UNL     1      -5.558  -3.573  -5.850  0.00  0.00    +0.247 C 
ATOM     12  O   UNL     1      -6.255  -3.443  -4.862  0.00  0.00    -0.270 OA
ATOM     13  H   UNL     1      -0.949  -0.340  -9.005  0.00  0.00    -0.086 HD
ATOM     14  H   UNL     1      -1.323  -1.292 -10.295  0.00  0.00    -0.086 HD
ENDROOT
BRANCH  11  15
ATOM     15  C   UNL     1      -6.130  -4.141  -7.089  0.00  0.00    +0.040 A 
ATOM     16  C   UNL     1      -7.510  -4.120  -7.298  0.00  0.00    +0.025 A 
ATOM     17  C   UNL     1      -8.039  -4.651  -8.456  0.00  0.00    +0.058 A 
ATOM     18  C   UNL     1      -7.205  -5.205  -9.411  0.00  0.00    +0.050 A 
ATOM     19  C   UNL     1      -5.834  -5.231  -9.210  0.00  0.00    +0.125 A 
ATOM     20  C   UNL     1      -5.292  -4.697  -8.057  0.00  0.00    +0.051 A 
ATOM     21  F   UNL     1      -5.026  -5.775 -10.146  0.00  0.00    -0.205 F 
BRANCH  17  22
ATOM     22  C   UNL     1      -9.528  -4.628  -8.681  0.00  0.00    +0.418 C 
ATOM     23  F   UNL     1      -9.882  -3.445  -9.340  0.00  0.00    -0.166 F 
ATOM     24  F   UNL     1      -9.899  -5.726  -9.465  0.00  0.00    -0.166 F 
ATOM     25  F   UNL     1     -10.188  -4.691  -7.449  0.00  0.00    -0.166 F 
ENDBRANCH  17  22
ENDBRANCH  11  15
BRANCH   1  27
ATOM     26  N   UNL     1      -0.495  -0.498  -4.490  0.00  0.00    -0.309 N 
ATOM     27  C   UNL     1      -1.240  -1.619  -4.546  0.00  0.00    +0.219 C 
ATOM     28  O   UNL     1      -0.817  -2.653  -4.073  0.00  0.00    -0.275 OA
ATOM     29  H   UNL     1      -0.833   0.329  -4.869  0.00  0.00    +0.149 HD
BRANCH  26  30
ATOM     30  C   UNL     1       0.826  -0.526  -3.857  0.00  0.00    +0.100 C 
ATOM     31  C   UNL     1       1.869  -0.993  -4.875  0.00  0.00    +0.033 C 
BRANCH  30  34
ATOM     32  C   UNL     1       2.184   2.081  -5.317  0.00  0.00    +0.039 C 
ATOM     33  C   UNL     1       1.183   2.153  -4.162  0.00  0.00    +0.154 C 
ATOM     34  C   UNL     1       1.181   0.856  -3.372  0.00  0.00    -0.001 C 
ATOM     35  C   UNL     1       1.565   1.224  -2.148  0.00  0.00    +0.063 C 
ATOM     36  N   UNL     1       1.796   2.555  -2.098  0.00  0.00    -0.159 NA
ATOM     37  N   UNL     1       1.608   3.151  -3.166  0.00  0.00    -0.180 NA
ATOM     38  C   UNL     1       1.721   0.283  -0.981  0.00  0.00    +0.067 C 
ENDBRANCH  30  34
ENDBRANCH  26  30
ENDBRANCH   1  27
TORSDOF 5
