REMARK  Name = ZINC36569256
REMARK  13 active torsions:
REMARK  status: ('A' for Active; 'I' for Inactive)
REMARK    1  A    between atoms: C_1  and  C_2
REMARK    2  A    between atoms: C_2  and  C_3
REMARK    3  A    between atoms: C_3  and  C_5
REMARK    4  A    between atoms: C_3  and  C_6
REMARK    5  A    between atoms: C_6  and  C_8
REMARK    6  A    between atoms: C_6  and  N_21
REMARK    7  A    between atoms: N_10  and  C_11
REMARK    8  A    between atoms: C_13  and  C_19
REMARK    9  A    between atoms: C_13  and  C_20
REMARK   10  A    between atoms: C_15  and  C_17
REMARK   11  A    between atoms: C_15  and  C_18
REMARK   12  A    between atoms: C_22  and  C_24
REMARK   13  A    between atoms: C_25  and  O_34
REMARK                            x       y       z     vdW  Elec       q    Type
REMARK                         _______ _______ _______ _____ _____    ______ ____
ROOT
ATOM      1  C   UNL     1       1.875  -0.045  -1.605  0.00  0.00    +0.162 C 
ENDROOT
BRANCH   1   2
ATOM      2  C   UNL     1       1.862   1.421  -1.258  0.00  0.00    +0.234 C 
ATOM      3  O   UNL     1       2.401   2.223  -1.991  0.00  0.00    -0.274 OA
ATOM      4  N   UNL     1       1.250   1.842  -0.133  0.00  0.00    -0.311 N 
ATOM      5  H   UNL     1       0.884   1.195   0.491  0.00  0.00    +0.149 HD
BRANCH   4   6
ATOM      6  C   UNL     1       1.138   3.279   0.149  0.00  0.00    +0.070 C 
ATOM      7  C   UNL     1      -0.122   3.826  -0.525  0.00  0.00    +0.009 C 
ATOM      8  C   UNL     1      -0.259   5.319  -0.231  0.00  0.00    -0.072 C 
ATOM      9  N   UNL     1      -0.222   5.602   1.196  0.00  0.00    +0.386 N 
ATOM     10  C   UNL     1       0.822   4.966   1.984  0.00  0.00    -0.072 C 
ATOM     11  C   UNL     1       1.005   3.487   1.657  0.00  0.00    +0.009 C 
ATOM     12  C   UNL     1       0.402   5.057   3.471  0.00  0.00    -0.010 C 
ATOM     13  C   UNL     1       2.159   5.699   1.852  0.00  0.00    -0.010 C 
ATOM     14  C   UNL     1       0.797   6.109  -1.002  0.00  0.00    -0.010 C 
ATOM     15  C   UNL     1      -1.642   5.765  -0.759  0.00  0.00    -0.010 C 
ATOM     16  H   UNL     1      -0.147   6.615   1.321  0.00  0.00    -0.084 HD
ATOM     17  H   UNL     1      -1.128   5.349   1.598  0.00  0.00    -0.084 HD
ENDBRANCH   4   6
ENDBRANCH   1   2
BRANCH   1  18
ATOM     18  N   UNL     1       2.972  -0.316  -2.538  0.00  0.00    -0.299 N 
ATOM     19  C   UNL     1       3.509  -1.551  -2.607  0.00  0.00    +0.264 C 
ATOM     20  O   UNL     1       3.034  -2.459  -1.947  0.00  0.00    -0.269 OA
ATOM     21  H   UNL     1       3.312   0.393  -3.105  0.00  0.00    +0.150 HD
BRANCH  19  22
ATOM     22  C   UNL     1       4.616  -1.790  -3.440  0.00  0.00    +0.152 C 
ATOM     23  C   UNL     1       5.114  -3.053  -3.569  0.00  0.00    +0.209 C 
ATOM     24  N   UNL     1       6.197  -3.294  -4.385  0.00  0.00    -0.283 N 
ATOM     25  C   UNL     1       6.970  -2.220  -4.854  0.00  0.00    +0.055 A 
ATOM     26  C   UNL     1       8.210  -2.439  -5.426  0.00  0.00    +0.025 A 
ATOM     27  C   UNL     1       8.958  -1.366  -5.883  0.00  0.00    +0.002 A 
ATOM     28  C   UNL     1       8.470  -0.078  -5.769  0.00  0.00    +0.002 A 
ATOM     29  C   UNL     1       7.229   0.149  -5.196  0.00  0.00    +0.025 A 
ATOM     30  C   UNL     1       6.478  -0.919  -4.738  0.00  0.00    +0.053 A 
ATOM     31  N   UNL     1       5.217  -0.717  -4.155  0.00  0.00    -0.305 N 
ATOM     32  H   UNL     1       4.766   0.137  -4.236  0.00  0.00    +0.152 HD
ATOM     33  H   UNL     1       6.424  -4.203  -4.635  0.00  0.00    +0.155 HD
BRANCH  23  34
ATOM     34  O   UNL     1       4.542  -4.073  -2.893  0.00  0.00    -0.494 OA
ATOM     35  H   UNL     1       4.961  -4.931  -3.046  0.00  0.00    +0.294 HD
ENDBRANCH  23  34
ENDBRANCH  19  22
ENDBRANCH   1  18
BRANCH   1  36
ATOM     36  C   UNL     1       0.545  -0.427  -2.258  0.00  0.00    +0.015 C 
ATOM     37  C   UNL     1       0.417   0.282  -3.607  0.00  0.00    +0.010 C 
BRANCH  36  39
ATOM     38  C   UNL     1       0.463  -2.647  -1.114  0.00  0.00    +0.004 C 
ATOM     39  C   UNL     1       0.498  -1.942  -2.471  0.00  0.00    +0.002 C 
ENDBRANCH  36  39
ENDBRANCH   1  36
TORSDOF 7
