REMARK  Name = ZINC64705015
REMARK  13 active torsions:
REMARK  status: ('A' for Active; 'I' for Inactive)
REMARK    1  A    between atoms: C_1  and  C_2
REMARK    2  A    between atoms: C_4  and  C_10
REMARK    3  A    between atoms: C_5  and  N_8
REMARK    4  A    between atoms: N_8  and  C_9
REMARK    5  A    between atoms: C_10  and  O_12
REMARK    6  A    between atoms: O_12  and  C_13
REMARK    7  A    between atoms: C_13  and  C_14
REMARK    8  A    between atoms: N_16  and  C_17
REMARK    9  A    between atoms: C_17  and  C_19
REMARK   10  A    between atoms: C_17  and  C_29
REMARK   11  A    between atoms: C_19  and  C_20
REMARK   12  A    between atoms: C_29  and  O_31
REMARK   13  A    between atoms: O_31  and  C_32
REMARK                            x       y       z     vdW  Elec       q    Type
REMARK                         _______ _______ _______ _____ _____    ______ ____
ROOT
ATOM      1  C   UNL     1      -1.615   0.382  -4.727  0.00  0.00    +0.251 C 
ATOM      2  O   UNL     1      -0.475   0.765  -4.573  0.00  0.00    -0.272 OA
ATOM      3  N   UNL     1      -2.183   0.427  -5.948  0.00  0.00    -0.299 N 
ATOM      4  H   UNL     1      -3.095   0.121  -6.071  0.00  0.00    +0.150 HD
ENDROOT
BRANCH   1   5
ATOM      5  C   UNL     1      -2.398  -0.145  -3.551  0.00  0.00    +0.328 C 
BRANCH   5   6
ATOM      6  O   UNL     1      -1.587  -0.092  -2.376  0.00  0.00    -0.452 OA
BRANCH   6   7
ATOM      7  C   UNL     1      -2.143  -0.531  -1.226  0.00  0.00    +0.339 C 
ATOM      8  O   UNL     1      -3.288  -0.948  -1.224  0.00  0.00    -0.245 OA
BRANCH   7  11
ATOM      9  C   UNL     1      -0.019   1.526   0.010  0.00  0.00    +0.030 C 
ATOM     10  C   UNL     1       0.002  -0.004   0.002  0.00  0.00    +0.101 C 
ATOM     11  C   UNL     1      -1.405  -0.507  -0.038  0.00  0.00    +0.082 C 
ATOM     12  C   UNL     1      -1.940  -0.948   1.157  0.00  0.00    +0.088 C 
ATOM     13  S   UNL     1      -0.619  -0.741   2.337  0.00  0.00    -0.027 S 
ATOM     14  N   UNL     1       0.736  -0.482   1.200  0.00  0.00    -0.251 NA
ATOM     15  H   UNL     1       1.217  -1.348   1.008  0.00  0.00    +0.136 HD
BRANCH  12  16
ATOM     16  N   UNL     1      -3.202  -1.433   1.385  0.00  0.00    -0.340 N 
ATOM     17  C   UNL     1      -3.592  -1.856   2.733  0.00  0.00    +0.126 C 
ATOM     18  H   UNL     1      -3.836  -1.497   0.654  0.00  0.00    +0.146 HD
ENDBRANCH  12  16
ENDBRANCH   7  11
ENDBRANCH   6   7
ENDBRANCH   5   6
ENDBRANCH   1   5
BRANCH   3  19
ATOM     19  C   UNL     1      -1.422   0.940  -7.091  0.00  0.00    +0.186 C 
BRANCH  19  20
ATOM     20  C   UNL     1      -0.589  -0.171  -7.678  0.00  0.00    +0.328 C 
ATOM     21  O   UNL     1      -0.626  -1.276  -7.191  0.00  0.00    -0.249 OA
BRANCH  20  22
ATOM     22  O   UNL     1       0.196   0.069  -8.740  0.00  0.00    -0.467 OA
ATOM     23  C   UNL     1       0.958  -1.030  -9.245  0.00  0.00    +0.280 C 
ENDBRANCH  20  22
ENDBRANCH  19  20
BRANCH  19  24
ATOM     24  C   UNL     1      -2.389   1.467  -8.152  0.00  0.00    +0.067 C 
BRANCH  24  25
ATOM     25  C   UNL     1      -3.135   2.657  -7.605  0.00  0.00    -0.039 C 
ATOM     26  C   UNL     1      -2.819   3.961  -7.770  0.00  0.00    -0.001 A 
ATOM     27  C   UNL     1      -1.727   4.638  -8.481  0.00  0.00    +0.010 A 
ATOM     28  C   UNL     1      -1.674   5.989  -8.467  0.00  0.00    +0.001 A 
ATOM     29  C   UNL     1      -2.632   6.758  -7.792  0.00  0.00    +0.002 A 
ATOM     30  C   UNL     1      -3.664   6.209  -7.117  0.00  0.00    +0.026 A 
ATOM     31  C   UNL     1      -3.819   4.796  -7.066  0.00  0.00    +0.043 A 
ATOM     32  N   UNL     1      -4.718   4.037  -6.488  0.00  0.00    -0.380 N 
ATOM     33  C   UNL     1      -4.393   2.633  -6.765  0.00  0.00    +0.144 C 
ATOM     34  H   UNL     1      -5.473   4.351  -5.967  0.00  0.00    +0.160 HD
ENDBRANCH  24  25
ENDBRANCH  19  24
ENDBRANCH   3  19
TORSDOF 10
