REMARK  Name = ZINC39636977
REMARK  11 active torsions:
REMARK  status: ('A' for Active; 'I' for Inactive)
REMARK    1  A    between atoms: C_1  and  O_2
REMARK    2  A    between atoms: O_2  and  C_3
REMARK    3  A    between atoms: C_5  and  C_13
REMARK    4  A    between atoms: C_7  and  O_11
REMARK    5  A    between atoms: C_8  and  O_9
REMARK    6  A    between atoms: O_9  and  C_10
REMARK    7  A    between atoms: O_11  and  C_12
REMARK    8  A    between atoms: C_13  and  N_14
REMARK    9  A    between atoms: C_15  and  C_17
REMARK   10  A    between atoms: C_28  and  C_30
REMARK   11  A    between atoms: C_30  and  C_31
REMARK                            x       y       z     vdW  Elec       q    Type
REMARK                         _______ _______ _______ _____ _____    ______ ____
ROOT
ATOM      1  C   UNL     1      -6.850   1.507  -2.994  0.00  0.00    +0.100 C 
ATOM      2  C   UNL     1      -5.855   2.464  -3.688  0.00  0.00    +0.121 C 
ATOM      3  N   UNL     1      -6.703   3.335  -4.535  0.00  0.00    -0.300 N 
ATOM      4  C   UNL     1      -7.905   3.599  -3.707  0.00  0.00    +0.115 C 
ATOM      5  C   UNL     1      -8.194   2.256  -3.007  0.00  0.00    -0.004 C 
ATOM      6  C   UNL     1      -8.678   2.499  -1.581  0.00  0.00    -0.010 C 
ATOM      7  C   UNL     1     -10.043   3.192  -1.622  0.00  0.00    -0.082 C 
ATOM      8  N   UNL     1     -11.001   2.349  -2.349  0.00  0.00    +0.379 N 
ATOM      9  C   UNL     1     -10.574   2.198  -3.745  0.00  0.00    -0.082 C 
ATOM     10  C   UNL     1      -9.232   1.463  -3.795  0.00  0.00    -0.010 C 
ATOM     11  C   UNL     1      -6.442   3.786  -5.779  0.00  0.00    +0.220 C 
ATOM     12  O   UNL     1      -7.243   4.498  -6.346  0.00  0.00    -0.275 OA
ATOM     13  H   UNL     1     -11.046   1.441  -1.912  0.00  0.00    -0.086 HD
ATOM     14  H   UNL     1     -11.913   2.779  -2.322  0.00  0.00    -0.086 HD
ENDROOT
BRANCH   1  16
ATOM     15  N   UNL     1      -6.737   0.069  -0.984  0.00  0.00    -0.311 N 
ATOM     16  C   UNL     1      -6.415   1.236  -1.576  0.00  0.00    +0.218 C 
ATOM     17  O   UNL     1      -5.776   2.069  -0.969  0.00  0.00    -0.275 OA
ATOM     18  H   UNL     1      -7.248  -0.596  -1.470  0.00  0.00    +0.149 HD
BRANCH  15  19
ATOM     19  C   UNL     1      -6.314  -0.194   0.394  0.00  0.00    +0.139 C 
BRANCH  19  22
ATOM     20  C   UNL     1      -6.442  -3.924   0.990  0.00  0.00    +0.165 A 
ATOM     21  C   UNL     1      -6.001  -2.667   0.603  0.00  0.00    +0.054 A 
ATOM     22  C   UNL     1      -6.797  -1.558   0.816  0.00  0.00    -0.023 A 
ATOM     23  C   UNL     1      -8.036  -1.695   1.414  0.00  0.00    +0.054 A 
ATOM     24  C   UNL     1      -8.484  -2.948   1.804  0.00  0.00    +0.165 A 
ATOM     25  C   UNL     1      -7.689  -4.067   1.587  0.00  0.00    +0.204 A 
BRANCH  20  27
ATOM     26  C   UNL     1      -4.389  -4.793   0.163  0.00  0.00    +0.277 C 
ATOM     27  O   UNL     1      -5.658  -5.015   0.781  0.00  0.00    -0.491 OA
ENDBRANCH  20  27
BRANCH  25  28
ATOM     28  O   UNL     1      -8.127  -5.299   1.964  0.00  0.00    -0.488 OA
ATOM     29  C   UNL     1      -7.806  -5.725   3.289  0.00  0.00    +0.277 C 
ENDBRANCH  25  28
BRANCH  24  30
ATOM     30  O   UNL     1      -9.702  -3.082   2.393  0.00  0.00    -0.491 OA
ATOM     31  C   UNL     1     -10.468  -1.890   2.580  0.00  0.00    +0.277 C 
ENDBRANCH  24  30
ENDBRANCH  19  22
ENDBRANCH  15  19
ENDBRANCH   1  16
BRANCH  11  32
ATOM     32  C   UNL     1      -5.154   3.405  -6.463  0.00  0.00    +0.131 C 
BRANCH  32  33
ATOM     33  C   UNL     1      -5.108   4.033  -7.832  0.00  0.00    -0.039 A 
ATOM     34  C   UNL     1      -5.624   3.356  -8.921  0.00  0.00    +0.005 A 
ATOM     35  C   UNL     1      -5.581   3.932 -10.177  0.00  0.00    +0.020 A 
ATOM     36  C   UNL     1      -5.022   5.187 -10.343  0.00  0.00    +0.041 A 
ATOM     37  C   UNL     1      -4.506   5.864  -9.253  0.00  0.00    +0.020 A 
ATOM     38  C   UNL     1      -4.554   5.289  -7.997  0.00  0.00    +0.005 A 
ATOM     39 CL   UNL     1      -4.968   5.911 -11.920  0.00  0.00    -0.084 Cl
ENDBRANCH  32  33
ENDBRANCH  11  32
TORSDOF 8
