REMARK  Name = ZINC16557816
REMARK  11 active torsions:
REMARK  status: ('A' for Active; 'I' for Inactive)
REMARK    1  A    between atoms: C_1  and  C_2
REMARK    2  A    between atoms: C_2  and  N_58
REMARK    3  A    between atoms: C_3  and  C_4
REMARK    4  A    between atoms: C_3  and  N_58
REMARK    5  A    between atoms: N_6  and  C_7
REMARK    6  A    between atoms: C_12  and  C_13
REMARK    7  A    between atoms: C_15  and  C_16
REMARK    8  A    between atoms: C_15  and  N_58
REMARK    9  A    between atoms: N_18  and  C_19
REMARK   10  A    between atoms: C_20  and  C_30
REMARK   11  A    between atoms: C_25  and  C_29
REMARK                            x       y       z     vdW  Elec       q    Type
REMARK                         _______ _______ _______ _____ _____    ______ ____
ROOT
ATOM      1  C   UNL     1       5.015   2.093  -0.074  0.00  0.00    +0.020 C 
ENDROOT
BRANCH   1   2
ATOM      2  C   UNL     1       3.644   2.714  -0.143  0.00  0.00    +0.201 C 
ATOM      3  O   UNL     1       3.522   3.921  -0.120  0.00  0.00    -0.278 OA
ATOM      4  N   UNL     1       2.552   1.928  -0.231  0.00  0.00    -0.281 N 
ATOM      5  H   UNL     1       2.649   0.964  -0.250  0.00  0.00    +0.155 HD
BRANCH   4   6
ATOM      6  C   UNL     1       1.289   2.500  -0.295  0.00  0.00    +0.090 A 
ATOM      7  C   UNL     1       0.059   1.865  -0.388  0.00  0.00    +0.084 A 
ATOM      8  C   UNL     1      -1.126   2.702  -0.446  0.00  0.00    -0.018 A 
ATOM      9  C   UNL     1      -0.895   4.032  -0.391  0.00  0.00    -0.004 A 
ATOM     10  S   UNL     1       0.866   4.180  -0.278  0.00  0.00    -0.077 S 
ATOM     11  C   UNL     1      -1.914   5.129  -0.427  0.00  0.00    +0.046 C 
ATOM     12  C   UNL     1      -3.244   4.534  -0.922  0.00  0.00    -0.009 C 
ATOM     13  C   UNL     1      -3.527   3.252  -0.135  0.00  0.00    +0.008 C 
ATOM     14  C   UNL     1      -2.545   2.156  -0.554  0.00  0.00    +0.037 C 
ATOM     15  C   UNL     1      -4.372   5.540  -0.686  0.00  0.00    +0.008 C 
BRANCH   7  16
ATOM     16  C   UNL     1      -0.037   0.437  -0.430  0.00  0.00    +0.102 C 
ATOM     17  N   UNL     1      -0.114  -0.696  -0.464  0.00  0.00    -0.191 NA
ENDBRANCH   7  16
ENDBRANCH   4   6
ENDBRANCH   1   2
BRANCH   1  18
ATOM     18  N   UNL     1       6.021   3.171   0.038  0.00  0.00    +0.391 N 
ATOM     19  H   UNL     1       5.757   3.795   0.809  0.00  0.00    -0.080 HD
BRANCH  18  21
ATOM     20  C   UNL     1       7.033   5.123  -1.036  0.00  0.00    -0.017 C 
ATOM     21  C   UNL     1       6.067   3.950  -1.217  0.00  0.00    -0.081 C 
ENDBRANCH  18  21
BRANCH  18  22
ATOM     22  C   UNL     1       7.351   2.592   0.323  0.00  0.00    +0.020 C 
BRANCH  22  23
ATOM     23  C   UNL     1       7.405   2.199   1.776  0.00  0.00    +0.201 C 
ATOM     24  O   UNL     1       6.411   2.285   2.466  0.00  0.00    -0.278 OA
ATOM     25  N   UNL     1       8.558   1.750   2.311  0.00  0.00    -0.287 N 
ATOM     26  H   UNL     1       9.331   1.602   1.743  0.00  0.00    +0.155 HD
BRANCH  25  27
ATOM     27  C   UNL     1       8.642   1.498   3.684  0.00  0.00    +0.038 A 
ATOM     28  C   UNL     1       7.791   2.154   4.565  0.00  0.00    +0.043 A 
ATOM     29  C   UNL     1       7.876   1.902   5.921  0.00  0.00    +0.043 A 
ATOM     30  C   UNL     1       8.807   0.998   6.401  0.00  0.00    +0.020 A 
ATOM     31  C   UNL     1       9.655   0.344   5.527  0.00  0.00    +0.006 A 
ATOM     32  C   UNL     1       9.571   0.588   4.170  0.00  0.00    -0.029 A 
ATOM     33  C   UNL     1      10.492  -0.130   3.217  0.00  0.00    +0.045 C 
ATOM     34 CL   UNL     1       6.813   2.721   7.023  0.00  0.00    -0.083 Cl
ENDBRANCH  25  27
ENDBRANCH  22  23
ENDBRANCH  18  22
ENDBRANCH   1  18
TORSDOF 8
