REMARK  Name = ZINC39611741
REMARK  10 active torsions:
REMARK  status: ('A' for Active; 'I' for Inactive)
REMARK    1  A    between atoms: C_1  and  C_2
REMARK    2  A    between atoms: C_2  and  C_3
REMARK    3  A    between atoms: C_2  and  C_4
REMARK    4  A    between atoms: C_4  and  C_6
REMARK    5  A    between atoms: C_4  and  N_26
REMARK    6  A    between atoms: C_6  and  O_8
REMARK    7  A    between atoms: O_8  and  C_9
REMARK    8  A    between atoms: C_9  and  C_10
REMARK    9  A    between atoms: N_15  and  C_16
REMARK   10  A    between atoms: C_27  and  C_29
REMARK                            x       y       z     vdW  Elec       q    Type
REMARK                         _______ _______ _______ _____ _____    ______ ____
ROOT
ATOM      1  C   UNL     1      -0.832  -4.136   0.930  0.00  0.00    +0.328 C 
ENDROOT
BRANCH   1   2
ATOM      2  C   UNL     1      -0.116  -4.709   2.126  0.00  0.00    +0.258 C 
ATOM      3  O   UNL     1       0.362  -3.969   2.958  0.00  0.00    -0.272 OA
ATOM      4  N   UNL     1      -0.008  -6.045   2.271  0.00  0.00    -0.237 N 
ATOM      5  C   UNL     1       0.632  -6.557   3.341  0.00  0.00    +0.306 C 
ATOM      6  O   UNL     1       1.111  -5.815   4.175  0.00  0.00    -0.252 OA
ATOM      7  N   UNL     1       0.740  -7.893   3.485  0.00  0.00    -0.294 N 
ATOM      8  H   UNL     1      -0.391  -6.637   1.605  0.00  0.00    +0.159 HD
ATOM      9  H   UNL     1       0.357  -8.485   2.820  0.00  0.00    +0.151 HD
BRANCH   7  10
ATOM     10  C   UNL     1       1.435  -8.450   4.648  0.00  0.00    +0.037 C 
ATOM     11  C   UNL     1       2.884  -7.958   4.659  0.00  0.00    +0.029 C 
ATOM     12  C   UNL     1       3.611  -8.540   5.873  0.00  0.00    -0.008 C 
ATOM     13  C   UNL     1       3.591 -10.068   5.796  0.00  0.00    +0.007 C 
ATOM     14  C   UNL     1       2.142 -10.559   5.785  0.00  0.00    -0.008 C 
ATOM     15  C   UNL     1       1.415  -9.978   4.571  0.00  0.00    +0.029 C 
ATOM     16  C   UNL     1       1.439 -10.104   7.066  0.00  0.00    +0.007 C 
ATOM     17  C   UNL     1       1.459  -8.576   7.143  0.00  0.00    -0.008 C 
ATOM     18  C   UNL     1       2.908  -8.085   7.154  0.00  0.00    +0.007 C 
ATOM     19  C   UNL     1       0.733  -7.995   5.929  0.00  0.00    +0.029 C 
ENDBRANCH   7  10
ENDBRANCH   1   2
BRANCH   1  20
ATOM     20  O   UNL     1      -0.813  -2.709   1.002  0.00  0.00    -0.454 OA
BRANCH  20  21
ATOM     21  C   UNL     1      -1.413  -2.041   0.005  0.00  0.00    +0.328 C 
ATOM     22  O   UNL     1      -1.936  -2.647  -0.900  0.00  0.00    -0.249 OA
BRANCH  21  23
ATOM     23  C   UNL     1      -1.433  -0.534   0.013  0.00  0.00    +0.185 C 
BRANCH  23  24
ATOM     24  N   UNL     1      -2.142  -0.048  -1.174  0.00  0.00    -0.298 N 
ATOM     25  C   UNL     1      -2.727   1.166  -1.160  0.00  0.00    +0.246 C 
ATOM     26  O   UNL     1      -2.667   1.858  -0.163  0.00  0.00    -0.270 OA
ATOM     27  H   UNL     1      -2.190  -0.601  -1.970  0.00  0.00    +0.150 HD
BRANCH  25  28
ATOM     28  C   UNL     1      -3.442   1.655  -2.357  0.00  0.00    +0.055 A 
ATOM     29  C   UNL     1      -3.518   0.860  -3.503  0.00  0.00    +0.014 A 
ATOM     30  C   UNL     1      -4.187   1.323  -4.616  0.00  0.00    +0.001 A 
ATOM     31  C   UNL     1      -4.782   2.572  -4.601  0.00  0.00    +0.001 A 
ATOM     32  C   UNL     1      -4.711   3.366  -3.471  0.00  0.00    +0.021 A 
ATOM     33  C   UNL     1      -4.049   2.913  -2.346  0.00  0.00    +0.053 A 
ATOM     34 CL   UNL     1      -3.967   3.907  -0.925  0.00  0.00    -0.083 Cl
ENDBRANCH  25  28
ENDBRANCH  23  24
BRANCH  23  36
ATOM     35  C   UNL     1      -0.019   1.526   0.010  0.00  0.00    +0.009 C 
ATOM     36  C   UNL     1       0.002  -0.004   0.002  0.00  0.00    +0.014 C 
ATOM     37  C   UNL     1       0.742  -0.511   1.242  0.00  0.00    +0.009 C 
ENDBRANCH  23  36
ENDBRANCH  21  23
ENDBRANCH  20  21
ENDBRANCH   1  20
TORSDOF 8
