REMARK  Name = ZINC28308292
REMARK  6 active torsions:
REMARK  status: ('A' for Active; 'I' for Inactive)
REMARK    1  A    between atoms: C_4  and  N_7
REMARK    2  A    between atoms: C_8  and  C_10
REMARK    3  A    between atoms: C_10  and  N_19
REMARK    4  A    between atoms: C_11  and  C_12
REMARK    5  A    between atoms: C_15  and  O_18
REMARK    6  A    between atoms: C_20  and  C_22
REMARK                            x       y       z     vdW  Elec       q    Type
REMARK                         _______ _______ _______ _____ _____    ______ ____
ROOT
ATOM      1  C   UNL     1      -4.362   1.762  -0.045  0.00  0.00    +0.097 C 
ATOM      2  C   UNL     1      -3.353   1.021   0.472  0.00  0.00    +0.036 C 
ENDROOT
BRANCH   2   3
ATOM      3  C   UNL     1      -2.404   1.629   1.414  0.00  0.00    -0.023 A 
ATOM      4  C   UNL     1      -1.053   1.262   1.386  0.00  0.00    +0.011 A 
ATOM      5  C   UNL     1      -0.167   1.839   2.267  0.00  0.00    +0.046 A 
ATOM      6  C   UNL     1      -0.612   2.781   3.188  0.00  0.00    +0.117 A 
ATOM      7  C   UNL     1      -1.953   3.144   3.224  0.00  0.00    +0.046 A 
ATOM      8  C   UNL     1      -2.848   2.573   2.348  0.00  0.00    +0.011 A 
BRANCH   6   9
ATOM      9  O   UNL     1       0.267   3.347   4.055  0.00  0.00    -0.507 OA
ATOM     10  H   UNL     1      -0.084   4.092   4.784  0.00  0.00    +0.292 HD
ENDBRANCH   6   9
ENDBRANCH   2   3
BRANCH   1  12
ATOM     11  N   UNL     1      -3.572   4.028  -0.481  0.00  0.00    -0.280 N 
ATOM     12  C   UNL     1      -4.406   3.210   0.192  0.00  0.00    +0.262 C 
ATOM     13  O   UNL     1      -5.195   3.672   0.995  0.00  0.00    -0.268 OA
ATOM     14  H   UNL     1      -2.926   3.624  -1.274  0.00  0.00    +0.155 HD
BRANCH  11  18
ATOM     15  C   UNL     1      -3.442   8.087   0.445  0.00  0.00    +0.000 A 
ATOM     16  C   UNL     1      -3.315   7.674  -0.869  0.00  0.00    +0.002 A 
ATOM     17  C   UNL     1      -3.357   6.329  -1.179  0.00  0.00    +0.023 A 
ATOM     18  C   UNL     1      -3.528   5.390  -0.170  0.00  0.00    +0.034 A 
ATOM     19  C   UNL     1      -3.662   5.808   1.148  0.00  0.00    +0.023 A 
ATOM     20  C   UNL     1      -3.613   7.154   1.452  0.00  0.00    +0.002 A 
ENDBRANCH  11  18
ENDBRANCH   1  12
BRANCH   1  21
ATOM     21  N   UNL     1      -5.364   1.146  -0.805  0.00  0.00    -0.277 N 
ATOM     22  C   UNL     1      -6.301   1.896  -1.417  0.00  0.00    +0.249 C 
ATOM     23  O   UNL     1      -6.222   3.109  -1.391  0.00  0.00    -0.270 OA
ATOM     24  H   UNL     1      -5.386   0.051  -0.901  0.00  0.00    +0.155 HD
BRANCH  22  25
ATOM     25  C   UNL     1      -7.425   1.244  -2.121  0.00  0.00    +0.051 A 
ATOM     26  C   UNL     1      -7.515  -0.149  -2.158  0.00  0.00    +0.014 A 
ATOM     27  C   UNL     1      -8.569  -0.751  -2.813  0.00  0.00    +0.001 A 
ATOM     28  C   UNL     1      -9.531   0.021  -3.441  0.00  0.00    +0.001 A 
ATOM     29  C   UNL     1      -9.445   1.401  -3.413  0.00  0.00    +0.016 A 
ATOM     30  C   UNL     1      -8.398   2.018  -2.757  0.00  0.00    +0.030 A 
ATOM     31 BR   UNL     1      -8.281   3.905  -2.722  0.00  0.00    -0.050 Br
ENDBRANCH  22  25
ENDBRANCH   1  21
TORSDOF 6
