REMARK  Name = ZINC39688507
REMARK  7 active torsions:
REMARK  status: ('A' for Active; 'I' for Inactive)
REMARK    1  A    between atoms: C_1  and  C_2
REMARK    2  A    between atoms: C_2  and  C_4
REMARK    3  A    between atoms: C_2  and  N_12
REMARK    4  A    between atoms: C_4  and  C_5
REMARK    5  A    between atoms: C_13  and  C_15
REMARK    6  A    between atoms: C_26  and  C_28
REMARK    7  A    between atoms: C_31  and  C_35
REMARK                            x       y       z     vdW  Elec       q    Type
REMARK                         _______ _______ _______ _____ _____    ______ ____
ROOT
ATOM      1  C   UNL     1       0.564  -0.442  -3.531  0.00  0.00    +0.100 C 
ATOM      2  C   UNL     1       1.782   0.327  -4.090  0.00  0.00    +0.121 C 
ATOM      3  N   UNL     1       1.671   0.186  -5.561  0.00  0.00    -0.296 N 
ATOM      4  C   UNL     1       0.220   0.311  -5.835  0.00  0.00    +0.115 C 
ATOM      5  C   UNL     1      -0.459  -0.450  -4.680  0.00  0.00    -0.004 C 
ATOM      6  C   UNL     1      -1.736   0.268  -4.254  0.00  0.00    -0.010 C 
ATOM      7  C   UNL     1      -2.760   0.197  -5.391  0.00  0.00    -0.082 C 
ATOM      8  N   UNL     1      -3.046  -1.208  -5.707  0.00  0.00    +0.379 N 
ATOM      9  C   UNL     1      -1.832  -1.867  -6.204  0.00  0.00    -0.082 C 
ATOM     10  C   UNL     1      -0.770  -1.883  -5.101  0.00  0.00    -0.010 C 
ATOM     11  C   UNL     1       2.666  -0.012  -6.449  0.00  0.00    +0.247 C 
ATOM     12  O   UNL     1       3.798  -0.217  -6.057  0.00  0.00    -0.270 OA
ATOM     13  H   UNL     1      -3.366  -1.680  -4.875  0.00  0.00    -0.086 HD
ATOM     14  H   UNL     1      -3.765  -1.253  -6.413  0.00  0.00    -0.086 HD
ENDROOT
BRANCH  11  15
ATOM     15  C   UNL     1       2.380   0.020  -7.899  0.00  0.00    +0.040 A 
ATOM     16  C   UNL     1       1.240   0.670  -8.374  0.00  0.00    +0.014 A 
ATOM     17  C   UNL     1       0.977   0.698  -9.728  0.00  0.00    +0.016 A 
ATOM     18  C   UNL     1       1.841   0.082 -10.616  0.00  0.00    +0.090 A 
ATOM     19  C   UNL     1       2.974  -0.566 -10.152  0.00  0.00    +0.136 A 
ATOM     20  C   UNL     1       3.251  -0.595  -8.799  0.00  0.00    +0.052 A 
ATOM     21  F   UNL     1       3.813  -1.166 -11.025  0.00  0.00    -0.205 F 
BRANCH  18  22
ATOM     22  C   UNL     1       1.548   0.116 -12.094  0.00  0.00    +0.420 C 
ATOM     23  F   UNL     1       0.360   0.821 -12.318  0.00  0.00    -0.166 F 
ATOM     24  F   UNL     1       2.599   0.751 -12.764  0.00  0.00    -0.166 F 
ATOM     25  F   UNL     1       1.411  -1.191 -12.573  0.00  0.00    -0.166 F 
ENDBRANCH  18  22
ENDBRANCH  11  15
BRANCH   1  27
ATOM     26  N   UNL     1      -0.550  -0.438  -1.323  0.00  0.00    -0.312 N 
ATOM     27  C   UNL     1      -0.001   0.270  -2.330  0.00  0.00    +0.218 C 
ATOM     28  O   UNL     1       0.037   1.481  -2.269  0.00  0.00    -0.275 OA
ATOM     29  H   UNL     1      -0.581  -1.406  -1.371  0.00  0.00    +0.149 HD
BRANCH  26  31
ATOM     30  C   UNL     1       0.023   0.533   0.848  0.00  0.00    +0.028 C 
ATOM     31  C   UNL     1      -1.099   0.255  -0.154  0.00  0.00    +0.074 C 
BRANCH  31  32
ATOM     32  C   UNL     1      -2.165  -0.623   0.504  0.00  0.00    +0.057 C 
BRANCH  32  33
ATOM     33  C   UNL     1      -3.327  -0.796  -0.440  0.00  0.00    -0.045 A 
ATOM     34  C   UNL     1      -4.376   0.104  -0.416  0.00  0.00    +0.006 A 
ATOM     35  C   UNL     1      -5.442  -0.053  -1.281  0.00  0.00    +0.038 A 
ATOM     36  C   UNL     1      -5.459  -1.112  -2.172  0.00  0.00    +0.123 A 
ATOM     37  C   UNL     1      -4.408  -2.013  -2.195  0.00  0.00    +0.038 A 
ATOM     38  C   UNL     1      -3.340  -1.851  -1.333  0.00  0.00    +0.006 A 
ATOM     39  F   UNL     1      -6.501  -1.267  -3.018  0.00  0.00    -0.205 F 
ENDBRANCH  32  33
ENDBRANCH  31  32
ENDBRANCH  26  31
ENDBRANCH   1  27
TORSDOF 6
