REMARK  Name = ZINC39691334
REMARK  7 active torsions:
REMARK  status: ('A' for Active; 'I' for Inactive)
REMARK    1  A    between atoms: C_4  and  C_7
REMARK    2  A    between atoms: C_11  and  C_20
REMARK    3  A    between atoms: N_22  and  C_23
REMARK    4  A    between atoms: C_23  and  C_24
REMARK    5  A    between atoms: C_24  and  N_25
REMARK    6  A    between atoms: C_26  and  C_28
REMARK    7  A    between atoms: C_28  and  C_29
REMARK                            x       y       z     vdW  Elec       q    Type
REMARK                         _______ _______ _______ _____ _____    ______ ____
ROOT
ATOM      1  C   UNL     1       2.505  -5.452  -0.183  0.00  0.00    +0.218 C 
ATOM      2  O   UNL     1       2.237  -5.511   0.998  0.00  0.00    -0.275 OA
ATOM      3  N   UNL     1       2.337  -6.534  -0.968  0.00  0.00    -0.314 N 
ATOM      4  H   UNL     1       2.551  -6.486  -1.913  0.00  0.00    +0.149 HD
ENDROOT
BRANCH   1   9
ATOM      5  C   UNL     1       3.693  -0.684  -0.038  0.00  0.00    +0.247 C 
ATOM      6  O   UNL     1       4.732  -0.063  -0.153  0.00  0.00    -0.270 OA
ATOM      7  N   UNL     1       3.719  -2.028   0.057  0.00  0.00    -0.296 N 
ATOM      8  C   UNL     1       2.566  -2.960   0.074  0.00  0.00    +0.121 C 
ATOM      9  C   UNL     1       3.027  -4.167  -0.773  0.00  0.00    +0.100 C 
ATOM     10  C   UNL     1       4.563  -4.130  -0.706  0.00  0.00    -0.004 C 
ATOM     11  C   UNL     1       4.906  -2.910   0.161  0.00  0.00    +0.115 C 
ATOM     12  C   UNL     1       5.149  -3.957  -2.104  0.00  0.00    -0.010 C 
ATOM     13  C   UNL     1       6.678  -3.980  -2.018  0.00  0.00    -0.082 C 
ATOM     14  N   UNL     1       7.118  -5.253  -1.435  0.00  0.00    +0.379 N 
ATOM     15  C   UNL     1       6.627  -5.369  -0.056  0.00  0.00    -0.082 C 
ATOM     16  C   UNL     1       5.096  -5.405  -0.059  0.00  0.00    -0.010 C 
ATOM     17  H   UNL     1       6.755  -6.017  -1.985  0.00  0.00    -0.086 HD
ATOM     18  H   UNL     1       8.126  -5.291  -1.435  0.00  0.00    -0.086 HD
BRANCH   5  22
ATOM     19  C   UNL     1      -0.017   1.382   0.065  0.00  0.00    +0.000 A 
ATOM     20  C   UNL     1       1.078   1.962  -0.552  0.00  0.00    +0.001 A 
ATOM     21  C   UNL     1       2.285   1.296  -0.589  0.00  0.00    +0.013 A 
ATOM     22  C   UNL     1       2.402   0.035  -0.002  0.00  0.00    +0.037 A 
ATOM     23  C   UNL     1       1.294  -0.544   0.619  0.00  0.00    +0.013 A 
ATOM     24  C   UNL     1       0.092   0.133   0.649  0.00  0.00    +0.001 A 
ENDBRANCH   5  22
ENDBRANCH   1   9
BRANCH   3  25
ATOM     25  C   UNL     1       1.829  -7.783  -0.394  0.00  0.00    +0.123 C 
BRANCH  25  26
ATOM     26  C   UNL     1       1.733  -8.846  -1.491  0.00  0.00    +0.123 C 
BRANCH  26  27
ATOM     27  N   UNL     1       1.225 -10.095  -0.917  0.00  0.00    -0.314 N 
ATOM     28  C   UNL     1       1.056 -11.177  -1.702  0.00  0.00    +0.217 C 
ATOM     29  O   UNL     1       1.325 -11.117  -2.884  0.00  0.00    -0.275 OA
ATOM     30  H   UNL     1       1.010 -10.142   0.027  0.00  0.00    +0.149 HD
BRANCH  28  31
ATOM     31  C   UNL     1       0.534 -12.462  -1.112  0.00  0.00    +0.131 C 
BRANCH  31  32
ATOM     32  C   UNL     1       0.440 -13.508  -2.192  0.00  0.00    -0.031 A 
ATOM     33  C   UNL     1      -0.735 -13.708  -2.850  0.00  0.00    +0.005 A 
ATOM     34  C   UNL     1      -0.842 -14.671  -3.852  0.00  0.00    +0.001 A 
ATOM     35  C   UNL     1       0.225 -15.441  -4.201  0.00  0.00    +0.008 A 
ATOM     36  C   UNL     1       1.454 -15.263  -3.544  0.00  0.00    -0.018 A 
ATOM     37  C   UNL     1       1.565 -14.280  -2.530  0.00  0.00    -0.014 A 
ATOM     38  C   UNL     1       2.796 -14.098  -1.876  0.00  0.00    +0.009 A 
ATOM     39  C   UNL     1       3.864 -14.864  -2.230  0.00  0.00    +0.001 A 
ATOM     40  C   UNL     1       3.757 -15.827  -3.232  0.00  0.00    +0.001 A 
ATOM     41  C   UNL     1       2.578 -16.039  -3.876  0.00  0.00    +0.008 A 
ENDBRANCH  31  32
ENDBRANCH  28  31
ENDBRANCH  26  27
ENDBRANCH  25  26
ENDBRANCH   3  25
TORSDOF 7
