REMARK  Name = ZINC66952046
REMARK  8 active torsions:
REMARK  status: ('A' for Active; 'I' for Inactive)
REMARK    1  A    between atoms: C_1  and  O_2
REMARK    2  A    between atoms: O_2  and  C_3
REMARK    3  A    between atoms: C_3  and  C_4
REMARK    4  A    between atoms: N_6  and  C_7
REMARK    5  A    between atoms: C_10  and  N_13
REMARK    6  A    between atoms: N_16  and  C_17
REMARK    7  A    between atoms: C_17  and  C_18
REMARK    8  A    between atoms: C_18  and  O_28
REMARK                            x       y       z     vdW  Elec       q    Type
REMARK                         _______ _______ _______ _____ _____    ______ ____
ROOT
ATOM      1  N   UNL     1      -1.424  -8.385   0.420  0.00  0.00    -0.269 N 
ATOM      2  C   UNL     1      -2.441  -9.238   0.183  0.00  0.00    +0.304 C 
ATOM      3  O   UNL     1      -3.571  -8.812   0.045  0.00  0.00    -0.253 OA
ATOM      4  N   UNL     1      -2.205 -10.562   0.101  0.00  0.00    -0.296 N 
ATOM      5  H   UNL     1      -0.535  -8.729   0.598  0.00  0.00    +0.156 HD
ATOM      6  H   UNL     1      -1.304 -10.902   0.212  0.00  0.00    +0.150 HD
ENDROOT
BRANCH   1  10
ATOM      7  C   UNL     1      -2.100  -4.271   0.382  0.00  0.00    +0.034 A 
ATOM      8  C   UNL     1      -0.897  -4.781  -0.088  0.00  0.00    +0.025 A 
ATOM      9  C   UNL     1      -0.673  -6.143  -0.075  0.00  0.00    +0.025 A 
ATOM     10  C   UNL     1      -1.651  -7.003   0.407  0.00  0.00    +0.035 A 
ATOM     11  C   UNL     1      -2.854  -6.493   0.876  0.00  0.00    +0.025 A 
ATOM     12  C   UNL     1      -3.076  -5.130   0.870  0.00  0.00    +0.025 A 
BRANCH   7  15
ATOM     13  C   UNL     1      -3.034  -2.312   1.362  0.00  0.00    +0.243 C 
ATOM     14  O   UNL     1      -3.545  -3.000   2.220  0.00  0.00    -0.273 OA
ATOM     15  N   UNL     1      -2.328  -2.888   0.369  0.00  0.00    -0.284 N 
ATOM     16  H   UNL     1      -1.977  -2.346  -0.354  0.00  0.00    +0.155 HD
BRANCH  13  17
ATOM     17  C   UNL     1      -3.188  -0.814   1.405  0.00  0.00    +0.255 C 
BRANCH  17  19
ATOM     18  C   UNL     1      -4.180   0.959   2.678  0.00  0.00    +0.194 C 
ATOM     19  O   UNL     1      -3.973  -0.449   2.543  0.00  0.00    -0.374 OA
ENDBRANCH  17  19
ENDBRANCH  13  17
ENDBRANCH   7  15
ENDBRANCH   1  10
BRANCH   4  20
ATOM     20  C   UNL     1      -3.311 -11.488  -0.156  0.00  0.00    +0.145 C 
BRANCH  20  21
ATOM     21  C   UNL     1      -2.799 -12.928  -0.077  0.00  0.00    +0.107 C 
ATOM     22  C   UNL     1      -2.205 -13.176   1.308  0.00  0.00    +0.041 C 
ATOM     23  C   UNL     1      -1.899 -14.672   1.442  0.00  0.00    +0.008 C 
ATOM     24  C   UNL     1      -3.223 -15.429   1.522  0.00  0.00    +0.035 C 
ATOM     25  C   UNL     1      -4.131 -15.027   0.390  0.00  0.00    -0.041 A 
ATOM     26  C   UNL     1      -3.939 -13.876  -0.342  0.00  0.00    -0.011 A 
ATOM     27  C   UNL     1      -4.818 -13.559  -1.369  0.00  0.00    +0.007 A 
ATOM     28  C   UNL     1      -5.880 -14.389  -1.664  0.00  0.00    +0.000 A 
ATOM     29  C   UNL     1      -6.071 -15.546  -0.933  0.00  0.00    +0.000 A 
ATOM     30  C   UNL     1      -5.199 -15.862   0.090  0.00  0.00    +0.004 A 
BRANCH  21  31
ATOM     31  O   UNL     1      -1.785 -13.122  -1.065  0.00  0.00    -0.382 OA
ATOM     32  H   UNL     1      -2.086 -12.974  -1.972  0.00  0.00    +0.211 HD
ENDBRANCH  21  31
ENDBRANCH  20  21
ENDBRANCH   4  20
TORSDOF 7
