REMARK  Name = ZINC39685326
REMARK  9 active torsions:
REMARK  status: ('A' for Active; 'I' for Inactive)
REMARK    1  A    between atoms: C_1  and  C_2
REMARK    2  A    between atoms: C_2  and  O_3
REMARK    3  A    between atoms: O_3  and  C_4
REMARK    4  A    between atoms: C_7  and  C_10
REMARK    5  A    between atoms: C_14  and  C_23
REMARK    6  A    between atoms: N_25  and  C_26
REMARK    7  A    between atoms: C_26  and  C_27
REMARK    8  A    between atoms: C_27  and  O_28
REMARK    9  A    between atoms: O_28  and  C_29
REMARK                            x       y       z     vdW  Elec       q    Type
REMARK                         _______ _______ _______ _____ _____    ______ ____
ROOT
ATOM      1  C   UNL     1      -1.993  -6.078  -0.017  0.00  0.00    +0.247 C 
ATOM      2  O   UNL     1      -1.845  -4.873   0.055  0.00  0.00    -0.270 OA
ATOM      3  N   UNL     1      -3.231  -6.601  -0.113  0.00  0.00    -0.296 N 
ATOM      4  C   UNL     1      -4.518  -5.874  -0.226  0.00  0.00    +0.121 C 
ATOM      5  C   UNL     1      -5.346  -6.700  -1.235  0.00  0.00    +0.100 C 
ATOM      6  C   UNL     1      -4.749  -8.116  -1.166  0.00  0.00    -0.004 C 
ATOM      7  C   UNL     1      -3.614  -8.033  -0.136  0.00  0.00    +0.115 C 
ATOM      8  C   UNL     1      -4.190  -8.521  -2.527  0.00  0.00    -0.010 C 
ATOM      9  C   UNL     1      -3.655  -9.953  -2.448  0.00  0.00    -0.082 C 
ATOM     10  N   UNL     1      -4.738 -10.861  -2.051  0.00  0.00    +0.379 N 
ATOM     11  C   UNL     1      -5.207 -10.522  -0.702  0.00  0.00    -0.082 C 
ATOM     12  C   UNL     1      -5.808  -9.114  -0.708  0.00  0.00    -0.010 C 
ATOM     13  H   UNL     1      -5.503 -10.775  -2.704  0.00  0.00    -0.086 HD
ATOM     14  H   UNL     1      -4.398 -11.811  -2.059  0.00  0.00    -0.086 HD
ENDROOT
BRANCH   1  18
ATOM     15  C   UNL     1       1.394  -8.639   0.032  0.00  0.00    +0.121 A 
ATOM     16  C   UNL     1       0.206  -9.050   0.625  0.00  0.00    +0.046 A 
ATOM     17  C   UNL     1      -0.894  -8.223   0.611  0.00  0.00    +0.016 A 
ATOM     18  C   UNL     1      -0.815  -6.968   0.001  0.00  0.00    +0.037 A 
ATOM     19  C   UNL     1       0.381  -6.559  -0.594  0.00  0.00    +0.016 A 
ATOM     20  C   UNL     1       1.479  -7.390  -0.572  0.00  0.00    +0.046 A 
BRANCH  15  21
ATOM     21  O   UNL     1       2.477  -9.458   0.048  0.00  0.00    -0.492 OA
BRANCH  21  23
ATOM     22  C   UNL     1       3.637 -11.504   0.603  0.00  0.00    +0.048 C 
ATOM     23  C   UNL     1       2.321 -10.728   0.685  0.00  0.00    +0.225 C 
ENDBRANCH  21  23
ENDBRANCH  15  21
ENDBRANCH   1  18
BRANCH   5  24
ATOM     24  C   UNL     1      -5.198  -6.133  -2.624  0.00  0.00    +0.218 C 
ATOM     25  O   UNL     1      -4.142  -5.648  -2.971  0.00  0.00    -0.275 OA
ATOM     26  N   UNL     1      -6.239  -6.165  -3.479  0.00  0.00    -0.312 N 
ATOM     27  H   UNL     1      -7.083  -6.553  -3.201  0.00  0.00    +0.149 HD
BRANCH  26  28
ATOM     28  C   UNL     1      -6.095  -5.613  -4.829  0.00  0.00    +0.145 C 
BRANCH  28  29
ATOM     29  C   UNL     1      -7.413  -5.774  -5.588  0.00  0.00    +0.247 C 
BRANCH  29  30
ATOM     30  O   UNL     1      -8.424  -4.981  -4.962  0.00  0.00    -0.490 OA
BRANCH  30  31
ATOM     31  C   UNL     1      -9.664  -5.011  -5.517  0.00  0.00    +0.123 A 
ATOM     32  C   UNL     1      -9.904  -5.793  -6.638  0.00  0.00    +0.046 A 
ATOM     33  C   UNL     1     -11.165  -5.823  -7.202  0.00  0.00    +0.006 A 
ATOM     34  C   UNL     1     -12.189  -5.075  -6.649  0.00  0.00    +0.038 A 
ATOM     35  C   UNL     1     -11.952  -4.294  -5.531  0.00  0.00    +0.127 A 
ATOM     36  C   UNL     1     -10.692  -4.266  -4.960  0.00  0.00    +0.084 A 
ATOM     37  F   UNL     1     -12.954  -3.563  -4.993  0.00  0.00    -0.205 F 
ENDBRANCH  30  31
ENDBRANCH  29  30
ENDBRANCH  28  29
ENDBRANCH  26  28
ENDBRANCH   5  24
TORSDOF 8
