REMARK  Name = ZINC36637378
REMARK  12 active torsions:
REMARK  status: ('A' for Active; 'I' for Inactive)
REMARK    1  A    between atoms: C_1  and  C_2
REMARK    2  A    between atoms: C_2  and  C_3
REMARK    3  A    between atoms: N_12  and  C_13
REMARK    4  A    between atoms: C_13  and  C_14
REMARK    5  A    between atoms: C_14  and  N_15
REMARK    6  A    between atoms: N_15  and  C_16
REMARK    7  A    between atoms: N_15  and  C_17
REMARK    8  A    between atoms: C_18  and  C_20
REMARK    9  A    between atoms: C_23  and  S_26
REMARK   10  A    between atoms: S_26  and  N_29
REMARK   11  A    between atoms: C_31  and  C_38
REMARK   12  A    between atoms: C_34  and  C_37
REMARK                            x       y       z     vdW  Elec       q    Type
REMARK                         _______ _______ _______ _____ _____    ______ ____
ROOT
ATOM      1  C   UNL     1       1.209  -0.937   1.127  0.00  0.00    -0.046 A 
ATOM      2  C   UNL     1       2.429  -1.598   1.109  0.00  0.00    +0.006 A 
ATOM      3  C   UNL     1       2.957  -2.157   2.242  0.00  0.00    +0.029 A 
ATOM      4  C   UNL     1       2.269  -2.078   3.475  0.00  0.00    +0.080 A 
ATOM      5  C   UNL     1       1.031  -1.397   3.456  0.00  0.00    +0.041 A 
ATOM      6  C   UNL     1       0.512  -0.835   2.317  0.00  0.00    +0.021 A 
ATOM      7  S   UNL     1       0.507  -1.516   5.150  0.00  0.00    -0.052 S 
ATOM      8  C   UNL     1       1.918  -2.431   5.757  0.00  0.00    +0.168 A 
ATOM      9  N   UNL     1       2.648  -2.570   4.675  0.00  0.00    -0.224 NA
ATOM     10  N   UNL     1       2.175  -2.879   7.041  0.00  0.00    -0.248 N 
ATOM     11  C   UNL     1       1.292  -2.634   8.030  0.00  0.00    +0.252 C 
ATOM     12  O   UNL     1       0.242  -2.074   7.782  0.00  0.00    -0.270 OA
ENDROOT
BRANCH  11  13
ATOM     13  C   UNL     1       1.601  -3.045   9.415  0.00  0.00    +0.037 A 
ATOM     14  C   UNL     1       2.927  -3.215   9.817  0.00  0.00    +0.015 A 
ATOM     15  C   UNL     1       3.208  -3.599  11.112  0.00  0.00    +0.029 A 
ATOM     16  C   UNL     1       2.179  -3.817  12.011  0.00  0.00    +0.106 A 
ATOM     17  C   UNL     1       0.863  -3.651  11.619  0.00  0.00    +0.029 A 
ATOM     18  C   UNL     1       0.568  -3.261  10.329  0.00  0.00    +0.015 A 
BRANCH  16  19
ATOM     19  S   UNL     1       2.547  -4.309  13.663  0.00  0.00    +0.061 S 
ATOM     20  O   UNL     1       1.394  -4.977  14.154  0.00  0.00    -0.153 OA
ATOM     21  O   UNL     1       3.828  -4.924  13.627  0.00  0.00    -0.153 OA
BRANCH  19  22
ATOM     22  N   UNL     1       2.711  -2.926  14.560  0.00  0.00    -0.172 NA
ATOM     23  C   UNL     1       4.018  -2.264  14.698  0.00  0.00    +0.140 C 
ATOM     24  C   UNL     1       3.845  -0.778  14.363  0.00  0.00    +0.131 C 
ATOM     25  O   UNL     1       2.774  -0.241  15.144  0.00  0.00    -0.371 OA
ATOM     26  C   UNL     1       1.501  -0.835  14.880  0.00  0.00    +0.131 C 
ATOM     27  C   UNL     1       1.554  -2.321  15.237  0.00  0.00    +0.140 C 
ATOM     28  C   UNL     1       1.163  -0.681  13.396  0.00  0.00    +0.039 C 
ATOM     29  C   UNL     1       5.139  -0.028  14.683  0.00  0.00    +0.039 C 
ENDBRANCH  19  22
ENDBRANCH  16  19
ENDBRANCH  11  13
BRANCH   1  31
ATOM     30  C   UNL     1       1.146   1.111  -0.270  0.00  0.00    +0.009 C 
ATOM     31  C   UNL     1       0.652  -0.331  -0.136  0.00  0.00    +0.032 C 
ENDBRANCH   1  31
BRANCH  10  32
ATOM     32  C   UNL     1       3.407  -3.619   7.326  0.00  0.00    +0.097 C 
BRANCH  32  33
ATOM     33  C   UNL     1       4.596  -2.656   7.309  0.00  0.00    -0.060 C 
BRANCH  33  34
ATOM     34  N   UNL     1       5.843  -3.416   7.463  0.00  0.00    +0.377 N 
ATOM     35  C   UNL     1       6.990  -2.512   7.303  0.00  0.00    -0.097 C 
ATOM     36  C   UNL     1       5.884  -4.025   8.799  0.00  0.00    -0.097 C 
ATOM     37  H   UNL     1       5.885  -4.140   6.761  0.00  0.00    -0.083 HD
ENDBRANCH  33  34
ENDBRANCH  32  33
ENDBRANCH  10  32
TORSDOF 7
