REMARK  Name = ZINC00705878
REMARK  13 active torsions:
REMARK  status: ('A' for Active; 'I' for Inactive)
REMARK    1  A    between atoms: C_1  and  C_2
REMARK    2  A    between atoms: C_2  and  O_3
REMARK    3  A    between atoms: O_3  and  C_4
REMARK    4  A    between atoms: C_4  and  C_6
REMARK    5  A    between atoms: C_7  and  C_23
REMARK    6  A    between atoms: C_9  and  N_22
REMARK    7  A    between atoms: C_10  and  C_20
REMARK    8  A    between atoms: C_11  and  C_13
REMARK    9  A    between atoms: C_23  and  S_24
REMARK   10  A    between atoms: S_24  and  C_25
REMARK   11  A    between atoms: C_26  and  C_33
REMARK   12  A    between atoms: C_27  and  C_32
REMARK   13  A    between atoms: C_29  and  C_31
REMARK                            x       y       z     vdW  Elec       q    Type
REMARK                         _______ _______ _______ _____ _____    ______ ____
ROOT
ATOM      1  C   UNL     1       1.569  -2.364   2.372  0.00  0.00    +0.088 C 
ATOM      2  C   UNL     1       1.492  -3.680   2.611  0.00  0.00    +0.128 C 
ATOM      3  O   UNL     1       2.019  -4.233   3.715  0.00  0.00    -0.444 OA
ATOM      4  C   UNL     1       2.950  -3.565   4.421  0.00  0.00    +0.198 C 
ATOM      5  C   UNL     1       3.114  -2.227   4.287  0.00  0.00    +0.098 C 
ATOM      6  C   UNL     1       2.260  -1.437   3.334  0.00  0.00    +0.106 C 
ENDROOT
BRANCH   6   7
ATOM      7  C   UNL     1       1.227  -0.667   4.116  0.00  0.00    -0.021 A 
ATOM      8  C   UNL     1       0.314  -1.341   4.905  0.00  0.00    +0.005 A 
ATOM      9  C   UNL     1      -0.633  -0.635   5.623  0.00  0.00    +0.000 A 
ATOM     10  C   UNL     1      -0.668   0.745   5.551  0.00  0.00    +0.001 A 
ATOM     11  C   UNL     1       0.245   1.419   4.763  0.00  0.00    +0.014 A 
ATOM     12  C   UNL     1       1.197   0.713   4.050  0.00  0.00    +0.017 A 
ATOM     13  I   UNL     1       2.587   1.736   2.861  0.00  0.00    -0.044 I 
ENDBRANCH   6   7
BRANCH   4  14
ATOM     14  N   UNL     1       3.751  -4.255   5.297  0.00  0.00    -0.328 N 
ATOM     15  H   UNL     1       3.642  -5.213   5.401  0.00  0.00    +0.145 HD
ATOM     16  H   UNL     1       4.425  -3.784   5.811  0.00  0.00    +0.145 HD
ENDBRANCH   4  14
BRANCH   1  17
ATOM     17  C   UNL     1       0.995  -1.837   1.189  0.00  0.00    +0.339 C 
ATOM     18  O   UNL     1       1.701  -1.584   0.231  0.00  0.00    -0.245 OA
BRANCH  17  19
ATOM     19  O   UNL     1      -0.334  -1.617   1.125  0.00  0.00    -0.462 OA
BRANCH  19  21
ATOM     20  C   UNL     1      -2.360  -0.903   0.017  0.00  0.00    +0.048 C 
ATOM     21  C   UNL     1      -0.845  -1.084  -0.099  0.00  0.00    +0.229 C 
ENDBRANCH  19  21
ENDBRANCH  17  19
ENDBRANCH   1  17
BRANCH   5  22
ATOM     22  C   UNL     1       4.117  -1.556   5.058  0.00  0.00    +0.101 C 
ATOM     23  N   UNL     1       4.913  -1.024   5.670  0.00  0.00    -0.191 NA
ENDBRANCH   5  22
BRANCH   2  24
ATOM     24  C   UNL     1       0.793  -4.565   1.612  0.00  0.00    +0.150 C 
BRANCH  24  25
ATOM     25  S   UNL     1       2.026  -5.492   0.658  0.00  0.00    -0.097 S 
BRANCH  25  26
ATOM     26  C   UNL     1       1.064  -6.466  -0.451  0.00  0.00    +0.115 A 
ATOM     27  C   UNL     1       1.702  -7.331  -1.357  0.00  0.00    +0.086 A 
ATOM     28  C   UNL     1       0.916  -8.095  -2.227  0.00  0.00    -0.029 A 
ATOM     29  C   UNL     1      -0.460  -7.964  -2.157  0.00  0.00    +0.027 A 
ATOM     30  C   UNL     1      -1.015  -7.091  -1.238  0.00  0.00    +0.040 A 
ATOM     31  N   UNL     1      -0.258  -6.383  -0.423  0.00  0.00    -0.244 NA
ATOM     32  C   UNL     1      -2.514  -6.951  -1.164  0.00  0.00    +0.065 C 
ATOM     33  C   UNL     1       1.553  -9.036  -3.217  0.00  0.00    +0.045 C 
BRANCH  27  34
ATOM     34  C   UNL     1       3.131  -7.428  -1.389  0.00  0.00    +0.102 C 
ATOM     35  N   UNL     1       4.264  -7.506  -1.415  0.00  0.00    -0.191 NA
ENDBRANCH  27  34
ENDBRANCH  25  26
ENDBRANCH  24  25
ENDBRANCH   2  24
TORSDOF 10
