REMARK  Name = ZINC13042245
REMARK  16 active torsions:
REMARK  status: ('A' for Active; 'I' for Inactive)
REMARK    1  A    between atoms: C_1  and  C_2
REMARK    2  A    between atoms: C_2  and  O_3
REMARK    3  A    between atoms: O_3  and  C_4
REMARK    4  A    between atoms: C_4  and  C_6
REMARK    5  A    between atoms: C_7  and  C_30
REMARK    6  A    between atoms: C_8  and  C_26
REMARK    7  A    between atoms: C_10  and  N_11
REMARK    8  A    between atoms: C_12  and  C_14
REMARK    9  A    between atoms: C_14  and  N_62
REMARK   10  A    between atoms: C_15  and  N_62
REMARK   11  A    between atoms: C_16  and  C_17
REMARK   12  A    between atoms: C_16  and  N_62
REMARK   13  A    between atoms: C_20  and  C_23
REMARK   14  A    between atoms: C_23  and  C_24
REMARK   15  A    between atoms: C_23  and  C_25
REMARK   16  A    between atoms: N_28  and  C_29
REMARK                            x       y       z     vdW  Elec       q    Type
REMARK                         _______ _______ _______ _____ _____    ______ ____
ROOT
ATOM      1  N   UNL     1      -1.118   5.347   0.042  0.00  0.00    -0.281 N 
ATOM      2  C   UNL     1      -2.454   5.522   0.055  0.00  0.00    +0.201 C 
ATOM      3  O   UNL     1      -3.191   4.559   0.057  0.00  0.00    -0.278 OA
ATOM      4  H   UNL     1      -0.528   6.118   0.040  0.00  0.00    +0.155 HD
ENDROOT
BRANCH   1   9
ATOM      5  C   UNL     1       0.757   3.687   0.015  0.00  0.00    +0.091 A 
ATOM      6  C   UNL     1       1.039   2.329   0.005  0.00  0.00    -0.015 A 
ATOM      7  C   UNL     1      -0.018   1.460   0.010  0.00  0.00    +0.079 A 
ATOM      8  S   UNL     1      -1.425   2.554   0.021  0.00  0.00    -0.068 S 
ATOM      9  C   UNL     1      -0.588   4.072   0.030  0.00  0.00    +0.087 A 
ATOM     10  C   UNL     1       2.460   1.828  -0.011  0.00  0.00    +0.046 C 
BRANCH   7  11
ATOM     11  C   UNL     1       0.002  -0.004   0.002  0.00  0.00    +0.251 C 
ATOM     12  O   UNL     1       1.064  -0.598  -0.011  0.00  0.00    -0.270 OA
ATOM     13  N   UNL     1      -1.156  -0.694   0.009  0.00  0.00    -0.314 N 
ATOM     14  C   UNL     1      -1.136  -2.159   0.001  0.00  0.00    +0.128 C 
ATOM     15  H   UNL     1      -2.002  -0.220   0.020  0.00  0.00    +0.149 HD
ENDBRANCH   7  11
BRANCH   5  16
ATOM     16  C   UNL     1       1.832   4.685   0.010  0.00  0.00    +0.342 C 
ATOM     17  O   UNL     1       2.268   5.105  -1.045  0.00  0.00    -0.245 OA
BRANCH  16  18
ATOM     18  O   UNL     1       2.337   5.138   1.176  0.00  0.00    -0.461 OA
BRANCH  18  20
ATOM     19  C   UNL     1       3.840   6.515   2.507  0.00  0.00    +0.048 C 
ATOM     20  C   UNL     1       3.399   6.125   1.095  0.00  0.00    +0.229 C 
ENDBRANCH  18  20
ENDBRANCH  16  18
ENDBRANCH   5  16
ENDBRANCH   1   9
BRANCH   2  21
ATOM     21  C   UNL     1      -3.033   6.913   0.068  0.00  0.00    +0.019 C 
BRANCH  21  23
ATOM     22  C   UNL     1      -4.983   6.243   1.337  0.00  0.00    -0.095 C 
ATOM     23  N   UNL     1      -4.507   6.817   0.060  0.00  0.00    +0.386 N 
ATOM     24  H   UNL     1      -4.797   6.203  -0.710  0.00  0.00    -0.081 HD
BRANCH  23  25
ATOM     25  C   UNL     1      -5.100   8.155  -0.143  0.00  0.00    -0.043 C 
BRANCH  25  26
ATOM     26  C   UNL     1      -6.582   8.002  -0.367  0.00  0.00    -0.064 A 
ATOM     27  C   UNL     1      -7.073   7.822  -1.647  0.00  0.00    +0.002 A 
ATOM     28  C   UNL     1      -8.432   7.677  -1.852  0.00  0.00    +0.004 A 
ATOM     29  C   UNL     1      -9.302   7.720  -0.778  0.00  0.00    -0.045 A 
ATOM     30  C   UNL     1      -8.812   7.904   0.501  0.00  0.00    +0.004 A 
ATOM     31  C   UNL     1      -7.452   8.045   0.706  0.00  0.00    +0.002 A 
BRANCH  29  32
ATOM     32  C   UNL     1     -10.784   7.565  -1.002  0.00  0.00    +0.013 C 
ATOM     33  C   UNL     1     -11.280   8.681  -1.924  0.00  0.00    +0.012 C 
ATOM     34  C   UNL     1     -11.063   6.207  -1.650  0.00  0.00    +0.012 C 
ENDBRANCH  29  32
ENDBRANCH  25  26
ENDBRANCH  23  25
ENDBRANCH  21  23
ENDBRANCH   2  21
TORSDOF 10
