REMARK  Name = ZINC39932472
REMARK  14 active torsions:
REMARK  status: ('A' for Active; 'I' for Inactive)
REMARK    1  A    between atoms: C_1  and  O_2
REMARK    2  A    between atoms: O_2  and  C_3
REMARK    3  A    between atoms: C_5  and  C_13
REMARK    4  A    between atoms: C_7  and  O_11
REMARK    5  A    between atoms: C_8  and  O_9
REMARK    6  A    between atoms: O_9  and  C_10
REMARK    7  A    between atoms: O_11  and  C_12
REMARK    8  A    between atoms: C_17  and  O_31
REMARK    9  A    between atoms: C_18  and  O_29
REMARK   10  A    between atoms: N_23  and  C_24
REMARK   11  A    between atoms: C_24  and  C_25
REMARK   12  A    between atoms: N_26  and  O_27
REMARK   13  A    between atoms: O_29  and  C_30
REMARK   14  A    between atoms: O_31  and  C_32
REMARK                            x       y       z     vdW  Elec       q    Type
REMARK                         _______ _______ _______ _____ _____    ______ ____
ROOT
ATOM      1  C   UNL     1       2.402   0.386  -4.230  0.00  0.00    -0.006 C 
ATOM      2  C   UNL     1       1.449   0.461  -5.395  0.00  0.00    -0.050 A 
ATOM      3  C   UNL     1       0.096   0.622  -5.133  0.00  0.00    +0.052 A 
ATOM      4  C   UNL     1      -0.813   0.699  -6.172  0.00  0.00    +0.162 A 
ATOM      5  C   UNL     1      -0.367   0.613  -7.488  0.00  0.00    +0.162 A 
ATOM      6  C   UNL     1       0.983   0.451  -7.744  0.00  0.00    +0.053 A 
ATOM      7  C   UNL     1       1.890   0.374  -6.698  0.00  0.00    -0.044 A 
ATOM      8  C   UNL     1       3.351   0.189  -7.023  0.00  0.00    +0.017 C 
ATOM      9  C   UNL     1       4.200   0.527  -5.798  0.00  0.00    -0.072 C 
ATOM     10  N   UNL     1       3.674  -0.215  -4.643  0.00  0.00    +0.392 N 
ATOM     11  H   UNL     1       3.524  -1.179  -4.900  0.00  0.00    -0.080 HD
ENDROOT
BRANCH   1  14
ATOM     12  C   UNL     1       0.606  -0.608  -1.056  0.00  0.00    +0.165 A 
ATOM     13  C   UNL     1       1.173   0.160  -2.063  0.00  0.00    +0.052 A 
ATOM     14  C   UNL     1       1.787  -0.452  -3.139  0.00  0.00    -0.050 A 
ATOM     15  C   UNL     1       1.839  -1.831  -3.217  0.00  0.00    +0.052 A 
ATOM     16  C   UNL     1       1.275  -2.606  -2.215  0.00  0.00    +0.165 A 
ATOM     17  C   UNL     1       0.661  -1.994  -1.128  0.00  0.00    +0.204 A 
BRANCH  12  19
ATOM     18  C   UNL     1      -0.017   1.425   0.010  0.00  0.00    +0.277 C 
ATOM     19  O   UNL     1       0.002  -0.004   0.002  0.00  0.00    -0.491 OA
ENDBRANCH  12  19
BRANCH  17  20
ATOM     20  O   UNL     1       0.111  -2.751  -0.140  0.00  0.00    -0.488 OA
ATOM     21  C   UNL     1      -1.260  -3.124  -0.295  0.00  0.00    +0.277 C 
ENDBRANCH  17  20
BRANCH  16  22
ATOM     22  O   UNL     1       1.326  -3.963  -2.293  0.00  0.00    -0.491 OA
ATOM     23  C   UNL     1       1.977  -4.523  -3.435  0.00  0.00    +0.277 C 
ENDBRANCH  16  22
ENDBRANCH   1  14
BRANCH   5  24
ATOM     24  O   UNL     1      -1.254   0.689  -8.516  0.00  0.00    -0.491 OA
ATOM     25  C   UNL     1      -0.722   0.594  -9.839  0.00  0.00    +0.277 C 
ENDBRANCH   5  24
BRANCH   4  26
ATOM     26  O   UNL     1      -2.138   0.857  -5.909  0.00  0.00    -0.491 OA
ATOM     27  C   UNL     1      -2.522   0.937  -4.535  0.00  0.00    +0.277 C 
ENDBRANCH   4  26
BRANCH  10  28
ATOM     28  C   UNL     1       4.634  -0.143  -3.534  0.00  0.00    -0.002 C 
BRANCH  28  29
ATOM     29  C   UNL     1       5.898  -0.868  -3.916  0.00  0.00    +0.115 C 
ATOM     30  N   UNL     1       5.996  -1.428  -5.076  0.00  0.00    -0.079 NA
ATOM     31  N   UNL     1       6.949  -0.935  -3.028  0.00  0.00    -0.345 N 
ATOM     32  H   UNL     1       6.876  -0.515  -2.157  0.00  0.00    +0.143 HD
ATOM     33  H   UNL     1       7.763  -1.402  -3.274  0.00  0.00    +0.143 HD
BRANCH  30  34
ATOM     34  O   UNL     1       7.184  -2.110  -5.435  0.00  0.00    -0.408 OA
ATOM     35  H   UNL     1       7.163  -2.496  -6.322  0.00  0.00    +0.328 HD
ENDBRANCH  30  34
ENDBRANCH  28  29
ENDBRANCH  10  28
TORSDOF 9
