REMARK  Name = ZINC08789393
REMARK  8 active torsions:
REMARK  status: ('A' for Active; 'I' for Inactive)
REMARK    1  A    between atoms: C_1  and  C_2
REMARK    2  A    between atoms: C_2  and  O_3
REMARK    3  A    between atoms: O_3  and  C_4
REMARK    4  A    between atoms: C_4  and  C_6
REMARK    5  A    between atoms: C_9  and  N_12
REMARK    6  A    between atoms: C_17  and  C_35
REMARK    7  A    between atoms: C_28  and  C_33
REMARK    8  A    between atoms: C_35  and  C_36
REMARK                            x       y       z     vdW  Elec       q    Type
REMARK                         _______ _______ _______ _____ _____    ______ ____
ROOT
ATOM      1  N   UNL     1       2.111   1.718   3.024  0.00  0.00    -0.210 N 
ATOM      2  C   UNL     1       1.442   0.702   2.466  0.00  0.00    +0.228 C 
ATOM      3  O   UNL     1       1.946  -0.237   1.890  0.00  0.00    -0.275 OA
ATOM      4  C   UNL     1      -0.043   0.910   2.664  0.00  0.00    +0.074 C 
ATOM      5  C   UNL     1      -0.705   1.196   1.300  0.00  0.00    -0.049 C 
ATOM      6  C   UNL     1      -0.797   3.224   2.458  0.00  0.00    +0.050 C 
ATOM      7  C   UNL     1      -0.116   2.257   3.436  0.00  0.00    +0.088 C 
ATOM      8  C   UNL     1       1.337   2.644   3.600  0.00  0.00    +0.229 C 
ATOM      9  O   UNL     1       1.737   3.639   4.165  0.00  0.00    -0.275 OA
ATOM     10  C   UNL     1      -0.236   4.612   2.580  0.00  0.00    -0.027 A 
ATOM     11  C   UNL     1       1.026   5.141   2.428  0.00  0.00    +0.006 A 
ATOM     12  C   UNL     1       1.236   6.496   2.612  0.00  0.00    +0.020 A 
ATOM     13  C   UNL     1       0.175   7.318   2.949  0.00  0.00    +0.046 A 
ATOM     14  C   UNL     1      -1.092   6.792   3.102  0.00  0.00    -0.011 A 
ATOM     15  C   UNL     1      -1.312   5.429   2.918  0.00  0.00    +0.040 A 
ATOM     16  N   UNL     1      -2.481   4.672   3.013  0.00  0.00    -0.286 N 
ATOM     17  C   UNL     1      -2.264   3.367   2.758  0.00  0.00    +0.211 C 
ATOM     18  O   UNL     1      -3.091   2.480   2.768  0.00  0.00    -0.277 OA
ATOM     19  C   UNL     1      -2.242   7.695   3.468  0.00  0.00    +0.047 C 
ATOM     20 CL   UNL     1       0.438   9.018   3.181  0.00  0.00    -0.083 Cl
ATOM     21  H   UNL     1      -3.349   5.042   3.238  0.00  0.00    +0.155 HD
ATOM     22  N   UNL     1      -0.582   2.647   1.142  0.00  0.00    +0.394 N 
ATOM     23  H   UNL     1      -1.289   2.993   0.483  0.00  0.00    -0.083 HD
ATOM     24  H   UNL     1       0.355   2.889   0.798  0.00  0.00    -0.083 HD
ENDROOT
BRANCH   1  28
ATOM     25  C   UNL     1       6.272   1.973   2.973  0.00  0.00    +0.059 A 
ATOM     26  C   UNL     1       5.597   1.772   4.180  0.00  0.00    +0.017 A 
ATOM     27  C   UNL     1       4.223   1.688   4.193  0.00  0.00    +0.025 A 
ATOM     28  C   UNL     1       3.506   1.803   3.007  0.00  0.00    +0.044 A 
ATOM     29  C   UNL     1       4.174   1.998   1.803  0.00  0.00    +0.025 A 
ATOM     30  C   UNL     1       5.548   2.088   1.783  0.00  0.00    +0.017 A 
BRANCH  25  31
ATOM     31  C   UNL     1       7.744   2.063   2.955  0.00  0.00    +0.339 C 
ATOM     32  O   UNL     1       8.372   1.963   3.990  0.00  0.00    -0.245 OA
BRANCH  31  33
ATOM     33  O   UNL     1       8.393   2.257   1.790  0.00  0.00    -0.461 OA
BRANCH  33  35
ATOM     34  C   UNL     1      10.397   2.557   0.439  0.00  0.00    +0.048 C 
ATOM     35  C   UNL     1       9.842   2.336   1.848  0.00  0.00    +0.229 C 
ENDBRANCH  33  35
ENDBRANCH  31  33
ENDBRANCH  25  31
ENDBRANCH   1  28
BRANCH   5  36
ATOM     36  C   UNL     1       0.029   0.449   0.185  0.00  0.00    +0.080 C 
BRANCH  36  37
ATOM     37  C   UNL     1      -0.685   0.673  -1.123  0.00  0.00    +0.209 C 
ATOM     38  O   UNL     1      -1.681   1.363  -1.160  0.00  0.00    -0.276 OA
ATOM     39  N   UNL     1      -0.215   0.107  -2.253  0.00  0.00    -0.329 N 
ATOM     40  H   UNL     1       0.583  -0.444  -2.223  0.00  0.00    +0.145 HD
ATOM     41  H   UNL     1      -0.674   0.252  -3.095  0.00  0.00    +0.145 HD
ENDBRANCH  36  37
ENDBRANCH   5  36
TORSDOF 6
