REMARK  Name = ZINC09510504
REMARK  13 active torsions:
REMARK  status: ('A' for Active; 'I' for Inactive)
REMARK    1  A    between atoms: C_1  and  C_2
REMARK    2  A    between atoms: C_7  and  C_8
REMARK    3  A    between atoms: N_11  and  C_12
REMARK    4  A    between atoms: C_12  and  C_14
REMARK    5  A    between atoms: C_17  and  S_20
REMARK    6  A    between atoms: S_20  and  N_23
REMARK    7  A    between atoms: N_23  and  C_24
REMARK    8  A    between atoms: N_23  and  C_25
REMARK    9  A    between atoms: C_25  and  C_26
REMARK   10  A    between atoms: N_32  and  C_33
REMARK   11  A    between atoms: C_33  and  C_34
REMARK   12  A    between atoms: C_34  and  O_35
REMARK   13  A    between atoms: O_35  and  C_36
REMARK                            x       y       z     vdW  Elec       q    Type
REMARK                         _______ _______ _______ _____ _____    ______ ____
ROOT
ATOM      1  C   UNL     1      -2.541   3.899   0.118  0.00  0.00    +0.269 C 
ATOM      2  O   UNL     1      -2.562   5.118   0.106  0.00  0.00    -0.268 OA
ENDROOT
BRANCH   1  13
ATOM      3  C   UNL     1     -10.988   4.375  -0.043  0.00  0.00    +0.044 C 
ATOM      4  C   UNL     1      -9.538   4.785  -0.021  0.00  0.00    -0.046 A 
ATOM      5  C   UNL     1      -8.563   3.816   0.008  0.00  0.00    +0.030 A 
ATOM      6  C   UNL     1      -7.204   4.166   0.030  0.00  0.00    +0.058 A 
ATOM      7  C   UNL     1      -6.904   5.536   0.021  0.00  0.00    +0.039 A 
ATOM      8  C   UNL     1      -7.879   6.504  -0.008  0.00  0.00    +0.020 A 
ATOM      9  C   UNL     1      -9.212   6.131  -0.029  0.00  0.00    -0.046 A 
ATOM     10  C   UNL     1     -10.296   7.178  -0.060  0.00  0.00    +0.044 C 
ATOM     11  S   UNL     1      -5.129   5.565   0.053  0.00  0.00    -0.052 S 
ATOM     12  C   UNL     1      -4.848   3.854   0.076  0.00  0.00    +0.167 A 
ATOM     13  N   UNL     1      -3.686   3.210   0.104  0.00  0.00    -0.152 NA
ATOM     14  N   UNL     1      -6.103   3.329   0.052  0.00  0.00    -0.319 N 
BRANCH  14  15
ATOM     15  C   UNL     1      -6.289   1.876   0.056  0.00  0.00    +0.152 C 
BRANCH  15  16
ATOM     16  C   UNL     1      -5.191   1.220  -0.785  0.00  0.00    +0.181 C 
BRANCH  16  17
ATOM     17  O   UNL     1      -5.449  -0.181  -0.893  0.00  0.00    -0.381 OA
ATOM     18  C   UNL     1      -4.477  -0.893  -1.663  0.00  0.00    +0.194 C 
ENDBRANCH  16  17
ENDBRANCH  15  16
ENDBRANCH  14  15
ENDBRANCH   1  13
BRANCH   1  19
ATOM     19  C   UNL     1      -1.245   3.181   0.149  0.00  0.00    +0.039 A 
ATOM     20  C   UNL     1      -1.218   1.787   0.158  0.00  0.00    +0.015 A 
ATOM     21  C   UNL     1      -0.008   1.124   0.191  0.00  0.00    +0.029 A 
ATOM     22  C   UNL     1       1.176   1.840   0.206  0.00  0.00    +0.106 A 
ATOM     23  C   UNL     1       1.155   3.223   0.193  0.00  0.00    +0.029 A 
ATOM     24  C   UNL     1      -0.048   3.897   0.164  0.00  0.00    +0.015 A 
BRANCH  22  25
ATOM     25  S   UNL     1       2.717   0.986   0.243  0.00  0.00    +0.061 S 
ATOM     26  O   UNL     1       3.666   1.884   0.802  0.00  0.00    -0.153 OA
ATOM     27  O   UNL     1       2.458  -0.295   0.801  0.00  0.00    -0.153 OA
BRANCH  25  28
ATOM     28  N   UNL     1       3.174   0.733  -1.329  0.00  0.00    -0.177 NA
ATOM     29  C   UNL     1       3.991   1.731  -2.023  0.00  0.00    +0.131 C 
BRANCH  28  30
ATOM     30  C   UNL     1       2.761  -0.488  -2.025  0.00  0.00    +0.140 C 
BRANCH  30  31
ATOM     31  C   UNL     1       1.486  -0.214  -2.823  0.00  0.00    +0.134 C 
ATOM     32  C   UNL     1       1.043  -1.493  -3.559  0.00  0.00    +0.035 C 
ATOM     33  C   UNL     1      -0.386  -1.762  -3.027  0.00  0.00    +0.031 C 
ATOM     34  C   UNL     1      -0.802  -0.367  -2.494  0.00  0.00    +0.160 C 
ATOM     35  O   UNL     1       0.421   0.156  -1.931  0.00  0.00    -0.375 OA
ENDBRANCH  30  31
ENDBRANCH  28  30
ENDBRANCH  25  28
ENDBRANCH  22  25
ENDBRANCH   1  19
TORSDOF 9
