REMARK  Name = ZINC65021963
REMARK  7 active torsions:
REMARK  status: ('A' for Active; 'I' for Inactive)
REMARK    1  A    between atoms: C_1  and  C_2
REMARK    2  A    between atoms: C_6  and  C_7
REMARK    3  A    between atoms: C_7  and  C_8
REMARK    4  A    between atoms: C_8  and  N_9
REMARK    5  A    between atoms: N_9  and  S_10
REMARK    6  A    between atoms: S_10  and  C_13
REMARK    7  A    between atoms: C_22  and  C_25
REMARK                            x       y       z     vdW  Elec       q    Type
REMARK                         _______ _______ _______ _____ _____    ______ ____
ROOT
ATOM      1  C   UNL     1      -3.937  -0.210   5.257  0.00  0.00    +0.107 A 
ATOM      2  C   UNL     1      -4.789  -0.458   4.196  0.00  0.00    +0.030 A 
ATOM      3  C   UNL     1      -5.696  -1.499   4.270  0.00  0.00    +0.018 A 
ATOM      4  C   UNL     1      -5.749  -2.289   5.407  0.00  0.00    +0.030 A 
ATOM      5  C   UNL     1      -4.898  -2.041   6.483  0.00  0.00    +0.049 A 
ATOM      6  C   UNL     1      -3.983  -0.997   6.390  0.00  0.00    +0.053 A 
ATOM      7  N   UNL     1      -4.943  -2.803   7.647  0.00  0.00    -0.283 N 
ATOM      8  C   UNL     1      -5.926  -3.613   8.028  0.00  0.00    +0.240 C 
ATOM      9  O   UNL     1      -5.761  -4.292   9.019  0.00  0.00    -0.274 OA
ATOM     10  C   UNL     1      -7.233  -3.729   7.288  0.00  0.00    +0.223 C 
ATOM     11  S   UNL     1      -6.896  -3.628   5.503  0.00  0.00    -0.101 S 
ATOM     12  H   UNL     1      -4.179  -2.735   8.242  0.00  0.00    +0.155 HD
ENDROOT
BRANCH  10  13
ATOM     13  C   UNL     1      -8.149  -2.605   7.699  0.00  0.00    +0.238 C 
ATOM     14  O   UNL     1      -7.684  -1.536   8.036  0.00  0.00    -0.274 OA
ATOM     15  N   UNL     1      -9.484  -2.787   7.693  0.00  0.00    -0.300 N 
ATOM     16  C   UNL     1     -10.002  -4.106   7.406  0.00  0.00    +0.108 C 
ATOM     17  C   UNL     1     -10.209  -4.262   5.879  0.00  0.00    +0.019 C 
ATOM     18  C   UNL     1     -11.349  -3.447   5.432  0.00  0.00    +0.002 C 
ATOM     19  C   UNL     1     -11.167  -1.946   5.637  0.00  0.00    +0.002 C 
ATOM     20  C   UNL     1     -11.577  -1.580   7.042  0.00  0.00    +0.019 C 
ATOM     21  C   UNL     1     -10.357  -1.633   7.986  0.00  0.00    +0.108 C 
ENDBRANCH  10  13
BRANCH   1  22
ATOM     22  S   UNL     1      -2.779   1.115   5.158  0.00  0.00    +0.058 S 
ATOM     23  O   UNL     1      -2.463   1.479   6.494  0.00  0.00    -0.153 OA
ATOM     24  O   UNL     1      -3.304   2.043   4.219  0.00  0.00    -0.153 OA
BRANCH  22  25
ATOM     25  N   UNL     1      -1.391   0.503   4.493  0.00  0.00    -0.190 NA
ATOM     26  H   UNL     1      -0.576   0.471   5.017  0.00  0.00    +0.148 HD
BRANCH  25  27
ATOM     27  C   UNL     1      -1.395   0.009   3.114  0.00  0.00    +0.111 C 
BRANCH  27  28
ATOM     28  C   UNL     1       0.046  -0.145   2.623  0.00  0.00    +0.059 C 
BRANCH  28  34
ATOM     29  C   UNL     1       0.007   1.558   0.067  0.00  0.00    +0.044 C 
ATOM     30  C   UNL     1       0.025   0.052   0.046  0.00  0.00    -0.040 A 
ATOM     31  C   UNL     1       0.032  -0.633  -1.155  0.00  0.00    +0.011 A 
ATOM     32  C   UNL     1       0.049  -1.988  -1.139  0.00  0.00    +0.046 A 
ATOM     33  S   UNL     1       0.056  -2.337   0.612  0.00  0.00    -0.101 S 
ATOM     34  C   UNL     1       0.042  -0.652   1.204  0.00  0.00    -0.006 A 
ENDBRANCH  28  34
ENDBRANCH  27  28
ENDBRANCH  25  27
ENDBRANCH  22  25
ENDBRANCH   1  22
TORSDOF 6
