REMARK  Name = ZINC33923913
REMARK  9 active torsions:
REMARK  status: ('A' for Active; 'I' for Inactive)
REMARK    1  A    between atoms: C_1  and  C_2
REMARK    2  A    between atoms: N_8  and  C_9
REMARK    3  A    between atoms: C_9  and  C_10
REMARK    4  A    between atoms: C_11  and  C_21
REMARK    5  A    between atoms: N_23  and  N_24
REMARK    6  A    between atoms: C_25  and  C_26
REMARK    7  A    between atoms: C_29  and  C_32
REMARK    8  A    between atoms: C_32  and  C_33
REMARK    9  A    between atoms: C_32  and  C_34
REMARK                            x       y       z     vdW  Elec       q    Type
REMARK                         _______ _______ _______ _____ _____    ______ ____
ROOT
ATOM      1  C   UNL     1       1.570  -1.008   2.894  0.00  0.00    +0.063 A 
ATOM      2  C   UNL     1       1.367  -2.144   3.625  0.00  0.00    +0.170 A 
ATOM      3  N   UNL     1       2.522  -2.475   4.228  0.00  0.00    -0.124 NA
ATOM      4  N   UNL     1       3.431  -1.617   3.919  0.00  0.00    -0.058 NA
ATOM      5  N   UNL     1       2.866  -0.662   3.062  0.00  0.00    -0.194 N 
ATOM      6  C   UNL     1       3.517   0.437   2.492  0.00  0.00    +0.240 A 
ATOM      7  C   UNL     1       4.926   0.792   2.681  0.00  0.00    +0.206 A 
ATOM      8  N   UNL     1       5.173   1.875   1.996  0.00  0.00    -0.032 NA
ATOM      9  O   UNL     1       3.972   2.261   1.350  0.00  0.00    -0.239 OA
ATOM     10  N   UNL     1       2.975   1.317   1.698  0.00  0.00    -0.027 NA
ATOM     11  N   UNL     1       5.844   0.095   3.459  0.00  0.00    -0.337 N 
ATOM     12  H   UNL     1       5.568  -0.704   3.936  0.00  0.00    +0.144 HD
ATOM     13  H   UNL     1       6.760   0.407   3.525  0.00  0.00    +0.144 HD
ENDROOT
BRANCH   2  14
ATOM     14  C   UNL     1       0.095  -2.883   3.734  0.00  0.00    +0.285 C 
ATOM     15  O   UNL     1      -0.891  -2.488   3.140  0.00  0.00    -0.267 OA
ATOM     16  N   UNL     1       0.025  -3.996   4.490  0.00  0.00    -0.202 N 
ATOM     17  H   UNL     1       0.811  -4.311   4.964  0.00  0.00    +0.178 HD
BRANCH  16  18
ATOM     18  N   UNL     1      -1.183  -4.698   4.594  0.00  0.00    -0.187 NA
ATOM     19  C   UNL     1      -1.284  -5.699   5.413  0.00  0.00    +0.138 C 
BRANCH  19  20
ATOM     20  C   UNL     1      -0.352  -5.818   6.550  0.00  0.00    -0.005 A 
ATOM     21  C   UNL     1      -0.262  -7.017   7.261  0.00  0.00    +0.010 A 
ATOM     22  C   UNL     1       0.612  -7.121   8.323  0.00  0.00    +0.004 A 
ATOM     23  C   UNL     1       1.398  -6.041   8.685  0.00  0.00    -0.045 A 
ATOM     24  C   UNL     1       1.313  -4.851   7.986  0.00  0.00    +0.004 A 
ATOM     25  C   UNL     1       0.449  -4.734   6.918  0.00  0.00    +0.010 A 
BRANCH  23  26
ATOM     26  C   UNL     1       2.350  -6.163   9.847  0.00  0.00    +0.013 C 
ATOM     27  C   UNL     1       3.780  -5.915   9.363  0.00  0.00    +0.012 C 
ATOM     28  C   UNL     1       1.986  -5.129  10.915  0.00  0.00    +0.012 C 
ENDBRANCH  23  26
ENDBRANCH  19  20
ENDBRANCH  16  18
ENDBRANCH   2  14
BRANCH   1  29
ATOM     29  C   UNL     1       0.548  -0.283   2.057  0.00  0.00    -0.019 C 
BRANCH  29  36
ATOM     30  C   UNL     1       0.063   1.439  -0.107  0.00  0.00    -0.013 C 
ATOM     31  C   UNL     1      -0.346  -0.035  -0.153  0.00  0.00    -0.071 C 
ATOM     32  C   UNL     1      -0.272  -0.540  -1.596  0.00  0.00    -0.016 C 
ATOM     33  C   UNL     1      -0.681  -2.015  -1.637  0.00  0.00    -0.003 C 
ATOM     34  C   UNL     1       0.226  -2.812  -0.695  0.00  0.00    -0.019 C 
ATOM     35  C   UNL     1       0.133  -2.224   0.714  0.00  0.00    -0.078 C 
ATOM     36  N   UNL     1       0.563  -0.820   0.691  0.00  0.00    +0.385 N 
ATOM     37  H   UNL     1       1.500  -0.762   0.319  0.00  0.00    -0.081 HD
ENDBRANCH  29  36
ENDBRANCH   1  29
TORSDOF 6
