REMARK  Name = ZINC09570517
REMARK  8 active torsions:
REMARK  status: ('A' for Active; 'I' for Inactive)
REMARK    1  A    between atoms: C_4  and  C_7
REMARK    2  A    between atoms: C_7  and  C_8
REMARK    3  A    between atoms: C_11  and  S_20
REMARK    4  A    between atoms: N_12  and  C_13
REMARK    5  A    between atoms: S_20  and  C_21
REMARK    6  A    between atoms: C_21  and  C_22
REMARK    7  A    between atoms: N_24  and  N_25
REMARK    8  A    between atoms: C_26  and  C_28
REMARK                            x       y       z     vdW  Elec       q    Type
REMARK                         _______ _______ _______ _____ _____    ______ ____
ROOT
ATOM      1  C   UNL     1      -3.620  -8.907   0.014  0.00  0.00    +0.143 A 
ATOM      2  N   UNL     1      -2.340  -8.773  -0.188  0.00  0.00    -0.133 NA
ATOM      3  N   UNL     1      -2.029  -7.527  -0.242  0.00  0.00    -0.122 NA
ATOM      4  C   UNL     1      -3.103  -6.790  -0.075  0.00  0.00    +0.197 A 
ATOM      5  N   UNL     1      -4.153  -7.649   0.099  0.00  0.00    -0.274 N 
ENDROOT
BRANCH   5   6
ATOM      6  C   UNL     1      -5.497  -7.310   0.316  0.00  0.00    +0.050 A 
ATOM      7  C   UNL     1      -6.100  -7.602   1.532  0.00  0.00    +0.028 A 
ATOM      8  C   UNL     1      -7.422  -7.264   1.745  0.00  0.00    +0.022 A 
ATOM      9  C   UNL     1      -8.149  -6.644   0.743  0.00  0.00    +0.041 A 
ATOM     10  C   UNL     1      -7.551  -6.356  -0.471  0.00  0.00    +0.022 A 
ATOM     11  C   UNL     1      -6.228  -6.688  -0.687  0.00  0.00    +0.028 A 
ATOM     12 CL   UNL     1      -9.812  -6.225   1.012  0.00  0.00    -0.084 Cl
ENDBRANCH   5   6
BRANCH   1  13
ATOM     13  C   UNL     1      -4.373 -10.207   0.138  0.00  0.00    +0.111 C 
BRANCH  13  17
ATOM     14  C   UNL     1      -5.402 -11.634  -3.754  0.00  0.00    +0.000 A 
ATOM     15  C   UNL     1      -4.160 -11.920  -3.219  0.00  0.00    +0.000 A 
ATOM     16  C   UNL     1      -3.827 -11.458  -1.960  0.00  0.00    +0.004 A 
ATOM     17  C   UNL     1      -4.736 -10.710  -1.235  0.00  0.00    -0.040 A 
ATOM     18  C   UNL     1      -5.980 -10.429  -1.768  0.00  0.00    +0.004 A 
ATOM     19  C   UNL     1      -6.311 -10.886  -3.030  0.00  0.00    +0.000 A 
ENDBRANCH  13  17
ENDBRANCH   1  13
BRANCH   4  20
ATOM     20  S   UNL     1      -3.175  -5.030  -0.069  0.00  0.00    -0.076 S 
BRANCH  20  21
ATOM     21  C   UNL     1      -1.429  -4.642  -0.346  0.00  0.00    +0.174 C 
BRANCH  21  22
ATOM     22  C   UNL     1      -1.246  -3.147  -0.380  0.00  0.00    +0.239 C 
ATOM     23  O   UNL     1      -2.202  -2.415  -0.231  0.00  0.00    -0.273 OA
ATOM     24  N   UNL     1      -0.020  -2.622  -0.575  0.00  0.00    -0.233 N 
ATOM     25  H   UNL     1       0.745  -3.208  -0.693  0.00  0.00    +0.173 HD
BRANCH  24  26
ATOM     26  N   UNL     1       0.151  -1.232  -0.606  0.00  0.00    -0.230 N 
ATOM     27  C   UNL     1       1.377  -0.708  -0.801  0.00  0.00    +0.260 C 
ATOM     28  O   UNL     1       2.335  -1.441  -0.950  0.00  0.00    -0.269 OA
ATOM     29  H   UNL     1      -0.614  -0.647  -0.487  0.00  0.00    +0.173 HD
BRANCH  27  30
ATOM     30  C   UNL     1       1.557   0.759  -0.834  0.00  0.00    +0.038 A 
ATOM     31  C   UNL     1       0.458   1.604  -0.669  0.00  0.00    +0.013 A 
ATOM     32  C   UNL     1       0.634   2.972  -0.695  0.00  0.00    +0.001 A 
ATOM     33  C   UNL     1       1.894   3.507  -0.896  0.00  0.00    +0.000 A 
ATOM     34  C   UNL     1       2.986   2.675  -1.065  0.00  0.00    +0.001 A 
ATOM     35  C   UNL     1       2.825   1.306  -1.036  0.00  0.00    +0.013 A 
ENDBRANCH  27  30
ENDBRANCH  24  26
ENDBRANCH  21  22
ENDBRANCH  20  21
ENDBRANCH   4  20
TORSDOF 8
