REMARK  Name = ZINC08857543
REMARK  9 active torsions:
REMARK  status: ('A' for Active; 'I' for Inactive)
REMARK    1  A    between atoms: C_1  and  C_2
REMARK    2  A    between atoms: C_4  and  C_35
REMARK    3  A    between atoms: C_5  and  S_9
REMARK    4  A    between atoms: C_7  and  C_8
REMARK    5  A    between atoms: S_9  and  N_12
REMARK    6  A    between atoms: N_12  and  C_13
REMARK    7  A    between atoms: C_15  and  C_24
REMARK    8  A    between atoms: C_16  and  O_23
REMARK    9  A    between atoms: C_33  and  O_34
REMARK                            x       y       z     vdW  Elec       q    Type
REMARK                         _______ _______ _______ _____ _____    ______ ____
ROOT
ATOM      1  C   UNL     1      -0.107   5.309  -0.610  0.00  0.00    +0.057 A 
ATOM      2  C   UNL     1      -1.317   5.842  -0.271  0.00  0.00    +0.037 A 
ATOM      3  C   UNL     1      -2.511   5.173  -0.586  0.00  0.00    +0.030 A 
ATOM      4  C   UNL     1      -2.483   3.953  -1.250  0.00  0.00    +0.132 A 
ATOM      5  C   UNL     1      -1.245   3.387  -1.608  0.00  0.00    +0.026 A 
ATOM      6  C   UNL     1      -0.045   4.071  -1.286  0.00  0.00    +0.008 A 
ATOM      7  C   UNL     1       1.187   3.503  -1.645  0.00  0.00    +0.010 A 
ATOM      8  C   UNL     1       1.215   2.307  -2.296  0.00  0.00    +0.001 A 
ATOM      9  C   UNL     1       0.036   1.635  -2.614  0.00  0.00    +0.001 A 
ATOM     10  C   UNL     1      -1.177   2.158  -2.286  0.00  0.00    +0.012 A 
ENDROOT
BRANCH   3  11
ATOM     11  C   UNL     1      -3.809   5.773  -0.207  0.00  0.00    +0.035 A 
ATOM     12  C   UNL     1      -4.386   5.493   1.055  0.00  0.00    -0.007 A 
ATOM     13  C   UNL     1      -3.743   4.656   1.978  0.00  0.00    +0.009 A 
ATOM     14  C   UNL     1      -4.323   4.412   3.186  0.00  0.00    +0.001 A 
ATOM     15  C   UNL     1      -5.547   4.987   3.522  0.00  0.00    +0.001 A 
ATOM     16  C   UNL     1      -6.197   5.809   2.652  0.00  0.00    +0.008 A 
ATOM     17  C   UNL     1      -5.628   6.083   1.396  0.00  0.00    -0.017 A 
ATOM     18  C   UNL     1      -6.272   6.927   0.475  0.00  0.00    +0.012 A 
ATOM     19  C   UNL     1      -5.704   7.179  -0.736  0.00  0.00    +0.046 A 
ATOM     20  C   UNL     1      -4.479   6.612  -1.089  0.00  0.00    +0.125 A 
BRANCH  20  21
ATOM     21  O   UNL     1      -3.937   6.883  -2.304  0.00  0.00    -0.506 OA
ATOM     22  H   UNL     1      -4.200   6.264  -2.999  0.00  0.00    +0.292 HD
ENDBRANCH  20  21
ENDBRANCH   3  11
BRANCH   1  23
ATOM     23  N   UNL     1       1.070   5.989  -0.288  0.00  0.00    -0.216 N 
ATOM     24  H   UNL     1       1.855   5.894  -0.851  0.00  0.00    +0.174 HD
BRANCH  23  25
ATOM     25  S   UNL     1       1.127   6.958   1.054  0.00  0.00    +0.073 S 
ATOM     26  O   UNL     1       0.531   6.220   2.112  0.00  0.00    -0.150 OA
ATOM     27  O   UNL     1       2.451   7.467   1.131  0.00  0.00    -0.150 OA
BRANCH  25  32
ATOM     28  C   UNL     1      -2.479  11.678  -0.002  0.00  0.00    +0.044 C 
ATOM     29  C   UNL     1      -1.579  10.499   0.262  0.00  0.00    -0.047 A 
ATOM     30  C   UNL     1      -0.475  10.279  -0.541  0.00  0.00    +0.009 A 
ATOM     31  C   UNL     1       0.351   9.198  -0.300  0.00  0.00    -0.024 A 
ATOM     32  C   UNL     1       0.074   8.336   0.746  0.00  0.00    +0.112 A 
ATOM     33  C   UNL     1      -1.032   8.554   1.546  0.00  0.00    +0.032 A 
ATOM     34  C   UNL     1      -1.856   9.638   1.307  0.00  0.00    -0.046 A 
ATOM     35  C   UNL     1      -3.059   9.878   2.182  0.00  0.00    +0.044 C 
ATOM     36  C   UNL     1       1.553   8.958  -1.176  0.00  0.00    +0.046 C 
ENDBRANCH  25  32
ENDBRANCH  23  25
ENDBRANCH   1  23
BRANCH   4  37
ATOM     37  O   UNL     1      -3.642   3.311  -1.551  0.00  0.00    -0.506 OA
ATOM     38  H   UNL     1      -3.945   2.703  -0.862  0.00  0.00    +0.292 HD
ENDBRANCH   4  37
TORSDOF 6
