REMARK  Name = ZINC21248929
REMARK  7 active torsions:
REMARK  status: ('A' for Active; 'I' for Inactive)
REMARK    1  A    between atoms: C_1  and  O_2
REMARK    2  A    between atoms: O_2  and  C_3
REMARK    3  A    between atoms: C_6  and  O_34
REMARK    4  A    between atoms: C_7  and  C_9
REMARK    5  A    between atoms: C_14  and  C_24
REMARK    6  A    between atoms: C_27  and  O_30
REMARK    7  A    between atoms: O_34  and  C_35
REMARK                            x       y       z     vdW  Elec       q    Type
REMARK                         _______ _______ _______ _____ _____    ______ ____
ROOT
ATOM      1  C   UNL     1      -2.919   3.173  -3.836  0.00  0.00    +0.036 C 
ATOM      2  C   UNL     1      -1.898   4.163  -3.280  0.00  0.00    +0.060 C 
ATOM      3  C   UNL     1      -1.611   3.845  -1.821  0.00  0.00    +0.017 C 
ATOM      4  C   UNL     1      -1.635   2.575  -1.386  0.00  0.00    +0.036 C 
ATOM      5  C   UNL     1      -1.333   2.113   0.020  0.00  0.00    +0.136 C 
ATOM      6  N   UNL     1      -1.256   3.179   0.996  0.00  0.00    -0.331 N 
ATOM      7  C   UNL     1      -0.263   4.154   0.922  0.00  0.00    +0.049 A 
ATOM      8  C   UNL     1       0.711   4.271   1.901  0.00  0.00    +0.025 A 
ATOM      9  C   UNL     1       1.704   5.226   1.762  0.00  0.00    +0.002 A 
ATOM     10  C   UNL     1       1.728   6.054   0.655  0.00  0.00    +0.002 A 
ATOM     11  C   UNL     1       0.747   5.951  -0.317  0.00  0.00    +0.025 A 
ATOM     12  C   UNL     1      -0.258   5.011  -0.168  0.00  0.00    +0.052 A 
ATOM     13  N   UNL     1      -1.329   4.925  -1.051  0.00  0.00    -0.316 N 
ATOM     14  C   UNL     1      -1.968   1.524  -2.273  0.00  0.00    +0.163 C 
ATOM     15  O   UNL     1      -1.969   0.383  -1.855  0.00  0.00    -0.292 OA
ATOM     16  C   UNL     1      -2.321   1.767  -3.710  0.00  0.00    +0.088 C 
ATOM     17  H   UNL     1      -1.990   3.230   1.814  0.00  0.00    +0.147 HD
ATOM     18  H   UNL     1      -1.970   5.818  -1.099  0.00  0.00    +0.152 HD
ENDROOT
BRANCH   1  23
ATOM     19  C   UNL     1      -2.414   3.767  -7.534  0.00  0.00    +0.121 A 
ATOM     20  C   UNL     1      -3.706   4.053  -7.948  0.00  0.00    +0.049 A 
ATOM     21  C   UNL     1      -4.741   4.053  -7.033  0.00  0.00    +0.049 A 
ATOM     22  C   UNL     1      -4.487   3.768  -5.699  0.00  0.00    +0.124 A 
ATOM     23  C   UNL     1      -3.195   3.482  -5.285  0.00  0.00    +0.002 A 
ATOM     24  C   UNL     1      -2.159   3.487  -6.200  0.00  0.00    +0.053 A 
BRANCH  19  26
ATOM     25  C   UNL     1      -1.729   4.069  -9.791  0.00  0.00    +0.277 C 
ATOM     26  O   UNL     1      -1.395   3.766  -8.435  0.00  0.00    -0.495 OA
ENDBRANCH  19  26
BRANCH  22  27
ATOM     27  O   UNL     1      -5.505   3.768  -4.798  0.00  0.00    -0.495 OA
ATOM     28  C   UNL     1      -6.811   4.071  -5.294  0.00  0.00    +0.277 C 
ENDBRANCH  22  27
ENDBRANCH   1  23
BRANCH   5  29
ATOM     29  C   UNL     1      -0.017   1.378   0.010  0.00  0.00    -0.023 A 
ATOM     30  C   UNL     1       1.150   2.057  -0.289  0.00  0.00    +0.009 A 
ATOM     31  C   UNL     1       2.357   1.385  -0.305  0.00  0.00    +0.046 A 
ATOM     32  C   UNL     1       2.397   0.028  -0.020  0.00  0.00    +0.117 A 
ATOM     33  C   UNL     1       1.225  -0.651   0.279  0.00  0.00    +0.046 A 
ATOM     34  C   UNL     1       0.021   0.026   0.293  0.00  0.00    +0.009 A 
BRANCH  32  35
ATOM     35  O   UNL     1       3.583  -0.635  -0.035  0.00  0.00    -0.507 OA
ATOM     36  H   UNL     1       3.615  -1.712   0.191  0.00  0.00    +0.292 HD
ENDBRANCH  32  35
ENDBRANCH   5  29
TORSDOF 5
