REMARK  Name = ZINC20210866
REMARK  6 active torsions:
REMARK  status: ('A' for Active; 'I' for Inactive)
REMARK    1  A    between atoms: C_1  and  C_2
REMARK    2  A    between atoms: C_7  and  O_8
REMARK    3  A    between atoms: O_8  and  C_9
REMARK    4  A    between atoms: C_9  and  C_10
REMARK    5  A    between atoms: C_16  and  C_17
REMARK    6  A    between atoms: N_21  and  C_22
REMARK                            x       y       z     vdW  Elec       q    Type
REMARK                         _______ _______ _______ _____ _____    ______ ____
ROOT
ATOM      1  C   UNL     1      -2.545   1.288   4.965  0.00  0.00    +0.137 C 
ATOM      2  N   UNL     1      -2.191   2.525   5.170  0.00  0.00    -0.166 NA
ATOM      3  N   UNL     1      -1.539   2.900   6.325  0.00  0.00    -0.152 N 
ATOM      4  C   UNL     1      -1.192   4.220   6.686  0.00  0.00    +0.153 C 
ATOM      5  N   UNL     1      -1.791   5.277   6.203  0.00  0.00    -0.283 NA
ATOM      6  C   UNL     1      -0.078   4.289   7.670  0.00  0.00    +0.082 C 
ATOM      7  C   UNL     1       0.838   5.328   7.663  0.00  0.00    +0.042 C 
ATOM      8  C   UNL     1       0.000   3.188   8.657  0.00  0.00    +0.273 C 
ATOM      9  O   UNL     1       0.542   3.352   9.739  0.00  0.00    -0.268 OA
ATOM     10  N   UNL     1      -0.543   1.999   8.327  0.00  0.00    -0.152 NA
ATOM     11  C   UNL     1      -1.226   1.895   7.215  0.00  0.00    +0.181 C 
ATOM     12  S   UNL     1      -1.969   0.478   6.451  0.00  0.00    -0.035 S 
ATOM     13  H   UNL     1      -2.463   5.181   5.511  0.00  0.00    +0.188 HD
ENDROOT
BRANCH   7  14
ATOM     14  C   UNL     1       0.979   6.134   6.518  0.00  0.00    +0.047 A 
ATOM     15  C   UNL     1       0.396   5.909   5.277  0.00  0.00    +0.027 A 
ATOM     16  C   UNL     1       0.801   6.949   4.440  0.00  0.00    +0.020 A 
ATOM     17  C   UNL     1       1.604   7.777   5.157  0.00  0.00    +0.092 A 
ATOM     18  N   UNL     1       1.716   7.298   6.422  0.00  0.00    -0.315 N 
BRANCH  18  19
ATOM     19  C   UNL     1       2.459   7.883   7.456  0.00  0.00    +0.065 A 
ATOM     20  C   UNL     1       2.079   9.113   7.975  0.00  0.00    +0.027 A 
ATOM     21  C   UNL     1       2.813   9.687   8.994  0.00  0.00    +0.002 A 
ATOM     22  C   UNL     1       3.926   9.039   9.498  0.00  0.00    +0.002 A 
ATOM     23  C   UNL     1       4.308   7.814   8.983  0.00  0.00    +0.022 A 
ATOM     24  C   UNL     1       3.574   7.231   7.967  0.00  0.00    +0.065 A 
ATOM     25 CL   UNL     1       4.050   5.689   7.326  0.00  0.00    -0.081 Cl
ENDBRANCH  18  19
ENDBRANCH   7  14
BRANCH   1  26
ATOM     26  C   UNL     1      -3.263   0.694   3.781  0.00  0.00    +0.293 C 
BRANCH  26  27
ATOM     27  O   UNL     1      -3.531   1.720   2.822  0.00  0.00    -0.485 OA
BRANCH  27  34
ATOM     28  C   UNL     1      -4.070   3.732   0.915  0.00  0.00    +0.047 C 
ATOM     29  C   UNL     1      -4.470   2.293   0.713  0.00  0.00    -0.009 A 
ATOM     30  C   UNL     1      -5.122   1.912  -0.443  0.00  0.00    +0.007 A 
ATOM     31  C   UNL     1      -5.490   0.592  -0.628  0.00  0.00    +0.000 A 
ATOM     32  C   UNL     1      -5.205  -0.350   0.343  0.00  0.00    +0.004 A 
ATOM     33  C   UNL     1      -4.553   0.026   1.501  0.00  0.00    +0.046 A 
ATOM     34  C   UNL     1      -4.178   1.349   1.687  0.00  0.00    +0.124 A 
ENDBRANCH  27  34
ENDBRANCH  26  27
ENDBRANCH   1  26
TORSDOF 5
