REMARK  Name = ZINC30942344
REMARK  7 active torsions:
REMARK  status: ('A' for Active; 'I' for Inactive)
REMARK    1  A    between atoms: C_4  and  N_17
REMARK    2  A    between atoms: C_5  and  C_7
REMARK    3  A    between atoms: N_9  and  C_10
REMARK    4  A    between atoms: C_10  and  C_11
REMARK    5  A    between atoms: C_18  and  C_20
REMARK    6  A    between atoms: N_23  and  C_26
REMARK    7  A    between atoms: C_26  and  C_27
REMARK                            x       y       z     vdW  Elec       q    Type
REMARK                         _______ _______ _______ _____ _____    ______ ____
ROOT
ATOM      1  N   UNL     1      -3.478  -1.698   5.972  0.00  0.00    -0.285 N 
ATOM      2  C   UNL     1      -4.188  -0.939   5.113  0.00  0.00    +0.220 C 
ATOM      3  O   UNL     1      -5.157  -0.324   5.506  0.00  0.00    -0.275 OA
ATOM      4  H   UNL     1      -2.656  -2.326   5.600  0.00  0.00    +0.155 HD
ENDROOT
BRANCH   2   5
ATOM      5  C   UNL     1      -3.778  -0.855   3.666  0.00  0.00    +0.072 C 
ATOM      6  C   UNL     1      -4.744   0.065   2.913  0.00  0.00    -0.006 C 
ATOM      7  C   UNL     1      -4.287   0.195   1.458  0.00  0.00    -0.078 C 
ATOM      8  N   UNL     1      -2.926   0.746   1.418  0.00  0.00    +0.382 N 
ATOM      9  C   UNL     1      -1.973  -0.144   2.094  0.00  0.00    -0.078 C 
ATOM     10  C   UNL     1      -2.361  -0.284   3.568  0.00  0.00    -0.006 C 
ATOM     11  H   UNL     1      -2.936   1.702   1.962  0.00  0.00    -0.081 HD
BRANCH   8  12
ATOM     12  C   UNL     1      -2.507   1.014   0.036  0.00  0.00    -0.043 C 
BRANCH  12  13
ATOM     13  C   UNL     1      -1.220   1.798   0.044  0.00  0.00    -0.063 A 
ATOM     14  C   UNL     1      -0.007   1.135   0.039  0.00  0.00    +0.002 A 
ATOM     15  C   UNL     1       1.174   1.853   0.041  0.00  0.00    +0.001 A 
ATOM     16  C   UNL     1       1.142   3.235   0.053  0.00  0.00    +0.015 A 
ATOM     17  C   UNL     1      -0.071   3.899   0.064  0.00  0.00    +0.018 A 
ATOM     18  C   UNL     1      -1.253   3.179   0.062  0.00  0.00    +0.017 A 
ATOM     19 BR   UNL     1      -0.116   5.789   0.081  0.00  0.00    -0.050 Br
ENDBRANCH  12  13
ENDBRANCH   8  12
ENDBRANCH   2   5
BRANCH   1  23
ATOM     20  C   UNL     1      -4.401  -1.660  10.039  0.00  0.00    +0.001 A 
ATOM     21  C   UNL     1      -4.721  -0.574   9.239  0.00  0.00    +0.002 A 
ATOM     22  C   UNL     1      -4.412  -0.582   7.894  0.00  0.00    +0.024 A 
ATOM     23  C   UNL     1      -3.786  -1.685   7.330  0.00  0.00    +0.046 A 
ATOM     24  C   UNL     1      -3.460  -2.786   8.136  0.00  0.00    +0.058 A 
ATOM     25  C   UNL     1      -3.775  -2.761   9.497  0.00  0.00    +0.015 A 
BRANCH  24  26
ATOM     26  C   UNL     1      -2.790  -3.962   7.551  0.00  0.00    +0.246 C 
ATOM     27  O   UNL     1      -2.436  -3.944   6.388  0.00  0.00    -0.270 OA
ATOM     28  N   UNL     1      -2.569  -5.057   8.305  0.00  0.00    -0.309 N 
ATOM     29  H   UNL     1      -2.889  -5.074   9.358  0.00  0.00    +0.149 HD
BRANCH  28  30
ATOM     30  C   UNL     1      -1.903  -6.225   7.724  0.00  0.00    +0.136 C 
BRANCH  30  31
ATOM     31  C   UNL     1      -1.777  -7.321   8.784  0.00  0.00    +0.135 C 
ATOM     32  C   UNL     1      -1.077  -8.555   8.182  0.00  0.00    +0.035 C 
ATOM     33  C   UNL     1       0.172  -8.756   9.074  0.00  0.00    +0.031 C 
ATOM     34  C   UNL     1      -0.226  -7.997  10.366  0.00  0.00    +0.160 C 
ATOM     35  O   UNL     1      -0.961  -6.856   9.873  0.00  0.00    -0.375 OA
ENDBRANCH  30  31
ENDBRANCH  28  30
ENDBRANCH  24  26
ENDBRANCH   1  23
TORSDOF 7
