REMARK  Name = ZINC39919447
REMARK  7 active torsions:
REMARK  status: ('A' for Active; 'I' for Inactive)
REMARK    1  A    between atoms: C_1  and  C_2
REMARK    2  A    between atoms: C_2  and  C_4
REMARK    3  A    between atoms: C_2  and  O_27
REMARK    4  A    between atoms: N_6  and  N_7
REMARK    5  A    between atoms: C_8  and  C_20
REMARK    6  A    between atoms: C_23  and  O_26
REMARK    7  A    between atoms: O_27  and  C_28
REMARK                            x       y       z     vdW  Elec       q    Type
REMARK                         _______ _______ _______ _____ _____    ______ ____
ROOT
ATOM      1  N   UNL     1       2.505  -0.252  -2.806  0.00  0.00    -0.191 N 
ATOM      2  C   UNL     1       3.392  -1.404  -2.968  0.00  0.00    +0.212 C 
ATOM      3  N   UNL     1       3.301  -1.928  -4.337  0.00  0.00    -0.320 N 
ATOM      4  C   UNL     1       3.307  -1.026  -5.395  0.00  0.00    +0.041 A 
ATOM      5  C   UNL     1       3.817  -1.358  -6.638  0.00  0.00    +0.025 A 
ATOM      6  C   UNL     1       3.802  -0.423  -7.656  0.00  0.00    +0.022 A 
ATOM      7  C   UNL     1       3.282   0.845  -7.440  0.00  0.00    +0.042 A 
ATOM      8  C   UNL     1       2.769   1.192  -6.206  0.00  0.00    +0.035 A 
ATOM      9  C   UNL     1       2.776   0.257  -5.174  0.00  0.00    +0.061 A 
ATOM     10  C   UNL     1       2.229   0.569  -3.841  0.00  0.00    +0.267 C 
ATOM     11  O   UNL     1       1.540   1.557  -3.675  0.00  0.00    -0.268 OA
ATOM     12 CL   UNL     1       3.276   2.004  -8.732  0.00  0.00    -0.084 Cl
ATOM     13  H   UNL     1       3.238  -2.882  -4.499  0.00  0.00    +0.148 HD
ENDROOT
BRANCH   2  14
ATOM     14  C   UNL     1       4.812  -0.984  -2.692  0.00  0.00    -0.008 A 
ATOM     15  C   UNL     1       5.068   0.036  -1.794  0.00  0.00    +0.011 A 
ATOM     16  C   UNL     1       6.369   0.424  -1.540  0.00  0.00    +0.046 A 
ATOM     17  C   UNL     1       7.420  -0.210  -2.186  0.00  0.00    +0.117 A 
ATOM     18  C   UNL     1       7.161  -1.234  -3.086  0.00  0.00    +0.046 A 
ATOM     19  C   UNL     1       5.858  -1.621  -3.333  0.00  0.00    +0.011 A 
BRANCH  17  20
ATOM     20  O   UNL     1       8.701   0.170  -1.937  0.00  0.00    -0.507 OA
ATOM     21  H   UNL     1       9.119  -0.309  -1.209  0.00  0.00    +0.292 HD
ENDBRANCH  17  20
ENDBRANCH   2  14
BRANCH   1  24
ATOM     22  C   UNL     1       0.627  -0.283  -1.345  0.00  0.00    +0.270 C 
ATOM     23  O   UNL     1      -0.044  -0.756  -2.238  0.00  0.00    -0.270 OA
ATOM     24  N   UNL     1       1.927  -0.000  -1.555  0.00  0.00    -0.227 N 
ATOM     25  H   UNL     1       2.463   0.378  -0.841  0.00  0.00    +0.173 HD
BRANCH  22  27
ATOM     26  C   UNL     1       0.004   1.495   0.268  0.00  0.00    +0.062 C 
ATOM     27  C   UNL     1       0.005  -0.012   0.001  0.00  0.00    +0.257 C 
BRANCH  27  28
ATOM     28  O   UNL     1      -1.339  -0.499   0.012  0.00  0.00    -0.480 OA
BRANCH  28  29
ATOM     29  C   UNL     1      -1.869  -0.818   1.222  0.00  0.00    +0.122 A 
ATOM     30  C   UNL     1      -3.124  -1.405   1.297  0.00  0.00    +0.045 A 
ATOM     31  C   UNL     1      -3.661  -1.729   2.528  0.00  0.00    +0.004 A 
ATOM     32  C   UNL     1      -2.950  -1.468   3.684  0.00  0.00    +0.000 A 
ATOM     33  C   UNL     1      -1.699  -0.881   3.612  0.00  0.00    +0.004 A 
ATOM     34  C   UNL     1      -1.155  -0.561   2.383  0.00  0.00    +0.045 A 
ENDBRANCH  28  29
ENDBRANCH  27  28
ENDBRANCH  22  27
ENDBRANCH   1  24
TORSDOF 6
