REMARK  Name = ZINC61795456
REMARK  10 active torsions:
REMARK  status: ('A' for Active; 'I' for Inactive)
REMARK    1  A    between atoms: C_1  and  C_2
REMARK    2  A    between atoms: C_2  and  C_3
REMARK    3  A    between atoms: C_2  and  C_4
REMARK    4  A    between atoms: C_2  and  N_20
REMARK    5  A    between atoms: C_4  and  N_5
REMARK    6  A    between atoms: N_8  and  N_9
REMARK    7  A    between atoms: C_10  and  C_12
REMARK    8  A    between atoms: C_15  and  C_18
REMARK    9  A    between atoms: N_20  and  C_21
REMARK   10  A    between atoms: N_20  and  C_22
REMARK                            x       y       z     vdW  Elec       q    Type
REMARK                         _______ _______ _______ _____ _____    ______ ____
ROOT
ATOM      1  N   UNL     1      -1.413  -1.998   0.005  0.00  0.00    -0.300 N 
ATOM      2  C   UNL     1      -2.571  -2.688   0.012  0.00  0.00    +0.316 C 
ATOM      3  O   UNL     1      -3.632  -2.095   0.025  0.00  0.00    -0.251 OA
ATOM      4  N   UNL     1      -2.553  -4.036   0.005  0.00  0.00    -0.218 N 
ATOM      5  H   UNL     1      -0.567  -2.472  -0.006  0.00  0.00    +0.150 HD
ATOM      6  H   UNL     1      -3.386  -4.532   0.010  0.00  0.00    +0.174 HD
ENDROOT
BRANCH   4   7
ATOM      7  N   UNL     1      -1.330  -4.720  -0.011  0.00  0.00    -0.229 N 
ATOM      8  C   UNL     1      -1.312  -6.067  -0.018  0.00  0.00    +0.260 C 
ATOM      9  O   UNL     1      -2.356  -6.689  -0.011  0.00  0.00    -0.269 OA
ATOM     10  H   UNL     1      -0.497  -4.223  -0.016  0.00  0.00    +0.173 HD
BRANCH   8  11
ATOM     11  C   UNL     1      -0.021  -6.789  -0.034  0.00  0.00    +0.038 A 
ATOM     12  C   UNL     1       1.178  -6.075  -0.036  0.00  0.00    +0.014 A 
ATOM     13  C   UNL     1       2.380  -6.747  -0.051  0.00  0.00    +0.019 A 
ATOM     14  C   UNL     1       2.399  -8.143  -0.065  0.00  0.00    +0.052 A 
ATOM     15  C   UNL     1       1.199  -8.858  -0.063  0.00  0.00    +0.019 A 
ATOM     16  C   UNL     1      -0.003  -8.185  -0.042  0.00  0.00    +0.014 A 
BRANCH  14  17
ATOM     17  C   UNL     1       3.649  -8.842  -0.081  0.00  0.00    +0.099 C 
ATOM     18  N   UNL     1       4.640  -9.397  -0.094  0.00  0.00    -0.191 NA
ENDBRANCH  14  17
ENDBRANCH   8  11
ENDBRANCH   4   7
BRANCH   1  19
ATOM     19  C   UNL     1      -1.433  -0.534   0.013  0.00  0.00    +0.093 C 
BRANCH  19  21
ATOM     20  C   UNL     1      -0.019   1.526   0.010  0.00  0.00    -0.008 C 
ATOM     21  C   UNL     1       0.002  -0.004   0.002  0.00  0.00    -0.056 C 
ATOM     22  C   UNL     1       0.742  -0.511   1.242  0.00  0.00    -0.008 C 
BRANCH  21  23
ATOM     23  N   UNL     1       0.690  -0.478  -1.207  0.00  0.00    +0.380 N 
ATOM     24  C   UNL     1      -0.021   0.009  -2.397  0.00  0.00    -0.096 C 
ATOM     25  C   UNL     1       2.068   0.031  -1.217  0.00  0.00    -0.096 C 
ATOM     26  H   UNL     1       0.703  -1.487  -1.212  0.00  0.00    -0.082 HD
ENDBRANCH  21  23
ENDBRANCH  19  21
ENDBRANCH   1  19
TORSDOF 6
