REMARK  Name = ZINC09464088
REMARK  12 active torsions:
REMARK  status: ('A' for Active; 'I' for Inactive)
REMARK    1  A    between atoms: C_1  and  C_2
REMARK    2  A    between atoms: C_5  and  C_8
REMARK    3  A    between atoms: C_9  and  S_10
REMARK    4  A    between atoms: S_10  and  N_13
REMARK    5  A    between atoms: N_13  and  C_14
REMARK    6  A    between atoms: C_14  and  C_15
REMARK    7  A    between atoms: C_15  and  O_17
REMARK    8  A    between atoms: O_17  and  C_18
REMARK    9  A    between atoms: C_18  and  C_19
REMARK   10  A    between atoms: N_21  and  N_22
REMARK   11  A    between atoms: C_23  and  C_25
REMARK   12  A    between atoms: C_28  and  N_31
REMARK                            x       y       z     vdW  Elec       q    Type
REMARK                         _______ _______ _______ _____ _____    ______ ____
ROOT
ATOM      1  O   UNL     1      -1.890   4.717  -3.452  0.00  0.00    -0.454 OA
ENDROOT
BRANCH   1   2
ATOM      2  C   UNL     1      -1.614   3.488  -2.988  0.00  0.00    +0.323 C 
ATOM      3  O   UNL     1      -1.758   2.525  -3.704  0.00  0.00    -0.249 OA
BRANCH   2   4
ATOM      4  C   UNL     1      -1.125   3.309  -1.574  0.00  0.00    +0.226 C 
BRANCH   4   5
ATOM      5  N   UNL     1      -0.897   1.885  -1.312  0.00  0.00    -0.180 NA
ATOM      6  H   UNL     1      -1.263   1.218  -1.913  0.00  0.00    +0.149 HD
BRANCH   5   7
ATOM      7  S   UNL     1      -0.017   1.417   0.010  0.00  0.00    +0.052 S 
ATOM      8  O   UNL     1       0.002  -0.004   0.002  0.00  0.00    -0.154 OA
ATOM      9  O   UNL     1       1.172   2.195   0.003  0.00  0.00    -0.154 OA
BRANCH   7  11
ATOM     10  C   UNL     1      -1.410   0.979   2.260  0.00  0.00    +0.028 C 
ATOM     11  C   UNL     1      -0.927   1.900   1.439  0.00  0.00    +0.153 C 
BRANCH  10  16
ATOM     12  C   UNL     1      -4.381   2.557   6.928  0.00  0.00    +0.044 C 
ATOM     13  C   UNL     1      -3.603   2.144   5.706  0.00  0.00    -0.050 A 
ATOM     14  C   UNL     1      -3.394   0.802   5.444  0.00  0.00    +0.004 A 
ATOM     15  C   UNL     1      -2.683   0.416   4.326  0.00  0.00    +0.008 A 
ATOM     16  C   UNL     1      -2.173   1.384   3.460  0.00  0.00    -0.024 A 
ATOM     17  C   UNL     1      -2.381   2.736   3.733  0.00  0.00    +0.008 A 
ATOM     18  C   UNL     1      -3.099   3.108   4.851  0.00  0.00    +0.004 A 
ENDBRANCH  10  16
ENDBRANCH   7  11
ENDBRANCH   5   7
ENDBRANCH   4   5
ENDBRANCH   2   4
ENDBRANCH   1   2
BRANCH   1  19
ATOM     19  C   UNL     1      -2.357   4.814  -4.823  0.00  0.00    +0.329 C 
BRANCH  19  20
ATOM     20  C   UNL     1      -2.614   6.259  -5.166  0.00  0.00    +0.267 C 
ATOM     21  O   UNL     1      -2.421   7.122  -4.335  0.00  0.00    -0.271 OA
ATOM     22  N   UNL     1      -3.056   6.592  -6.394  0.00  0.00    -0.231 N 
ATOM     23  H   UNL     1      -3.210   5.902  -7.058  0.00  0.00    +0.173 HD
BRANCH  22  24
ATOM     24  N   UNL     1      -3.295   7.936  -6.712  0.00  0.00    -0.230 N 
ATOM     25  C   UNL     1      -3.737   8.269  -7.941  0.00  0.00    +0.260 C 
ATOM     26  O   UNL     1      -3.930   7.404  -8.773  0.00  0.00    -0.269 OA
ATOM     27  H   UNL     1      -3.141   8.626  -6.048  0.00  0.00    +0.173 HD
BRANCH  25  28
ATOM     28  C   UNL     1      -3.989   9.687  -8.277  0.00  0.00    +0.038 A 
ATOM     29  C   UNL     1      -3.774  10.682  -7.322  0.00  0.00    +0.015 A 
ATOM     30  C   UNL     1      -4.007  12.003  -7.643  0.00  0.00    +0.033 A 
ATOM     31  C   UNL     1      -4.461  12.342  -8.905  0.00  0.00    +0.126 A 
ATOM     32  C   UNL     1      -4.681  11.360  -9.855  0.00  0.00    +0.033 A 
ATOM     33  C   UNL     1      -4.447  10.035  -9.548  0.00  0.00    +0.015 A 
BRANCH  31  34
ATOM     34  N   UNL     1      -4.713  13.761  -9.241  0.00  0.00    +0.056 N 
ATOM     35  O   UNL     1      -5.113  14.062 -10.351  0.00  0.00    -0.126 OA
ATOM     36  O   UNL     1      -4.521  14.628  -8.407  0.00  0.00    -0.126 OA
ENDBRANCH  31  34
ENDBRANCH  25  28
ENDBRANCH  22  24
ENDBRANCH  19  20
ENDBRANCH   1  19
TORSDOF 11
