REMARK  Name = ZINC35058111
REMARK  8 active torsions:
REMARK  status: ('A' for Active; 'I' for Inactive)
REMARK    1  A    between atoms: C_1  and  C_2
REMARK    2  A    between atoms: C_5  and  O_37
REMARK    3  A    between atoms: C_6  and  N_8
REMARK    4  A    between atoms: C_9  and  C_36
REMARK    5  A    between atoms: C_11  and  C_14
REMARK    6  A    between atoms: C_12  and  C_13
REMARK    7  A    between atoms: C_24  and  C_26
REMARK    8  A    between atoms: O_37  and  C_38
REMARK                            x       y       z     vdW  Elec       q    Type
REMARK                         _______ _______ _______ _____ _____    ______ ____
ROOT
ATOM      1  C   UNL     1      -1.460  -4.459   5.200  0.00  0.00    +0.026 C 
ATOM      2  C   UNL     1      -0.892  -5.175   6.234  0.00  0.00    +0.081 C 
ATOM      3  C   UNL     1      -1.723  -5.911   7.227  0.00  0.00    +0.152 C 
ATOM      4  N   UNL     1      -2.867  -6.470   6.932  0.00  0.00    -0.283 NA
ATOM      5  N   UNL     1      -1.154  -5.944   8.518  0.00  0.00    -0.152 N 
ATOM      6  C   UNL     1       0.211  -5.778   8.616  0.00  0.00    +0.181 C 
ATOM      7  N   UNL     1       1.051  -5.494   7.653  0.00  0.00    -0.152 NA
ATOM      8  C   UNL     1       0.577  -5.259   6.411  0.00  0.00    +0.273 C 
ATOM      9  O   UNL     1       1.333  -5.115   5.464  0.00  0.00    -0.268 OA
ATOM     10  S   UNL     1       0.491  -6.024  10.350  0.00  0.00    -0.037 S 
ATOM     11  C   UNL     1      -1.217  -6.227  10.837  0.00  0.00    +0.106 C 
ATOM     12  N   UNL     1      -1.841  -6.140   9.697  0.00  0.00    -0.169 NA
ATOM     13  H   UNL     1      -3.214  -6.418   6.028  0.00  0.00    +0.188 HD
ENDROOT
BRANCH  11  14
ATOM     14  C   UNL     1      -1.788  -6.444  12.214  0.00  0.00    +0.022 C 
ATOM     15  C   UNL     1      -3.311  -6.562  12.122  0.00  0.00    +0.017 C 
ATOM     16  C   UNL     1      -3.891  -6.782  13.520  0.00  0.00    -0.010 C 
ATOM     17  C   UNL     1      -3.315  -8.068  14.115  0.00  0.00    +0.007 C 
ATOM     18  C   UNL     1      -1.792  -7.950  14.207  0.00  0.00    -0.010 C 
ATOM     19  C   UNL     1      -1.212  -7.730  12.809  0.00  0.00    +0.017 C 
ATOM     20  C   UNL     1      -1.426  -6.766  15.104  0.00  0.00    +0.007 C 
ATOM     21  C   UNL     1      -2.002  -5.479  14.509  0.00  0.00    -0.010 C 
ATOM     22  C   UNL     1      -3.525  -5.597  14.416  0.00  0.00    +0.007 C 
ATOM     23  C   UNL     1      -1.422  -5.259  13.110  0.00  0.00    +0.017 C 
ENDBRANCH  11  14
BRANCH   1  27
ATOM     24  N   UNL     1       0.170  -2.561   2.625  0.00  0.00    -0.314 N 
ATOM     25  C   UNL     1       0.990  -2.257   3.676  0.00  0.00    +0.022 A 
ATOM     26  C   UNL     1       0.547  -2.884   4.778  0.00  0.00    +0.031 A 
ATOM     27  C   UNL     1      -0.648  -3.640   4.375  0.00  0.00    -0.003 A 
ATOM     28  C   UNL     1      -0.820  -3.383   3.024  0.00  0.00    +0.028 A 
ATOM     29  C   UNL     1      -1.921  -3.931   2.153  0.00  0.00    +0.064 C 
ATOM     30  C   UNL     1       2.199  -1.360   3.609  0.00  0.00    +0.064 C 
BRANCH  24  36
ATOM     31  C   UNL     1      -0.764   0.872  -0.770  0.00  0.00    +0.044 C 
ATOM     32  C   UNL     1      -0.108  -0.420  -0.355  0.00  0.00    -0.048 A 
ATOM     33  C   UNL     1       0.653  -1.130  -1.265  0.00  0.00    +0.007 A 
ATOM     34  C   UNL     1       1.257  -2.316  -0.890  0.00  0.00    +0.048 A 
ATOM     35  C   UNL     1       1.100  -2.796   0.401  0.00  0.00    +0.144 A 
ATOM     36  C   UNL     1       0.333  -2.080   1.317  0.00  0.00    +0.089 A 
ATOM     37  C   UNL     1      -0.265  -0.888   0.935  0.00  0.00    +0.033 A 
BRANCH  35  38
ATOM     38  O   UNL     1       1.692  -3.962   0.771  0.00  0.00    -0.493 OA
ATOM     39  C   UNL     1       2.463  -4.641  -0.222  0.00  0.00    +0.277 C 
ENDBRANCH  35  38
ENDBRANCH  24  36
ENDBRANCH   1  27
TORSDOF 4
