REMARK  Name = ZINC39657777
REMARK  12 active torsions:
REMARK  status: ('A' for Active; 'I' for Inactive)
REMARK    1  A    between atoms: C_1  and  C_2
REMARK    2  A    between atoms: C_2  and  C_3
REMARK    3  A    between atoms: C_3  and  C_5
REMARK    4  A    between atoms: C_3  and  C_6
REMARK    5  A    between atoms: C_6  and  C_7
REMARK    6  A    between atoms: C_11  and  C_20
REMARK    7  A    between atoms: N_22  and  C_23
REMARK    8  A    between atoms: C_23  and  C_24
REMARK    9  A    between atoms: C_29  and  S_30
REMARK   10  A    between atoms: S_30  and  C_31
REMARK   11  A    between atoms: C_36  and  C_37
REMARK   12  A    between atoms: C_37  and  O_38
REMARK                            x       y       z     vdW  Elec       q    Type
REMARK                         _______ _______ _______ _____ _____    ______ ____
ROOT
ATOM      1  C   UNL     1      -3.442  -7.967   1.530  0.00  0.00    +0.218 C 
ATOM      2  O   UNL     1      -3.765  -8.697   0.617  0.00  0.00    -0.275 OA
ATOM      3  N   UNL     1      -2.151  -7.889   1.906  0.00  0.00    -0.311 N 
ATOM      4  H   UNL     1      -1.892  -7.306   2.636  0.00  0.00    +0.149 HD
ENDROOT
BRANCH   1   9
ATOM      5  C   UNL     1      -7.831  -5.792   1.945  0.00  0.00    +0.216 C 
ATOM      6  O   UNL     1      -8.828  -5.988   2.608  0.00  0.00    -0.276 OA
ATOM      7  N   UNL     1      -6.820  -6.683   1.968  0.00  0.00    -0.300 N 
ATOM      8  C   UNL     1      -5.533  -6.615   1.238  0.00  0.00    +0.121 C 
ATOM      9  C   UNL     1      -4.486  -7.146   2.243  0.00  0.00    +0.100 C 
ATOM     10  C   UNL     1      -5.287  -8.024   3.218  0.00  0.00    -0.004 C 
ATOM     11  C   UNL     1      -6.743  -7.950   2.735  0.00  0.00    +0.115 C 
ATOM     12  C   UNL     1      -5.180  -7.473   4.636  0.00  0.00    -0.010 C 
ATOM     13  C   UNL     1      -5.938  -8.394   5.596  0.00  0.00    -0.082 C 
ATOM     14  N   UNL     1      -5.369  -9.746   5.530  0.00  0.00    +0.379 N 
ATOM     15  C   UNL     1      -5.559 -10.305   4.187  0.00  0.00    -0.082 C 
ATOM     16  C   UNL     1      -4.785  -9.464   3.167  0.00  0.00    -0.010 C 
ATOM     17  H   UNL     1      -4.382  -9.705   5.739  0.00  0.00    -0.086 HD
ATOM     18  H   UNL     1      -5.829 -10.336   6.207  0.00  0.00    -0.086 HD
BRANCH   5  19
ATOM     19  C   UNL     1      -7.723  -4.553   1.095  0.00  0.00    +0.099 C 
BRANCH  19  20
ATOM     20  C   UNL     1      -8.996  -3.717   1.248  0.00  0.00    -0.006 C 
ATOM     21  C   UNL     1     -10.187  -4.493   0.682  0.00  0.00    +0.008 C 
BRANCH  20  23
ATOM     22  C   UNL     1     -10.056  -1.512   0.740  0.00  0.00    +0.004 C 
ATOM     23  C   UNL     1      -8.836  -2.400   0.485  0.00  0.00    +0.000 C 
ENDBRANCH  20  23
ENDBRANCH  19  20
ENDBRANCH   5  19
ENDBRANCH   1   9
BRANCH   3  24
ATOM     24  C   UNL     1      -1.137  -8.688   1.213  0.00  0.00    +0.140 C 
BRANCH  24  25
ATOM     25  C   UNL     1       0.216  -8.421   1.822  0.00  0.00    -0.017 A 
ATOM     26  C   UNL     1       1.091  -7.547   1.206  0.00  0.00    +0.006 A 
ATOM     27  C   UNL     1       2.332  -7.302   1.764  0.00  0.00    +0.000 A 
ATOM     28  C   UNL     1       2.702  -7.929   2.940  0.00  0.00    +0.001 A 
ATOM     29  C   UNL     1       1.832  -8.804   3.561  0.00  0.00    +0.015 A 
ATOM     30  C   UNL     1       0.582  -9.049   3.006  0.00  0.00    +0.017 A 
BRANCH  30  31
ATOM     31  S   UNL     1      -0.534 -10.158   3.798  0.00  0.00    -0.089 S 
BRANCH  31  32
ATOM     32  C   UNL     1       0.270 -10.562   5.313  0.00  0.00    +0.018 A 
ATOM     33  C   UNL     1       0.395  -9.605   6.313  0.00  0.00    +0.015 A 
ATOM     34  C   UNL     1       1.026  -9.925   7.498  0.00  0.00    +0.001 A 
ATOM     35  C   UNL     1       1.534 -11.197   7.692  0.00  0.00    +0.000 A 
ATOM     36  C   UNL     1       1.413 -12.152   6.699  0.00  0.00    +0.007 A 
ATOM     37  C   UNL     1       0.777 -11.841   5.513  0.00  0.00    -0.008 A 
BRANCH  37  38
ATOM     38  C   UNL     1       0.639 -12.884   4.435  0.00  0.00    +0.192 C 
BRANCH  38  39
ATOM     39  O   UNL     1       1.234 -14.106   4.875  0.00  0.00    -0.390 OA
ATOM     40  H   UNL     1       1.182 -14.824   4.230  0.00  0.00    +0.210 HD
ENDBRANCH  38  39
ENDBRANCH  37  38
ENDBRANCH  31  32
ENDBRANCH  30  31
ENDBRANCH  24  25
ENDBRANCH   3  24
TORSDOF 10
