REMARK  Name = ZINC39637397
REMARK  8 active torsions:
REMARK  status: ('A' for Active; 'I' for Inactive)
REMARK    1  A    between atoms: C_1  and  C_2
REMARK    2  A    between atoms: C_7  and  N_12
REMARK    3  A    between atoms: C_9  and  C_11
REMARK    4  A    between atoms: C_13  and  C_15
REMARK    5  A    between atoms: C_26  and  C_28
REMARK    6  A    between atoms: C_28  and  C_29
REMARK    7  A    between atoms: C_29  and  C_30
REMARK    8  A    between atoms: C_30  and  C_31
REMARK                            x       y       z     vdW  Elec       q    Type
REMARK                         _______ _______ _______ _____ _____    ______ ____
ROOT
ATOM      1  C   UNL     1       2.785  -4.239   3.627  0.00  0.00    +0.100 C 
ATOM      2  C   UNL     1       4.061  -3.403   3.871  0.00  0.00    +0.121 C 
ATOM      3  N   UNL     1       5.065  -4.383   4.350  0.00  0.00    -0.300 N 
ATOM      4  C   UNL     1       4.825  -5.590   3.525  0.00  0.00    +0.115 C 
ATOM      5  C   UNL     1       3.291  -5.674   3.400  0.00  0.00    -0.004 C 
ATOM      6  C   UNL     1       2.724  -6.609   4.465  0.00  0.00    -0.010 C 
ATOM      7  C   UNL     1       3.195  -8.039   4.184  0.00  0.00    -0.082 C 
ATOM      8  N   UNL     1       2.742  -8.452   2.851  0.00  0.00    +0.379 N 
ATOM      9  C   UNL     1       3.364  -7.606   1.825  0.00  0.00    -0.082 C 
ATOM     10  C   UNL     1       2.901  -6.157   2.006  0.00  0.00    -0.010 C 
ATOM     11  C   UNL     1       5.987  -4.214   5.318  0.00  0.00    +0.216 C 
ATOM     12  O   UNL     1       6.745  -5.118   5.598  0.00  0.00    -0.276 OA
ATOM     13  H   UNL     1       3.000  -9.414   2.692  0.00  0.00    -0.086 HD
ATOM     14  H   UNL     1       1.738  -8.363   2.795  0.00  0.00    -0.086 HD
ENDROOT
BRANCH   1  16
ATOM     15  N   UNL     1       0.719  -3.878   2.316  0.00  0.00    -0.312 N 
ATOM     16  C   UNL     1       2.056  -3.740   2.406  0.00  0.00    +0.218 C 
ATOM     17  O   UNL     1       2.674  -3.214   1.504  0.00  0.00    -0.275 OA
ATOM     18  H   UNL     1       0.225  -4.299   3.038  0.00  0.00    +0.149 HD
BRANCH  15  24
ATOM     19  C   UNL     1      -3.638  -2.272   0.618  0.00  0.00    +0.008 C 
ATOM     20  C   UNL     1      -2.184  -2.579   0.254  0.00  0.00    -0.009 C 
ATOM     21  C   UNL     1      -2.147  -3.652  -0.836  0.00  0.00    +0.003 C 
ATOM     22  C   UNL     1      -0.693  -3.959  -1.200  0.00  0.00    +0.002 C 
ATOM     23  C   UNL     1       0.047  -4.466   0.039  0.00  0.00    +0.022 C 
ATOM     24  C   UNL     1       0.010  -3.393   1.129  0.00  0.00    +0.076 C 
ATOM     25  C   UNL     1      -1.444  -3.086   1.494  0.00  0.00    +0.009 C 
ATOM     26  C   UNL     1      -2.121  -4.358   2.007  0.00  0.00    +0.009 C 
ENDBRANCH  15  24
ENDBRANCH   1  16
BRANCH  11  27
ATOM     27  C   UNL     1       6.077  -2.901   6.053  0.00  0.00    +0.096 C 
BRANCH  27  28
ATOM     28  C   UNL     1       7.198  -2.973   7.091  0.00  0.00    +0.014 C 
BRANCH  28  29
ATOM     29  C   UNL     1       7.290  -1.640   7.837  0.00  0.00    +0.035 C 
BRANCH  29  30
ATOM     30  C   UNL     1       8.394  -1.712   8.860  0.00  0.00    -0.047 A 
ATOM     31  C   UNL     1       8.121  -2.151  10.142  0.00  0.00    +0.003 A 
ATOM     32  C   UNL     1       9.133  -2.217  11.081  0.00  0.00    +0.000 A 
ATOM     33  C   UNL     1      10.419  -1.843  10.737  0.00  0.00    +0.000 A 
ATOM     34  C   UNL     1      10.692  -1.404   9.455  0.00  0.00    +0.000 A 
ATOM     35  C   UNL     1       9.681  -1.343   8.515  0.00  0.00    +0.003 A 
ENDBRANCH  29  30
ENDBRANCH  28  29
ENDBRANCH  27  28
ENDBRANCH  11  27
TORSDOF 6
