REMARK  Name = ZINC39279804
REMARK  6 active torsions:
REMARK  status: ('A' for Active; 'I' for Inactive)
REMARK    1  A    between atoms: C_1  and  C_2
REMARK    2  A    between atoms: C_2  and  C_3
REMARK    3  A    between atoms: C_5  and  C_17
REMARK    4  A    between atoms: C_7  and  C_15
REMARK    5  A    between atoms: C_8  and  N_14
REMARK    6  A    between atoms: C_20  and  O_24
REMARK                            x       y       z     vdW  Elec       q    Type
REMARK                         _______ _______ _______ _____ _____    ______ ____
ROOT
ATOM      1  C   UNL     1       0.655  -0.932  -0.823  0.00  0.00    +0.069 C 
ATOM      2  C   UNL     1       1.950  -1.100  -0.936  0.00  0.00    +0.030 C 
ATOM      3  C   UNL     1       3.117  -0.802  -0.035  0.00  0.00    +0.098 C 
ATOM      4  C   UNL     1       4.189  -0.216  -0.936  0.00  0.00    +0.097 C 
ATOM      5  C   UNL     1       4.064  -0.218  -2.279  0.00  0.00    +0.195 C 
ATOM      6  O   UNL     1       3.021  -0.684  -2.989  0.00  0.00    -0.448 OA
ATOM      7  C   UNL     1       2.161  -1.634  -2.353  0.00  0.00    +0.343 C 
ATOM      8  N   UNL     1       0.799  -1.600  -2.897  0.00  0.00    -0.138 NA
ATOM      9  N   UNL     1       0.037  -1.235  -1.993  0.00  0.00    -0.155 NA
ENDROOT
BRANCH   3  10
ATOM     10  C   UNL     1       2.717   0.197   1.021  0.00  0.00    -0.033 A 
ATOM     11  C   UNL     1       2.413   1.497   0.661  0.00  0.00    +0.023 A 
ATOM     12  C   UNL     1       2.046   2.415   1.627  0.00  0.00    +0.061 A 
ATOM     13  C   UNL     1       1.984   2.031   2.959  0.00  0.00    +0.145 A 
ATOM     14  C   UNL     1       2.290   0.726   3.318  0.00  0.00    +0.061 A 
ATOM     15  C   UNL     1       2.651  -0.190   2.347  0.00  0.00    +0.023 A 
ATOM     16 BR   UNL     1       2.207   0.198   5.132  0.00  0.00    -0.046 Br
ATOM     17 BR   UNL     1       1.631   4.193   1.134  0.00  0.00    -0.046 Br
BRANCH  13  18
ATOM     18  O   UNL     1       1.625   2.932   3.912  0.00  0.00    -0.505 OA
ATOM     19  H   UNL     1       0.674   2.966   4.082  0.00  0.00    +0.292 HD
ENDBRANCH  13  18
ENDBRANCH   3  10
BRANCH   5  20
ATOM     20  N   UNL     1       5.109   0.310  -2.995  0.00  0.00    -0.329 N 
ATOM     21  H   UNL     1       5.886   0.661  -2.532  0.00  0.00    +0.145 HD
ATOM     22  H   UNL     1       5.070   0.334  -3.964  0.00  0.00    +0.145 HD
ENDBRANCH   5  20
BRANCH   1  24
ATOM     23  C   UNL     1      -0.420  -1.693   1.278  0.00  0.00    +0.010 C 
ATOM     24  C   UNL     1      -0.048  -0.476   0.429  0.00  0.00    +0.054 C 
ENDBRANCH   1  24
BRANCH   4  25
ATOM     25  C   UNL     1       5.362   0.353  -0.345  0.00  0.00    +0.101 C 
ATOM     26  N   UNL     1       6.293   0.804   0.124  0.00  0.00    -0.191 NA
ENDBRANCH   4  25
TORSDOF 5
