REMARK  Name = ZINC07749694
REMARK  6 active torsions:
REMARK  status: ('A' for Active; 'I' for Inactive)
REMARK    1  A    between atoms: C_1  and  C_2
REMARK    2  A    between atoms: C_15  and  C_17
REMARK    3  A    between atoms: C_17  and  N_51
REMARK    4  A    between atoms: C_18  and  C_20
REMARK    5  A    between atoms: C_18  and  C_26
REMARK    6  A    between atoms: C_18  and  N_51
REMARK                            x       y       z     vdW  Elec       q    Type
REMARK                         _______ _______ _______ _____ _____    ______ ____
ROOT
ATOM      1  C   UNL     1       4.786   9.720  -2.988  0.00  0.00    +0.029 C 
ATOM      2  C   UNL     1       4.383   8.455  -3.748  0.00  0.00    +0.087 C 
ATOM      3  C   UNL     1       5.276   8.296  -4.979  0.00  0.00    +0.118 C 
ATOM      4  C   UNL     1       5.178   6.892  -5.514  0.00  0.00    +0.219 C 
ATOM      5  O   UNL     1       4.536   6.674  -6.520  0.00  0.00    -0.275 OA
ATOM      6  N   UNL     1       5.799   5.871  -4.880  0.00  0.00    -0.284 N 
ATOM      7  C   UNL     1       6.469   6.088  -3.671  0.00  0.00    +0.055 A 
ATOM      8  C   UNL     1       7.758   5.618  -3.477  0.00  0.00    +0.025 A 
ATOM      9  C   UNL     1       8.386   5.817  -2.261  0.00  0.00    +0.002 A 
ATOM     10  C   UNL     1       7.731   6.482  -1.240  0.00  0.00    +0.002 A 
ATOM     11  C   UNL     1       6.450   6.965  -1.431  0.00  0.00    +0.025 A 
ATOM     12  C   UNL     1       5.820   6.784  -2.646  0.00  0.00    +0.058 A 
ATOM     13  N   UNL     1       4.534   7.292  -2.872  0.00  0.00    -0.268 N 
ATOM     14  C   UNL     1       3.459   6.726  -2.289  0.00  0.00    +0.203 C 
ATOM     15  O   UNL     1       2.351   7.179  -2.488  0.00  0.00    -0.277 OA
ATOM     16  H   UNL     1       5.779   4.982  -5.267  0.00  0.00    +0.155 HD
ENDROOT
BRANCH  14  17
ATOM     17  C   UNL     1       3.632   5.530  -1.389  0.00  0.00    +0.017 C 
BRANCH  17  18
ATOM     18  N   UNL     1       2.311   5.108  -0.885  0.00  0.00    +0.392 N 
ATOM     19  H   UNL     1       1.708   4.863  -1.679  0.00  0.00    -0.084 HD
ATOM     20  H   UNL     1       1.887   5.881  -0.359  0.00  0.00    -0.084 HD
BRANCH  18  21
ATOM     21  C   UNL     1       2.451   3.937   0.000  0.00  0.00    -0.003 C 
BRANCH  21  22
ATOM     22  C   UNL     1       1.156   3.165   0.008  0.00  0.00    -0.057 A 
ATOM     23  C   UNL     1       1.175   1.783   0.000  0.00  0.00    +0.002 A 
ATOM     24  C   UNL     1      -0.013   1.076   0.008  0.00  0.00    +0.000 A 
ATOM     25  C   UNL     1      -1.219   1.751   0.017  0.00  0.00    +0.000 A 
ATOM     26  C   UNL     1      -1.238   3.133   0.029  0.00  0.00    +0.000 A 
ATOM     27  C   UNL     1      -0.050   3.840   0.022  0.00  0.00    +0.002 A 
ENDBRANCH  21  22
BRANCH  21  28
ATOM     28  C   UNL     1       2.769   4.398   1.399  0.00  0.00    -0.020 A 
ATOM     29  C   UNL     1       3.622   3.857   2.303  0.00  0.00    +0.010 A 
ATOM     30  C   UNL     1       3.759   4.460   3.540  0.00  0.00    +0.008 A 
ATOM     31  C   UNL     1       3.027   5.567   3.816  0.00  0.00    +0.045 A 
ATOM     32  S   UNL     1       2.114   5.794   2.299  0.00  0.00    -0.103 S 
ENDBRANCH  21  28
ENDBRANCH  18  21
ENDBRANCH  17  18
ENDBRANCH  14  17
TORSDOF 5
