REMARK  Name = ZINC04482503
REMARK  4 active torsions:
REMARK  status: ('A' for Active; 'I' for Inactive)
REMARK    1  A    between atoms: C_1  and  C_2
REMARK    2  A    between atoms: C_5  and  C_16
REMARK    3  A    between atoms: C_5  and  C_18
REMARK    4  A    between atoms: C_6  and  C_9
REMARK                            x       y       z     vdW  Elec       q    Type
REMARK                         _______ _______ _______ _____ _____    ______ ____
ROOT
ATOM      1  C   UNL     1      -1.277  -0.639   0.419  0.00  0.00    +0.039 C 
ATOM      2  C   UNL     1      -0.001   0.055   0.017  0.00  0.00    -0.076 C 
ATOM      3  C   UNL     1       1.031  -0.679  -0.251  0.00  0.00    -0.026 C 
ATOM      4  C   UNL     1       2.369  -0.133  -0.654  0.00  0.00    +0.057 C 
ATOM      5  C   UNL     1       2.230   1.321  -1.108  0.00  0.00    +0.182 C 
ATOM      6  C   UNL     1       1.429   2.086  -0.047  0.00  0.00    +0.051 C 
ATOM      7  C   UNL     1      -0.006   1.554  -0.047  0.00  0.00    +0.040 C 
ENDROOT
BRANCH   6   8
ATOM      8  C   UNL     1       1.424   3.557  -0.378  0.00  0.00    -0.042 A 
ATOM      9  C   UNL     1       0.798   4.004  -1.527  0.00  0.00    +0.005 A 
ATOM     10  C   UNL     1       0.788   5.353  -1.829  0.00  0.00    +0.020 A 
ATOM     11  C   UNL     1       1.415   6.254  -0.986  0.00  0.00    +0.041 A 
ATOM     12  C   UNL     1       2.045   5.805   0.160  0.00  0.00    +0.020 A 
ATOM     13  C   UNL     1       2.050   4.457   0.464  0.00  0.00    +0.005 A 
ATOM     14 CL   UNL     1       1.408   7.947  -1.368  0.00  0.00    -0.084 Cl
ENDBRANCH   6   8
BRANCH   5  15
ATOM     15  C   UNL     1       3.597   1.939  -1.254  0.00  0.00    +0.374 C 
ATOM     16  O   UNL     1       3.896   2.906  -0.594  0.00  0.00    -0.245 OA
ATOM     17  O   UNL     1       4.481   1.416  -2.117  0.00  0.00    -0.245 OA
ENDBRANCH   5  15
BRANCH   5  18
ATOM     18  C   UNL     1       1.503   1.372  -2.427  0.00  0.00    +0.374 C 
ATOM     19  O   UNL     1       1.987   1.966  -3.361  0.00  0.00    -0.245 OA
ATOM     20  O   UNL     1       0.317   0.758  -2.564  0.00  0.00    -0.245 OA
ENDBRANCH   5  18
TORSDOF 3
