REMARK  Name = ZINC39531004
REMARK  8 active torsions:
REMARK  status: ('A' for Active; 'I' for Inactive)
REMARK    1  A    between atoms: C_4  and  C_7
REMARK    2  A    between atoms: C_7  and  C_8
REMARK    3  A    between atoms: C_11  and  C_14
REMARK    4  A    between atoms: C_14  and  C_16
REMARK    5  A    between atoms: C_14  and  N_19
REMARK    6  A    between atoms: C_16  and  N_17
REMARK    7  A    between atoms: C_23  and  C_26
REMARK    8  A    between atoms: C_26  and  C_27
REMARK                            x       y       z     vdW  Elec       q    Type
REMARK                         _______ _______ _______ _____ _____    ______ ____
ROOT
ATOM      1  C   UNL     1       5.468  -1.617   5.403  0.00  0.00    +0.101 C 
ENDROOT
BRANCH   1   2
ATOM      2  N   UNL     1       5.794  -3.039   5.574  0.00  0.00    -0.297 NA
ATOM      3  C   UNL     1       4.581  -3.833   5.812  0.00  0.00    +0.066 C 
ATOM      4  C   UNL     1       4.957  -5.312   5.925  0.00  0.00    -0.067 C 
ATOM      5  N   UNL     1       5.906  -5.493   7.031  0.00  0.00    +0.383 N 
ATOM      6  C   UNL     1       7.122  -4.713   6.767  0.00  0.00    -0.053 C 
ATOM      7  C   UNL     1       6.765  -3.229   6.661  0.00  0.00    +0.069 C 
ATOM      8  H   UNL     1       5.484  -5.176   7.891  0.00  0.00    -0.085 HD
ATOM      9  H   UNL     1       6.144  -6.470   7.113  0.00  0.00    -0.085 HD
BRANCH   6  10
ATOM     10  C   UNL     1       8.117  -4.918   7.911  0.00  0.00    +0.020 C 
BRANCH  10  11
ATOM     11  C   UNL     1       8.564  -6.357   7.938  0.00  0.00    -0.049 A 
ATOM     12  C   UNL     1       7.861  -7.285   8.684  0.00  0.00    +0.003 A 
ATOM     13  C   UNL     1       8.271  -8.605   8.708  0.00  0.00    +0.000 A 
ATOM     14  C   UNL     1       9.382  -8.997   7.986  0.00  0.00    +0.000 A 
ATOM     15  C   UNL     1      10.084  -8.069   7.239  0.00  0.00    +0.000 A 
ATOM     16  C   UNL     1       9.672  -6.750   7.212  0.00  0.00    +0.003 A 
ENDBRANCH  10  11
ENDBRANCH   6  10
ENDBRANCH   1   2
BRANCH   1  20
ATOM     17  C   UNL     1       4.391  -0.882   1.335  0.00  0.00    -0.043 A 
ATOM     18  C   UNL     1       4.781   0.166   2.147  0.00  0.00    +0.004 A 
ATOM     19  C   UNL     1       5.130  -0.071   3.463  0.00  0.00    +0.005 A 
ATOM     20  C   UNL     1       5.087  -1.357   3.968  0.00  0.00    -0.029 A 
ATOM     21  C   UNL     1       4.696  -2.406   3.157  0.00  0.00    +0.005 A 
ATOM     22  C   UNL     1       4.343  -2.168   1.841  0.00  0.00    +0.004 A 
BRANCH  17  23
ATOM     23  C   UNL     1       4.011  -0.624  -0.100  0.00  0.00    +0.070 C 
BRANCH  23  27
ATOM     24  C   UNL     1      -0.173   0.203  -0.341  0.00  0.00    +0.000 A 
ATOM     25  C   UNL     1       0.725   1.236  -0.149  0.00  0.00    +0.000 A 
ATOM     26  C   UNL     1       2.079   0.968  -0.071  0.00  0.00    +0.004 A 
ATOM     27  C   UNL     1       2.535  -0.332  -0.184  0.00  0.00    -0.043 A 
ATOM     28  C   UNL     1       1.636  -1.365  -0.375  0.00  0.00    +0.004 A 
ATOM     29  C   UNL     1       0.282  -1.097  -0.455  0.00  0.00    +0.000 A 
ENDBRANCH  23  27
ENDBRANCH  17  23
ENDBRANCH   1  20
BRANCH   1  30
ATOM     30  C   UNL     1       4.297  -1.249   6.316  0.00  0.00    +0.117 C 
BRANCH  30  31
ATOM     31  N   UNL     1       4.670  -1.496   7.715  0.00  0.00    -0.254 NA
ATOM     32 BR   UNL     1       3.373  -0.859   8.870  0.00  0.00    +0.010 Br
ATOM     33  H   UNL     1       4.845  -2.477   7.874  0.00  0.00    +0.135 HD
ENDBRANCH  30  31
ENDBRANCH   1  30
TORSDOF 8
