REMARK  Name = ZINC59170375
REMARK  5 active torsions:
REMARK  status: ('A' for Active; 'I' for Inactive)
REMARK    1  A    between atoms: C_4  and  N_7
REMARK    2  A    between atoms: C_8  and  C_10
REMARK    3  A    between atoms: N_20  and  C_21
REMARK    4  A    between atoms: C_24  and  S_27
REMARK    5  A    between atoms: S_27  and  N_30
REMARK                            x       y       z     vdW  Elec       q    Type
REMARK                         _______ _______ _______ _____ _____    ______ ____
ROOT
ATOM      1  C   UNL     1       4.916  -2.683   0.200  0.00  0.00    +0.098 A 
ATOM      2  C   UNL     1       4.958  -4.071   0.181  0.00  0.00    +0.030 A 
ATOM      3  C   UNL     1       6.278  -4.704   0.223  0.00  0.00    +0.018 A 
ATOM      4  C   UNL     1       6.428  -6.067  -0.058  0.00  0.00    +0.011 A 
ATOM      5  C   UNL     1       7.671  -6.635  -0.015  0.00  0.00    +0.001 A 
ATOM      6  C   UNL     1       8.784  -5.872   0.304  0.00  0.00    +0.004 A 
ATOM      7  C   UNL     1       8.658  -4.526   0.586  0.00  0.00    +0.047 A 
ATOM      8  C   UNL     1       7.407  -3.929   0.550  0.00  0.00    +0.137 A 
ATOM      9  O   UNL     1       7.261  -2.611   0.831  0.00  0.00    -0.439 OA
ATOM     10  C   UNL     1       6.209  -1.971   0.254  0.00  0.00    +0.212 A 
ATOM     11  N   UNL     1       6.335  -0.757  -0.235  0.00  0.00    -0.325 N 
ATOM     12  H   UNL     1       5.606  -0.357  -0.735  0.00  0.00    +0.169 HD
ENDROOT
BRANCH  11  13
ATOM     13  C   UNL     1       7.494  -0.058  -0.039  0.00  0.00    +0.042 A 
ATOM     14  C   UNL     1       8.097  -0.038   1.222  0.00  0.00    +0.027 A 
ATOM     15  C   UNL     1       9.266   0.669   1.412  0.00  0.00    +0.030 A 
ATOM     16  C   UNL     1       9.841   1.357   0.359  0.00  0.00    +0.105 A 
ATOM     17  C   UNL     1       9.250   1.342  -0.892  0.00  0.00    +0.030 A 
ATOM     18  C   UNL     1       8.084   0.635  -1.099  0.00  0.00    +0.027 A 
BRANCH  16  19
ATOM     19  S   UNL     1      11.335   2.258   0.612  0.00  0.00    +0.056 S 
ATOM     20  O   UNL     1      11.378   3.262  -0.393  0.00  0.00    -0.153 OA
ATOM     21  O   UNL     1      11.394   2.564   1.998  0.00  0.00    -0.153 OA
BRANCH  19  22
ATOM     22  N   UNL     1      12.589   1.223   0.301  0.00  0.00    -0.204 NA
ATOM     23  H   UNL     1      12.409   0.308   0.035  0.00  0.00    +0.144 HD
ATOM     24  H   UNL     1      13.505   1.532   0.385  0.00  0.00    +0.144 HD
ENDBRANCH  19  22
ENDBRANCH  16  19
ENDBRANCH  11  13
BRANCH   1  26
ATOM     25  N   UNL     1       3.622  -0.614   0.318  0.00  0.00    -0.281 N 
ATOM     26  C   UNL     1       3.638  -1.952   0.161  0.00  0.00    +0.253 C 
ATOM     27  O   UNL     1       2.597  -2.557  -0.013  0.00  0.00    -0.270 OA
ATOM     28  H   UNL     1       4.456  -0.125   0.404  0.00  0.00    +0.155 HD
BRANCH  25  32
ATOM     29  C   UNL     1      -0.008   1.427   0.435  0.00  0.00    +0.000 A 
ATOM     30  C   UNL     1       1.051   1.856   1.215  0.00  0.00    +0.002 A 
ATOM     31  C   UNL     1       2.255   1.182   1.178  0.00  0.00    +0.023 A 
ATOM     32  C   UNL     1       2.403   0.071   0.357  0.00  0.00    +0.034 A 
ATOM     33  C   UNL     1       1.338  -0.358  -0.424  0.00  0.00    +0.023 A 
ATOM     34  C   UNL     1       0.136   0.321  -0.383  0.00  0.00    +0.002 A 
ENDBRANCH  25  32
ENDBRANCH   1  26
TORSDOF 5
