REMARK  Name = ZINC00845544
REMARK  10 active torsions:
REMARK  status: ('A' for Active; 'I' for Inactive)
REMARK    1  A    between atoms: C_1  and  C_2
REMARK    2  A    between atoms: C_3  and  C_22
REMARK    3  A    between atoms: C_4  and  C_10
REMARK    4  A    between atoms: C_12  and  O_20
REMARK    5  A    between atoms: C_13  and  O_18
REMARK    6  A    between atoms: C_14  and  O_16
REMARK    7  A    between atoms: O_16  and  C_17
REMARK    8  A    between atoms: O_18  and  C_19
REMARK    9  A    between atoms: O_20  and  C_21
REMARK   10  A    between atoms: N_24  and  C_25
REMARK                            x       y       z     vdW  Elec       q    Type
REMARK                         _______ _______ _______ _____ _____    ______ ____
ROOT
ATOM      1  C   UNL     1      -3.623  -0.139   0.059  0.00  0.00    +0.061 C 
ATOM      2  C   UNL     1      -2.658  -1.296   0.037  0.00  0.00    +0.017 C 
ATOM      3  C   UNL     1      -1.344  -1.060  -0.164  0.00  0.00    +0.056 C 
ATOM      4  C   UNL     1      -0.407  -2.251  -0.173  0.00  0.00    +0.139 C 
ATOM      5  N   UNL     1      -1.013  -3.578   0.033  0.00  0.00    -0.315 N 
ATOM      6  C   UNL     1      -2.346  -3.653   0.215  0.00  0.00    +0.135 C 
ATOM      7  S   UNL     1      -3.063  -5.189   0.456  0.00  0.00    -0.019 S 
ATOM      8  N   UNL     1      -3.127  -2.566   0.214  0.00  0.00    -0.300 N 
ATOM      9  H   UNL     1      -0.465  -4.378   0.037  0.00  0.00    +0.149 HD
ATOM     10  H   UNL     1      -4.080  -2.687   0.350  0.00  0.00    +0.154 HD
ENDROOT
BRANCH   4  11
ATOM     11  C   UNL     1       0.624  -2.040   0.905  0.00  0.00    -0.016 A 
ATOM     12  C   UNL     1       0.290  -2.250   2.229  0.00  0.00    +0.055 A 
ATOM     13  C   UNL     1       1.238  -2.061   3.224  0.00  0.00    +0.165 A 
ATOM     14  C   UNL     1       2.522  -1.650   2.888  0.00  0.00    +0.204 A 
ATOM     15  C   UNL     1       2.853  -1.434   1.555  0.00  0.00    +0.165 A 
ATOM     16  C   UNL     1       1.901  -1.631   0.566  0.00  0.00    +0.055 A 
BRANCH  15  17
ATOM     17  O   UNL     1       4.108  -1.032   1.222  0.00  0.00    -0.491 OA
ATOM     18  C   UNL     1       4.340  -0.700  -0.149  0.00  0.00    +0.277 C 
ENDBRANCH  15  17
BRANCH  14  19
ATOM     19  O   UNL     1       3.454  -1.458   3.861  0.00  0.00    -0.488 OA
ATOM     20  C   UNL     1       3.535  -0.150   4.432  0.00  0.00    +0.277 C 
ENDBRANCH  14  19
BRANCH  13  21
ATOM     21  O   UNL     1       0.910  -2.274   4.526  0.00  0.00    -0.491 OA
ATOM     22  C   UNL     1      -0.428  -2.696   4.798  0.00  0.00    +0.277 C 
ENDBRANCH  13  21
ENDBRANCH   4  11
BRANCH   3  23
ATOM     23  C   UNL     1      -0.857   0.256  -0.353  0.00  0.00    +0.248 C 
ATOM     24  O   UNL     1      -0.388   0.583  -1.428  0.00  0.00    -0.270 OA
ATOM     25  N   UNL     1      -0.912   1.147   0.657  0.00  0.00    -0.282 N 
ATOM     26  H   UNL     1      -1.199   0.863   1.539  0.00  0.00    +0.155 HD
BRANCH  25  27
ATOM     27  C   UNL     1      -0.556   2.481   0.433  0.00  0.00    +0.034 A 
ATOM     28  C   UNL     1       0.483   2.787  -0.436  0.00  0.00    +0.025 A 
ATOM     29  C   UNL     1       0.829   4.106  -0.659  0.00  0.00    +0.022 A 
ATOM     30  C   UNL     1       0.148   5.120  -0.009  0.00  0.00    +0.041 A 
ATOM     31  C   UNL     1      -0.885   4.817   0.861  0.00  0.00    +0.022 A 
ATOM     32  C   UNL     1      -1.238   3.501   1.084  0.00  0.00    +0.025 A 
ATOM     33 CL   UNL     1       0.589   6.776  -0.287  0.00  0.00    -0.084 Cl
ENDBRANCH  25  27
ENDBRANCH   3  23
TORSDOF 6
