REMARK  Name = ZINC20616943
REMARK  10 active torsions:
REMARK  status: ('A' for Active; 'I' for Inactive)
REMARK    1  A    between atoms: C_1  and  C_2
REMARK    2  A    between atoms: C_4  and  C_33
REMARK    3  A    between atoms: C_6  and  N_8
REMARK    4  A    between atoms: C_10  and  C_22
REMARK    5  A    between atoms: C_13  and  C_20
REMARK    6  A    between atoms: C_16  and  C_19
REMARK    7  A    between atoms: C_20  and  O_21
REMARK    8  A    between atoms: N_24  and  C_25
REMARK    9  A    between atoms: C_28  and  O_31
REMARK   10  A    between atoms: O_31  and  C_32
REMARK                            x       y       z     vdW  Elec       q    Type
REMARK                         _______ _______ _______ _____ _____    ______ ____
ROOT
ATOM      1  N   UNL     1       1.792   0.307   8.754  0.00  0.00    -0.325 N 
ATOM      2  C   UNL     1       2.424  -0.842   8.659  0.00  0.00    +0.212 A 
ATOM      3  C   UNL     1       3.043  -1.264   7.386  0.00  0.00    +0.098 A 
ATOM      4  C   UNL     1       4.111  -2.131   7.461  0.00  0.00    +0.030 A 
ATOM      5  C   UNL     1       4.543  -2.551   8.796  0.00  0.00    +0.027 A 
ATOM      6  C   UNL     1       5.763  -3.205   9.005  0.00  0.00    +0.007 A 
ATOM      7  C   UNL     1       6.101  -3.570  10.291  0.00  0.00    +0.117 A 
ATOM      8  N   UNL     1       5.299  -3.314  11.309  0.00  0.00    -0.256 NA
ATOM      9  C   UNL     1       4.141  -2.703  11.163  0.00  0.00    +0.081 A 
ATOM     10  C   UNL     1       3.714  -2.299   9.905  0.00  0.00    +0.159 A 
ATOM     11  O   UNL     1       2.527  -1.672   9.729  0.00  0.00    -0.437 OA
ATOM     12  C   UNL     1       3.274  -2.442  12.368  0.00  0.00    +0.069 C 
ATOM     13  H   UNL     1       1.646   0.930   7.860  0.00  0.00    +0.169 HD
ENDROOT
BRANCH   1  19
ATOM     14  C   UNL     1      -1.761   0.263  12.122  0.00  0.00    +0.044 C 
ATOM     15  C   UNL     1      -0.411   0.725  11.636  0.00  0.00    -0.048 A 
ATOM     16  C   UNL     1       0.349   1.577  12.418  0.00  0.00    +0.006 A 
ATOM     17  C   UNL     1       1.590   2.005  11.980  0.00  0.00    -0.048 A 
ATOM     18  C   UNL     1       2.078   1.586  10.760  0.00  0.00    +0.029 A 
ATOM     19  C   UNL     1       1.315   0.726   9.965  0.00  0.00    +0.042 A 
ATOM     20  C   UNL     1       0.061   0.302  10.411  0.00  0.00    +0.029 A 
ATOM     21  C   UNL     1       2.411   2.933  12.839  0.00  0.00    +0.044 C 
ENDBRANCH   1  19
BRANCH   3  22
ATOM     22  C   UNL     1       2.535  -0.782   6.089  0.00  0.00    +0.253 C 
ATOM     23  O   UNL     1       3.063  -1.146   5.056  0.00  0.00    -0.270 OA
ATOM     24  N   UNL     1       1.484   0.061   6.048  0.00  0.00    -0.281 N 
ATOM     25  H   UNL     1       1.067   0.466   6.982  0.00  0.00    +0.155 HD
BRANCH  24  26
ATOM     26  C   UNL     1       0.924   0.423   4.817  0.00  0.00    +0.034 A 
ATOM     27  C   UNL     1       0.255   1.633   4.686  0.00  0.00    +0.027 A 
ATOM     28  C   UNL     1      -0.297   1.988   3.472  0.00  0.00    +0.047 A 
ATOM     29  C   UNL     1      -0.183   1.138   2.382  0.00  0.00    +0.120 A 
ATOM     30  C   UNL     1       0.480  -0.074   2.513  0.00  0.00    +0.047 A 
ATOM     31  C   UNL     1       1.038  -0.428   3.725  0.00  0.00    +0.027 A 
BRANCH  29  32
ATOM     32  O   UNL     1      -0.728   1.489   1.187  0.00  0.00    -0.495 OA
ATOM     33  C   UNL     1      -0.573   0.565   0.107  0.00  0.00    +0.277 C 
ENDBRANCH  29  32
ENDBRANCH  24  26
ENDBRANCH   3  22
BRANCH   6  34
ATOM     34  C   UNL     1       6.686  -3.502   7.851  0.00  0.00    +0.193 C 
BRANCH  34  35
ATOM     35  O   UNL     1       7.854  -4.169   8.335  0.00  0.00    -0.390 OA
ATOM     36  H   UNL     1       8.647  -4.468   7.634  0.00  0.00    +0.210 HD
ENDBRANCH  34  35
ENDBRANCH   6  34
TORSDOF 6
