REMARK  Name = ZINC20504586
REMARK  15 active torsions:
REMARK  status: ('A' for Active; 'I' for Inactive)
REMARK    1  A    between atoms: C_1  and  C_2
REMARK    2  A    between atoms: N_9  and  C_10
REMARK    3  A    between atoms: C_10  and  C_12
REMARK    4  A    between atoms: C_12  and  N_13
REMARK    5  A    between atoms: N_13  and  C_14
REMARK    6  A    between atoms: N_13  and  C_15
REMARK    7  A    between atoms: C_17  and  C_38
REMARK    8  A    between atoms: C_20  and  O_37
REMARK    9  A    between atoms: C_22  and  C_26
REMARK   10  A    between atoms: C_26  and  C_28
REMARK   11  A    between atoms: C_26  and  C_29
REMARK   12  A    between atoms: N_31  and  C_32
REMARK   13  A    between atoms: N_31  and  C_33
REMARK   14  A    between atoms: C_33  and  C_34
REMARK   15  A    between atoms: C_34  and  C_35
REMARK                            x       y       z     vdW  Elec       q    Type
REMARK                         _______ _______ _______ _____ _____    ______ ____
ROOT
ATOM      1  C   UNL     1      -0.642  -1.247  -2.589  0.00  0.00    +0.014 C 
ATOM      2  C   UNL     1       0.852  -1.004  -2.364  0.00  0.00    +0.039 C 
ATOM      3  C   UNL     1       1.643  -2.119  -3.014  0.00  0.00    +0.031 A 
ATOM      4  C   UNL     1       2.717  -2.653  -2.376  0.00  0.00    +0.013 A 
ATOM      5  S   UNL     1       3.279  -3.883  -3.522  0.00  0.00    -0.057 S 
ATOM      6  C   UNL     1       2.070  -3.606  -4.740  0.00  0.00    +0.163 A 
ATOM      7  N   UNL     1       1.357  -2.637  -4.206  0.00  0.00    -0.339 N 
ATOM      8  N   UNL     1       1.899  -4.245  -5.963  0.00  0.00    -0.158 NA
ATOM      9  C   UNL     1       3.262  -2.278  -1.043  0.00  0.00    +0.051 C 
ATOM     10  C   UNL     1       2.652  -0.930  -0.612  0.00  0.00    -0.022 C 
ATOM     11  C   UNL     1       1.142  -0.965  -0.858  0.00  0.00    +0.033 C 
ATOM     12  C   UNL     1       0.485   0.296  -0.287  0.00  0.00    +0.123 C 
ATOM     13  C   UNL     1       0.777   0.440   1.192  0.00  0.00    +0.029 C 
ATOM     14  C   UNL     1       2.293   0.541   1.392  0.00  0.00    +0.007 C 
ATOM     15  C   UNL     1       2.941  -0.744   0.881  0.00  0.00    +0.008 C 
ATOM     16  C   UNL     1       3.285   0.210  -1.413  0.00  0.00    +0.012 C 
ATOM     17  H   UNL     1       0.499  -2.255  -4.779  0.00  0.00    +0.167 HD
ENDROOT
BRANCH   8  18
ATOM     18  C   UNL     1       2.746  -5.226  -6.335  0.00  0.00    +0.222 C 
ATOM     19  O   UNL     1       3.655  -5.551  -5.602  0.00  0.00    -0.276 OA
BRANCH  18  20
ATOM     20  C   UNL     1       2.561  -5.917  -7.661  0.00  0.00    +0.020 C 
BRANCH  20  21
ATOM     21  N   UNL     1       3.603  -6.939  -7.829  0.00  0.00    +0.382 N 
ATOM     22  C   UNL     1       3.445  -8.019  -6.846  0.00  0.00    -0.096 C 
ATOM     23  C   UNL     1       3.604  -7.470  -9.199  0.00  0.00    -0.096 C 
ATOM     24  H   UNL     1       4.577  -6.461  -7.652  0.00  0.00    -0.082 HD
ENDBRANCH  20  21
ENDBRANCH  18  20
ENDBRANCH   8  18
BRANCH  13  25
ATOM     25  C   UNL     1       0.242  -0.784   1.936  0.00  0.00    +0.078 C 
ATOM     26  C   UNL     1      -1.286  -0.800   1.858  0.00  0.00    +0.017 C 
BRANCH  25  27
ATOM     27  C   UNL     1       0.671  -0.723   3.379  0.00  0.00    +0.219 C 
ATOM     28  O   UNL     1       0.923   0.347   3.891  0.00  0.00    -0.275 OA
ATOM     29  N   UNL     1       0.773  -1.856   4.101  0.00  0.00    -0.303 N 
ATOM     30  C   UNL     1       0.386  -3.139   3.508  0.00  0.00    +0.132 C 
BRANCH  29  31
ATOM     31  C   UNL     1       1.272  -1.806   5.477  0.00  0.00    +0.122 C 
BRANCH  31  32
ATOM     32  C   UNL     1       0.099  -1.604   6.438  0.00  0.00    +0.137 C 
BRANCH  32  33
ATOM     33  C   UNL     1       0.601  -1.553   7.821  0.00  0.00    +0.064 C 
ATOM     34  N   UNL     1       0.987  -1.514   8.888  0.00  0.00    -0.197 NA
ENDBRANCH  32  33
ENDBRANCH  31  32
ENDBRANCH  29  31
ENDBRANCH  25  27
ENDBRANCH  13  25
BRANCH  12  35
ATOM     35  O   UNL     1      -0.928   0.222  -0.483  0.00  0.00    -0.391 OA
ATOM     36  H   UNL     1      -1.575   1.042  -0.136  0.00  0.00    +0.210 HD
ENDBRANCH  12  35
TORSDOF 9
