REMARK  Name = ZINC08947389
REMARK  9 active torsions:
REMARK  status: ('A' for Active; 'I' for Inactive)
REMARK    1  A    between atoms: C_1  and  C_2
REMARK    2  A    between atoms: C_2  and  C_22
REMARK    3  A    between atoms: N_5  and  C_9
REMARK    4  A    between atoms: C_9  and  C_10
REMARK    5  A    between atoms: N_15  and  C_16
REMARK    6  A    between atoms: C_25  and  C_28
REMARK    7  A    between atoms: C_28  and  C_29
REMARK    8  A    between atoms: C_28  and  C_30
REMARK    9  A    between atoms: C_28  and  C_31
REMARK                            x       y       z     vdW  Elec       q    Type
REMARK                         _______ _______ _______ _____ _____    ______ ____
ROOT
ATOM      1  C   UNL     1       1.822  -1.203   1.235  0.00  0.00    +0.047 C 
ATOM      2  C   UNL     1       1.467  -0.394  -0.014  0.00  0.00    +0.135 C 
ATOM      3  C   UNL     1       0.002  -0.004   0.002  0.00  0.00    +0.251 C 
ATOM      4  O   UNL     1      -0.954  -0.749   0.008  0.00  0.00    -0.272 OA
ATOM      5  N   UNL     1      -0.016   1.343   0.009  0.00  0.00    -0.215 N 
ATOM      6  C   UNL     1       1.220   1.854   0.000  0.00  0.00    +0.310 C 
ATOM      7  O   UNL     1       1.460   3.045   0.004  0.00  0.00    -0.252 OA
ATOM      8  N   UNL     1       2.170   0.901  -0.014  0.00  0.00    -0.281 N 
ATOM      9  H   UNL     1       3.130   1.039  -0.022  0.00  0.00    +0.152 HD
ENDROOT
BRANCH   2  10
ATOM     10  C   UNL     1       1.794  -1.175  -1.261  0.00  0.00    -0.015 A 
ATOM     11  C   UNL     1       0.828  -1.964  -1.856  0.00  0.00    +0.006 A 
ATOM     12  C   UNL     1       1.127  -2.677  -3.002  0.00  0.00    +0.004 A 
ATOM     13  C   UNL     1       2.394  -2.608  -3.548  0.00  0.00    -0.042 A 
ATOM     14  C   UNL     1       3.362  -1.822  -2.950  0.00  0.00    +0.004 A 
ATOM     15  C   UNL     1       3.062  -1.106  -1.806  0.00  0.00    +0.006 A 
BRANCH  13  16
ATOM     16  C   UNL     1       2.722  -3.389  -4.794  0.00  0.00    -0.013 C 
ATOM     17  C   UNL     1       3.861  -4.367  -4.499  0.00  0.00    +0.015 C 
ATOM     18  C   UNL     1       1.485  -4.168  -5.247  0.00  0.00    +0.015 C 
ATOM     19  C   UNL     1       3.151  -2.425  -5.902  0.00  0.00    +0.015 C 
ENDBRANCH  13  16
ENDBRANCH   2  10
BRANCH   5  20
ATOM     20  C   UNL     1      -1.239   2.150   0.020  0.00  0.00    +0.214 C 
BRANCH  20  21
ATOM     21  C   UNL     1      -1.652   2.419   1.444  0.00  0.00    +0.238 C 
ATOM     22  O   UNL     1      -0.990   1.980   2.360  0.00  0.00    -0.274 OA
ATOM     23  N   UNL     1      -2.757   3.147   1.700  0.00  0.00    -0.239 N 
ATOM     24  C   UNL     1      -3.126   3.387   2.974  0.00  0.00    +0.306 C 
ATOM     25  O   UNL     1      -2.462   2.947   3.892  0.00  0.00    -0.252 OA
ATOM     26  N   UNL     1      -4.231   4.115   3.229  0.00  0.00    -0.296 N 
ATOM     27  H   UNL     1      -3.287   3.498   0.967  0.00  0.00    +0.159 HD
ATOM     28  H   UNL     1      -4.760   4.466   2.496  0.00  0.00    +0.151 HD
BRANCH  26  29
ATOM     29  C   UNL     1      -4.632   4.377   4.614  0.00  0.00    +0.074 C 
ATOM     30  C   UNL     1      -5.463   3.202   5.134  0.00  0.00    +0.022 C 
ATOM     31  C   UNL     1      -5.882   3.475   6.580  0.00  0.00    +0.002 C 
ATOM     32  C   UNL     1      -6.717   4.756   6.636  0.00  0.00    +0.000 C 
ATOM     33  C   UNL     1      -5.885   5.930   6.116  0.00  0.00    +0.002 C 
ATOM     34  C   UNL     1      -5.467   5.657   4.670  0.00  0.00    +0.022 C 
ENDBRANCH  26  29
ENDBRANCH  20  21
ENDBRANCH   5  20
TORSDOF 5
