REMARK  Name = ZINC26282500
REMARK  10 active torsions:
REMARK  status: ('A' for Active; 'I' for Inactive)
REMARK    1  A    between atoms: C_1  and  S_2
REMARK    2  A    between atoms: S_2  and  C_3
REMARK    3  A    between atoms: C_3  and  C_4
REMARK    4  A    between atoms: C_4  and  C_5
REMARK    5  A    between atoms: C_5  and  C_7
REMARK    6  A    between atoms: C_5  and  N_23
REMARK    7  A    between atoms: C_26  and  C_31
REMARK    8  A    between atoms: C_31  and  C_32
REMARK    9  A    between atoms: C_32  and  C_33
REMARK   10  A    between atoms: C_33  and  N_34
REMARK                            x       y       z     vdW  Elec       q    Type
REMARK                         _______ _______ _______ _____ _____    ______ ____
ROOT
ATOM      1  C   UNL     1       1.305   1.883   0.515  0.00  0.00    +0.172 C 
ENDROOT
BRANCH   1   2
ATOM      2  C   UNL     1       0.118   0.992   0.774  0.00  0.00    +0.237 C 
ATOM      3  O   UNL     1       0.277  -0.098   1.282  0.00  0.00    -0.274 OA
ATOM      4  N   UNL     1      -1.120   1.404   0.437  0.00  0.00    -0.300 N 
ATOM      5  C   UNL     1      -1.317   2.675  -0.272  0.00  0.00    +0.108 C 
ATOM      6  C   UNL     1      -2.318   3.528   0.506  0.00  0.00    +0.030 C 
ATOM      7  C   UNL     1      -3.593   2.725   0.748  0.00  0.00    -0.001 C 
ATOM      8  C   UNL     1      -4.236   2.345  -0.599  0.00  0.00    +0.016 C 
ATOM      9  C   UNL     1      -5.744   2.409  -0.273  0.00  0.00    +0.036 C 
ATOM     10  C   UNL     1      -5.859   3.389   0.876  0.00  0.00    -0.044 A 
ATOM     11  C   UNL     1      -4.619   3.570   1.463  0.00  0.00    -0.038 A 
ATOM     12  C   UNL     1      -4.487   4.430   2.540  0.00  0.00    +0.004 A 
ATOM     13  C   UNL     1      -5.587   5.107   3.030  0.00  0.00    +0.000 A 
ATOM     14  C   UNL     1      -6.826   4.925   2.444  0.00  0.00    +0.000 A 
ATOM     15  C   UNL     1      -6.960   4.067   1.369  0.00  0.00    +0.004 A 
ATOM     16  C   UNL     1      -3.289   1.465   1.553  0.00  0.00    +0.030 C 
ATOM     17  C   UNL     1      -2.297   0.592   0.777  0.00  0.00    +0.108 C 
ENDBRANCH   1   2
BRANCH   1  18
ATOM     18  N   UNL     1       2.536   1.093   0.600  0.00  0.00    -0.212 N 
ATOM     19  C   UNL     1       3.410   0.941  -0.415  0.00  0.00    +0.244 C 
ATOM     20  O   UNL     1       3.329   1.415  -1.528  0.00  0.00    -0.273 OA
ATOM     21  C   UNL     1       4.516   0.057   0.126  0.00  0.00    +0.161 C 
ATOM     22  N   UNL     1       4.094  -0.219   1.510  0.00  0.00    -0.288 N 
ATOM     23  C   UNL     1       2.929   0.428   1.693  0.00  0.00    +0.310 C 
ATOM     24  O   UNL     1       2.303   0.410   2.734  0.00  0.00    -0.252 OA
ATOM     25  H   UNL     1       4.716  -0.853   2.159  0.00  0.00    +0.151 HD
BRANCH  21  26
ATOM     26  C   UNL     1       5.857   0.794   0.109  0.00  0.00    +0.033 C 
BRANCH  26  27
ATOM     27  C   UNL     1       6.954  -0.130   0.642  0.00  0.00    +0.023 C 
BRANCH  27  28
ATOM     28  C   UNL     1       8.295   0.608   0.625  0.00  0.00    +0.115 C 
BRANCH  28  29
ATOM     29  N   UNL     1       9.345  -0.277   1.136  0.00  0.00    -0.358 N 
ATOM     30  C   UNL     1      10.327  -0.639   0.359  0.00  0.00    +0.166 C 
ATOM     31  N   UNL     1      10.453  -0.086  -0.893  0.00  0.00    -0.372 N 
ATOM     32  N   UNL     1      11.238  -1.573   0.793  0.00  0.00    -0.372 N 
ATOM     33  H   UNL     1      11.281  -0.391  -1.549  0.00  0.00    +0.159 HD
ATOM     34  H   UNL     1       9.724   0.662  -1.240  0.00  0.00    +0.159 HD
ATOM     35  H   UNL     1      12.067  -1.878   0.137  0.00  0.00    +0.159 HD
ATOM     36  H   UNL     1      11.137  -2.015   1.795  0.00  0.00    +0.159 HD
ATOM     37  H   UNL     1       9.304  -0.636   2.175  0.00  0.00    +0.162 HD
ENDBRANCH  28  29
ENDBRANCH  27  28
ENDBRANCH  26  27
ENDBRANCH  21  26
ENDBRANCH   1  18
BRANCH   1  38
ATOM     38  C   UNL     1       1.343   2.999   1.560  0.00  0.00    +0.043 C 
BRANCH  38  39
ATOM     39  C   UNL     1       2.469   3.978   1.220  0.00  0.00    +0.071 C 
BRANCH  39  41
ATOM     40  C   UNL     1       3.882   6.363   1.920  0.00  0.00    +0.084 C 
ATOM     41  S   UNL     1       2.513   5.302   2.460  0.00  0.00    -0.164 S 
ENDBRANCH  39  41
ENDBRANCH  38  39
ENDBRANCH   1  38
TORSDOF 9
