REMARK  Name = ZINC16687765
REMARK  7 active torsions:
REMARK  status: ('A' for Active; 'I' for Inactive)
REMARK    1  A    between atoms: C_1  and  C_2
REMARK    2  A    between atoms: C_2  and  O_3
REMARK    3  A    between atoms: O_3  and  C_4
REMARK    4  A    between atoms: C_4  and  C_6
REMARK    5  A    between atoms: C_9  and  N_27
REMARK    6  A    between atoms: C_10  and  C_17
REMARK    7  A    between atoms: C_17  and  C_19
REMARK                            x       y       z     vdW  Elec       q    Type
REMARK                         _______ _______ _______ _____ _____    ______ ____
ROOT
ATOM      1  C   UNL     1       5.921  -6.217  -0.604  0.00  0.00    +0.124 A 
ATOM      2  C   UNL     1       4.560  -5.975  -0.509  0.00  0.00    +0.032 A 
ATOM      3  C   UNL     1       4.085  -4.643  -0.376  0.00  0.00    +0.028 A 
ATOM      4  C   UNL     1       2.700  -4.203  -0.266  0.00  0.00    +0.052 A 
ATOM      5  C   UNL     1       2.481  -2.843  -0.144  0.00  0.00    +0.083 A 
ATOM      6  S   UNL     1       4.124  -2.159  -0.186  0.00  0.00    -0.065 S 
ATOM      7  C   UNL     1       5.042  -3.613  -0.345  0.00  0.00    +0.090 A 
ATOM      8  N   UNL     1       6.377  -3.842  -0.436  0.00  0.00    -0.316 N 
ATOM      9  H   UNL     1       6.992  -3.093  -0.409  0.00  0.00    +0.169 HD
ATOM     10  C   UNL     1       6.860  -5.094  -0.564  0.00  0.00    +0.264 A 
ATOM     11  O   UNL     1       8.060  -5.288  -0.646  0.00  0.00    -0.267 OA
ENDROOT
BRANCH   4  12
ATOM     12  N   UNL     1       1.651  -5.106  -0.281  0.00  0.00    -0.356 N 
ATOM     13  H   UNL     1       0.737  -4.790  -0.206  0.00  0.00    +0.142 HD
ATOM     14  H   UNL     1       1.829  -6.056  -0.367  0.00  0.00    +0.142 HD
ENDBRANCH   4  12
BRANCH   1  15
ATOM     15  C   UNL     1       6.419  -7.591  -0.742  0.00  0.00    +0.344 C 
ATOM     16  O   UNL     1       5.636  -8.521  -0.774  0.00  0.00    -0.245 OA
BRANCH  15  17
ATOM     17  O   UNL     1       7.744  -7.822  -0.833  0.00  0.00    -0.461 OA
BRANCH  17  19
ATOM     18  C   UNL     1       9.691  -9.268  -1.055  0.00  0.00    +0.048 C 
ATOM     19  C   UNL     1       8.165  -9.206  -0.967  0.00  0.00    +0.229 C 
ENDBRANCH  17  19
ENDBRANCH  15  17
ENDBRANCH   1  15
BRANCH   5  20
ATOM     20  C   UNL     1       1.251  -2.161  -0.022  0.00  0.00    +0.203 C 
ATOM     21  O   UNL     1       0.211  -2.791   0.061  0.00  0.00    -0.286 OA
BRANCH  20  22
ATOM     22  C   UNL     1       1.225  -0.683   0.005  0.00  0.00    +0.041 A 
ATOM     23  C   UNL     1       2.396   0.043  -0.223  0.00  0.00    +0.014 A 
ATOM     24  C   UNL     1       2.365   1.421  -0.198  0.00  0.00    +0.021 A 
ATOM     25  C   UNL     1       1.176   2.087   0.054  0.00  0.00    +0.042 A 
ATOM     26  C   UNL     1       0.011   1.374   0.281  0.00  0.00    +0.040 A 
ATOM     27  C   UNL     1       0.029  -0.007   0.258  0.00  0.00    +0.053 A 
ATOM     28 CL   UNL     1      -1.432  -0.900   0.542  0.00  0.00    -0.083 Cl
ATOM     29 CL   UNL     1       1.146   3.822   0.084  0.00  0.00    -0.083 Cl
ENDBRANCH  20  22
ENDBRANCH   5  20
TORSDOF 6
