REMARK  Name = ZINC01222229
REMARK  8 active torsions:
REMARK  status: ('A' for Active; 'I' for Inactive)
REMARK    1  A    between atoms: C_4  and  C_7
REMARK    2  A    between atoms: C_7  and  C_8
REMARK    3  A    between atoms: C_8  and  N_9
REMARK    4  A    between atoms: N_9  and  C_10
REMARK    5  A    between atoms: N_9  and  S_27
REMARK    6  A    between atoms: C_10  and  C_11
REMARK    7  A    between atoms: S_27  and  C_30
REMARK    8  A    between atoms: C_34  and  C_36
REMARK                            x       y       z     vdW  Elec       q    Type
REMARK                         _______ _______ _______ _____ _____    ______ ____
ROOT
ATOM      1  N   UNL     1      -0.266   7.251  -1.396  0.00  0.00    -0.172 NA
ENDROOT
BRANCH   1   2
ATOM      2  S   UNL     1       1.090   8.129  -1.761  0.00  0.00    +0.061 S 
ATOM      3  O   UNL     1       0.923   9.404  -1.156  0.00  0.00    -0.153 OA
ATOM      4  O   UNL     1       2.203   7.292  -1.479  0.00  0.00    -0.153 OA
BRANCH   2   5
ATOM      5  C   UNL     1       1.086   8.393  -3.503  0.00  0.00    +0.106 A 
ATOM      6  C   UNL     1       1.705   7.484  -4.341  0.00  0.00    +0.030 A 
ATOM      7  C   UNL     1       1.698   7.687  -5.707  0.00  0.00    +0.022 A 
ATOM      8  C   UNL     1       1.080   8.807  -6.237  0.00  0.00    +0.053 A 
ATOM      9  C   UNL     1       0.466   9.719  -5.397  0.00  0.00    +0.075 A 
ATOM     10  C   UNL     1       0.469   9.511  -4.031  0.00  0.00    +0.042 A 
ATOM     11 CL   UNL     1       1.076   9.066  -7.953  0.00  0.00    -0.083 Cl
BRANCH   9  12
ATOM     12  C   UNL     1      -0.207  10.938  -5.973  0.00  0.00    +0.419 C 
ATOM     13  F   UNL     1      -0.752  11.703  -4.936  0.00  0.00    -0.166 F 
ATOM     14  F   UNL     1       0.733  11.703  -6.673  0.00  0.00    -0.166 F 
ATOM     15  F   UNL     1      -1.226  10.540  -6.845  0.00  0.00    -0.166 F 
ENDBRANCH   9  12
ENDBRANCH   2   5
ENDBRANCH   1   2
BRANCH   1  16
ATOM     16  C   UNL     1      -0.183   5.794  -1.266  0.00  0.00    +0.114 C 
BRANCH  16  17
ATOM     17  C   UNL     1       0.082   5.426   0.195  0.00  0.00    +0.052 C 
BRANCH  17  21
ATOM     18  C   UNL     1       0.039   1.176   0.624  0.00  0.00    +0.000 A 
ATOM     19  C   UNL     1      -1.131   1.897   0.770  0.00  0.00    +0.000 A 
ATOM     20  C   UNL     1      -1.116   3.273   0.636  0.00  0.00    +0.003 A 
ATOM     21  C   UNL     1       0.067   3.927   0.346  0.00  0.00    -0.046 A 
ATOM     22  C   UNL     1       1.236   3.205   0.194  0.00  0.00    +0.003 A 
ATOM     23  C   UNL     1       1.222   1.830   0.333  0.00  0.00    +0.000 A 
ENDBRANCH  17  21
ENDBRANCH  16  17
ENDBRANCH   1  16
BRANCH   1  24
ATOM     24  C   UNL     1      -1.549   7.931  -1.202  0.00  0.00    +0.150 C 
BRANCH  24  25
ATOM     25  C   UNL     1      -1.783   8.154   0.270  0.00  0.00    +0.033 A 
ATOM     26  C   UNL     1      -1.406   9.324   0.845  0.00  0.00    +0.020 A 
ATOM     27  C   UNL     1      -1.647   9.509   2.276  0.00  0.00    +0.003 A 
ATOM     28  C   UNL     1      -1.279  10.695   2.923  0.00  0.00    +0.059 A 
ATOM     29  C   UNL     1      -1.515  10.841   4.273  0.00  0.00    +0.163 A 
ATOM     30  C   UNL     1      -2.122   9.810   4.996  0.00  0.00    +0.164 A 
ATOM     31  C   UNL     1      -2.491   8.634   4.365  0.00  0.00    +0.075 A 
ATOM     32  C   UNL     1      -2.258   8.472   3.005  0.00  0.00    +0.053 A 
ATOM     33  N   UNL     1      -2.618   7.306   2.360  0.00  0.00    -0.322 N 
ATOM     34  H   UNL     1      -3.049   6.568   2.879  0.00  0.00    +0.169 HD
ATOM     35  C   UNL     1      -2.397   7.148   1.043  0.00  0.00    +0.254 A 
ATOM     36  O   UNL     1      -2.732   6.106   0.505  0.00  0.00    -0.268 OA
ATOM     37  O   UNL     1      -2.362   9.946   6.329  0.00  0.00    -0.485 OA
ATOM     38  C   UNL     1      -1.645  10.981   7.010  0.00  0.00    +0.270 C 
ATOM     39  C   UNL     1      -1.733  12.261   6.168  0.00  0.00    +0.270 C 
ATOM     40  O   UNL     1      -1.146  11.998   4.889  0.00  0.00    -0.485 OA
ENDBRANCH  24  25
ENDBRANCH   1  24
TORSDOF 8
