REMARK  Name = ZINC30943280
REMARK  10 active torsions:
REMARK  status: ('A' for Active; 'I' for Inactive)
REMARK    1  A    between atoms: C_1  and  C_2
REMARK    2  A    between atoms: C_2  and  C_3
REMARK    3  A    between atoms: C_2  and  C_4
REMARK    4  A    between atoms: C_2  and  C_5
REMARK    5  A    between atoms: N_11  and  S_34
REMARK    6  A    between atoms: C_13  and  C_16
REMARK    7  A    between atoms: N_18  and  C_19
REMARK    8  A    between atoms: C_24  and  C_25
REMARK    9  A    between atoms: C_25  and  C_27
REMARK   10  A    between atoms: S_34  and  C_37
REMARK                            x       y       z     vdW  Elec       q    Type
REMARK                         _______ _______ _______ _____ _____    ______ ____
ROOT
ATOM      1  C   UNL     1       6.249  -0.646  -0.113  0.00  0.00    +0.260 C 
ATOM      2  O   UNL     1       7.260   0.023  -0.078  0.00  0.00    -0.271 OA
ATOM      3  N   UNL     1       5.044  -0.043  -0.147  0.00  0.00    -0.282 N 
ATOM      4  H   UNL     1       4.130  -0.646  -0.258  0.00  0.00    +0.155 HD
ENDROOT
BRANCH   1  13
ATOM      5  C   UNL     1       8.654  -6.523  -0.588  0.00  0.00    -0.040 A 
ATOM      6  C   UNL     1       9.502  -5.708   0.139  0.00  0.00    +0.008 A 
ATOM      7  C   UNL     1       9.182  -4.379   0.347  0.00  0.00    +0.048 A 
ATOM      8  C   UNL     1       8.008  -3.857  -0.173  0.00  0.00    +0.144 A 
ATOM      9  C   UNL     1       7.154  -4.681  -0.902  0.00  0.00    +0.093 A 
ATOM     10  C   UNL     1       7.480  -6.012  -1.109  0.00  0.00    +0.032 A 
ATOM     11  N   UNL     1       5.962  -4.159  -1.427  0.00  0.00    -0.200 N 
ATOM     12  C   UNL     1       5.808  -2.694  -1.450  0.00  0.00    +0.185 C 
ATOM     13  C   UNL     1       6.340  -2.150  -0.117  0.00  0.00    +0.278 C 
ATOM     14  O   UNL     1       7.704  -2.548   0.035  0.00  0.00    -0.476 OA
BRANCH   5  16
ATOM     15  C   UNL     1      10.349  -8.277  -0.136  0.00  0.00    +0.015 C 
ATOM     16  C   UNL     1       9.010  -7.970  -0.812  0.00  0.00    -0.013 C 
ATOM     17  C   UNL     1       7.921  -8.862  -0.213  0.00  0.00    +0.015 C 
ATOM     18  C   UNL     1       9.123  -8.241  -2.313  0.00  0.00    +0.015 C 
ENDBRANCH   5  16
BRANCH  11  19
ATOM     19  S   UNL     1       4.769  -5.155  -2.000  0.00  0.00    +0.043 S 
ATOM     20  O   UNL     1       4.947  -6.376  -1.295  0.00  0.00    -0.155 OA
ATOM     21  O   UNL     1       3.571  -4.404  -1.857  0.00  0.00    -0.155 OA
ATOM     22  C   UNL     1       5.158  -5.385  -3.756  0.00  0.00    +0.218 C 
ENDBRANCH  11  19
ENDBRANCH   1  13
BRANCH   3  23
ATOM     23  C   UNL     1       4.955   1.343  -0.043  0.00  0.00    +0.044 A 
ATOM     24  C   UNL     1       5.944   2.148  -0.590  0.00  0.00    +0.025 A 
ATOM     25  C   UNL     1       5.858   3.522  -0.481  0.00  0.00    +0.022 A 
ATOM     26  C   UNL     1       4.782   4.108   0.170  0.00  0.00    +0.042 A 
ATOM     27  C   UNL     1       3.788   3.325   0.716  0.00  0.00    +0.033 A 
ATOM     28  C   UNL     1       3.862   1.932   0.613  0.00  0.00    +0.045 A 
ATOM     29 CL   UNL     1       4.689   5.837   0.300  0.00  0.00    -0.084 Cl
BRANCH  28  30
ATOM     30  C   UNL     1       2.803   1.088   1.194  0.00  0.00    +0.195 C 
ATOM     31  O   UNL     1       1.728   0.990   0.634  0.00  0.00    -0.287 OA
BRANCH  30  32
ATOM     32  C   UNL     1       3.047   0.361   2.457  0.00  0.00    +0.022 A 
ATOM     33  C   UNL     1       2.015  -0.358   3.064  0.00  0.00    +0.012 A 
ATOM     34  C   UNL     1       2.248  -1.030   4.245  0.00  0.00    +0.001 A 
ATOM     35  C   UNL     1       3.505  -1.002   4.824  0.00  0.00    +0.000 A 
ATOM     36  C   UNL     1       4.533  -0.293   4.228  0.00  0.00    +0.001 A 
ATOM     37  C   UNL     1       4.312   0.389   3.049  0.00  0.00    +0.012 A 
ENDBRANCH  30  32
ENDBRANCH  28  30
ENDBRANCH   3  23
TORSDOF 6
