REMARK  Name = ZINC09253575
REMARK  6 active torsions:
REMARK  status: ('A' for Active; 'I' for Inactive)
REMARK    1  A    between atoms: C_1  and  N_2
REMARK    2  A    between atoms: C_3  and  N_14
REMARK    3  A    between atoms: C_5  and  C_7
REMARK    4  A    between atoms: C_15  and  C_17
REMARK    5  A    between atoms: C_17  and  N_58
REMARK    6  A    between atoms: C_20  and  N_23
REMARK                            x       y       z     vdW  Elec       q    Type
REMARK                         _______ _______ _______ _____ _____    ______ ____
ROOT
ATOM      1  C   UNL     1       3.675   5.869  -0.002  0.00  0.00    +0.019 C 
ENDROOT
BRANCH   1   7
ATOM      2  C   UNL     1       5.374   4.599  -1.168  0.00  0.00    -0.076 C 
ATOM      3  C   UNL     1       6.851   4.199  -1.142  0.00  0.00    +0.006 C 
ATOM      4  C   UNL     1       7.717   5.448  -1.330  0.00  0.00    +0.089 C 
ATOM      5  C   UNL     1       7.387   6.459  -0.229  0.00  0.00    +0.006 C 
ATOM      6  C   UNL     1       5.894   6.794  -0.281  0.00  0.00    -0.076 C 
ATOM      7  N   UNL     1       5.117   5.554  -0.069  0.00  0.00    +0.386 N 
ATOM      8  H   UNL     1       5.407   5.127   0.819  0.00  0.00    -0.081 HD
BRANCH   4   9
ATOM      9  N   UNL     1       9.133   5.080  -1.248  0.00  0.00    -0.289 N 
ATOM     10  C   UNL     1      10.082   5.264  -2.252  0.00  0.00    +0.070 A 
ATOM     11  C   UNL     1      10.024   5.798  -3.530  0.00  0.00    +0.028 A 
ATOM     12  C   UNL     1      11.164   5.844  -4.308  0.00  0.00    +0.002 A 
ATOM     13  C   UNL     1      12.364   5.362  -3.816  0.00  0.00    +0.002 A 
ATOM     14  C   UNL     1      12.432   4.829  -2.544  0.00  0.00    +0.028 A 
ATOM     15  C   UNL     1      11.293   4.777  -1.756  0.00  0.00    +0.067 A 
ATOM     16  N   UNL     1      11.042   4.313  -0.467  0.00  0.00    -0.306 N 
ATOM     17  H   UNL     1      11.695   3.916   0.131  0.00  0.00    +0.170 HD
ATOM     18  C   UNL     1       9.740   4.513  -0.189  0.00  0.00    +0.328 A 
ATOM     19  O   UNL     1       9.194   4.221   0.858  0.00  0.00    -0.247 OA
ENDBRANCH   4   9
ENDBRANCH   1   7
BRANCH   1  21
ATOM     20  N   UNL     1       2.178   7.150   1.494  0.00  0.00    -0.272 N 
ATOM     21  C   UNL     1       3.407   6.651   1.258  0.00  0.00    +0.202 C 
ATOM     22  O   UNL     1       4.299   6.832   2.061  0.00  0.00    -0.278 OA
ATOM     23  H   UNL     1       1.465   7.006   0.852  0.00  0.00    +0.156 HD
BRANCH  20  26
ATOM     24  C   UNL     1      -0.503   8.374   2.255  0.00  0.00    +0.174 C 
ATOM     25  N   UNL     1       0.744   8.430   3.022  0.00  0.00    -0.253 N 
ATOM     26  C   UNL     1       1.930   7.874   2.660  0.00  0.00    +0.123 A 
ATOM     27  C   UNL     1       2.832   8.150   3.639  0.00  0.00    +0.073 A 
ATOM     28  C   UNL     1       2.173   8.901   4.631  0.00  0.00    +0.095 A 
ATOM     29  N   UNL     1       0.921   9.062   4.259  0.00  0.00    -0.170 NA
BRANCH  28  30
ATOM     30  C   UNL     1       2.784   9.415   5.882  0.00  0.00    +0.002 A 
ATOM     31  C   UNL     1       4.125   9.162   6.160  0.00  0.00    +0.011 A 
ATOM     32  C   UNL     1       4.690   9.647   7.323  0.00  0.00    +0.020 A 
ATOM     33  C   UNL     1       3.922  10.375   8.216  0.00  0.00    +0.041 A 
ATOM     34  C   UNL     1       2.588  10.625   7.946  0.00  0.00    +0.020 A 
ATOM     35  C   UNL     1       2.016  10.148   6.784  0.00  0.00    +0.011 A 
ATOM     36 CL   UNL     1       4.636  10.976   9.680  0.00  0.00    -0.084 Cl
ENDBRANCH  28  30
ENDBRANCH  20  26
ENDBRANCH   1  21
TORSDOF 5
