REMARK  Name = ZINC44021185
REMARK  9 active torsions:
REMARK  status: ('A' for Active; 'I' for Inactive)
REMARK    1  A    between atoms: C_1  and  C_2
REMARK    2  A    between atoms: C_2  and  C_4
REMARK    3  A    between atoms: C_2  and  C_9
REMARK    4  A    between atoms: C_4  and  C_5
REMARK    5  A    between atoms: C_5  and  C_6
REMARK    6  A    between atoms: C_15  and  C_37
REMARK    7  A    between atoms: C_16  and  O_36
REMARK    8  A    between atoms: C_23  and  O_35
REMARK    9  A    between atoms: C_28  and  C_34
REMARK                            x       y       z     vdW  Elec       q    Type
REMARK                         _______ _______ _______ _____ _____    ______ ____
ROOT
ATOM      1  C   UNL     1       0.778  -0.423   1.252  0.00  0.00    +0.001 C 
ATOM      2  C   UNL     1      -0.026  -0.070   2.517  0.00  0.00    +0.005 C 
ATOM      3  C   UNL     1      -0.260  -1.397   3.276  0.00  0.00    +0.005 C 
ATOM      4  C   UNL     1       0.874  -2.306   2.768  0.00  0.00    +0.003 C 
ATOM      5  C   UNL     1       0.968  -1.963   1.270  0.00  0.00    +0.000 C 
ATOM      6  C   UNL     1      -0.214  -2.561   0.503  0.00  0.00    +0.121 C 
ATOM      7  C   UNL     1      -0.320  -4.062   0.757  0.00  0.00    +0.036 C 
ATOM      8  C   UNL     1      -0.585  -4.287   2.250  0.00  0.00    +0.003 C 
ATOM      9  C   UNL     1       0.605  -3.768   3.025  0.00  0.00    +0.025 C 
ATOM     10  C   UNL     1       0.354  -4.012   4.515  0.00  0.00    +0.118 C 
ATOM     11  C   UNL     1       0.179  -5.511   4.759  0.00  0.00    +0.036 C 
ATOM     12  C   UNL     1      -1.016  -6.031   3.955  0.00  0.00    +0.005 C 
ATOM     13  C   UNL     1      -0.781  -5.785   2.505  0.00  0.00    -0.025 C 
ATOM     14  C   UNL     1      -2.001  -6.263   1.714  0.00  0.00    +0.015 C 
ATOM     15  C   UNL     1      -2.163  -7.776   1.884  0.00  0.00    +0.075 C 
ATOM     16  C   UNL     1      -2.230  -8.083   3.364  0.00  0.00    +0.134 C 
ATOM     17  O   UNL     1      -3.130  -8.747   3.820  0.00  0.00    -0.297 OA
ATOM     18  C   UNL     1      -1.152  -7.539   4.201  0.00  0.00    +0.078 C 
ATOM     19  C   UNL     1       0.461  -6.548   2.041  0.00  0.00    +0.012 C 
ATOM     20  C   UNL     1       2.317  -2.377   0.678  0.00  0.00    +0.014 C 
ENDROOT
BRANCH   1  22
ATOM     21  C   UNL     1      -0.453   1.449   0.148  0.00  0.00    +0.008 C 
ATOM     22  C   UNL     1       0.002  -0.004   0.002  0.00  0.00    -0.010 C 
BRANCH  22  23
ATOM     23  C   UNL     1       0.905  -0.135  -1.226  0.00  0.00    +0.015 C 
BRANCH  23  24
ATOM     24  C   UNL     1       0.084   0.123  -2.492  0.00  0.00    +0.125 C 
BRANCH  24  25
ATOM     25  C   UNL     1       0.973  -0.006  -3.702  0.00  0.00    +0.356 C 
ATOM     26  O   UNL     1       2.154  -0.278  -3.565  0.00  0.00    -0.246 OA
ATOM     27  O   UNL     1       0.512   0.163  -4.818  0.00  0.00    -0.246 OA
ENDBRANCH  24  25
ENDBRANCH  23  24
ENDBRANCH  22  23
ENDBRANCH   1  22
BRANCH  10  28
ATOM     28  O   UNL     1       1.467  -3.531   5.271  0.00  0.00    -0.391 OA
ATOM     29  H   UNL     1       1.376  -3.653   6.226  0.00  0.00    +0.210 HD
ENDBRANCH  10  28
BRANCH   6  30
ATOM     30  O   UNL     1      -0.030  -2.333  -0.896  0.00  0.00    -0.391 OA
ATOM     31  H   UNL     1      -0.742  -2.685  -1.448  0.00  0.00    +0.210 HD
ENDBRANCH   6  30
TORSDOF 6
