REMARK  Name = ZINC32655384
REMARK  10 active torsions:
REMARK  status: ('A' for Active; 'I' for Inactive)
REMARK    1  A    between atoms: C_1  and  C_2
REMARK    2  A    between atoms: C_2  and  N_3
REMARK    3  A    between atoms: N_3  and  C_4
REMARK    4  A    between atoms: N_3  and  C_6
REMARK    5  A    between atoms: C_4  and  C_5
REMARK    6  A    between atoms: C_9  and  C_12
REMARK    7  A    between atoms: C_17  and  S_30
REMARK    8  A    between atoms: C_26  and  C_28
REMARK    9  A    between atoms: C_26  and  C_29
REMARK   10  A    between atoms: S_30  and  C_31
REMARK                            x       y       z     vdW  Elec       q    Type
REMARK                         _______ _______ _______ _____ _____    ______ ____
ROOT
ATOM      1  C   UNL     1       3.666  -0.665  -0.026  0.00  0.00    +0.090 C 
ATOM      2  C   UNL     1       2.347   0.047  -0.017  0.00  0.00    +0.044 A 
ATOM      3  C   UNL     1       2.292   1.438  -0.011  0.00  0.00    +0.126 A 
ATOM      4  N   UNL     1       1.101   2.034   0.003  0.00  0.00    -0.207 NA
ATOM      5  C   UNL     1      -0.016   1.321   0.009  0.00  0.00    +0.191 A 
ATOM      6  N   UNL     1       0.002  -0.004   0.002  0.00  0.00    -0.206 NA
ATOM      7  C   UNL     1       1.156  -0.665  -0.011  0.00  0.00    +0.133 A 
ATOM      8  N   UNL     1       1.184  -2.049  -0.022  0.00  0.00    -0.302 N 
ATOM      9  C   UNL     1       2.308  -2.719  -0.420  0.00  0.00    +0.017 C 
ATOM     10  C   UNL     1       3.510  -2.105  -0.448  0.00  0.00    +0.024 C 
ATOM     11  C   UNL     1       4.661  -2.789  -0.875  0.00  0.00    +0.162 C 
ATOM     12  O   UNL     1       5.730  -2.210  -0.882  0.00  0.00    -0.292 OA
ATOM     13  C   UNL     1       4.598  -4.223  -1.325  0.00  0.00    +0.086 C 
ATOM     14  C   UNL     1       3.204  -4.506  -1.894  0.00  0.00    -0.023 C 
ATOM     15  C   UNL     1       2.166  -4.167  -0.822  0.00  0.00    +0.058 C 
ATOM     16  C   UNL     1       2.968  -3.640  -3.133  0.00  0.00    +0.011 C 
ATOM     17  C   UNL     1       3.093  -5.985  -2.270  0.00  0.00    +0.011 C 
ATOM     18  N   UNL     1       3.456   2.190  -0.019  0.00  0.00    -0.343 N 
ATOM     19  H   UNL     1       0.297  -2.619   0.292  0.00  0.00    +0.153 HD
ATOM     20  H   UNL     1       3.401   3.289  -0.014  0.00  0.00    +0.144 HD
ATOM     21  H   UNL     1       4.435   1.688  -0.030  0.00  0.00    +0.144 HD
ENDROOT
BRANCH   1  25
ATOM     22  C   UNL     1       5.349  -0.533   3.900  0.00  0.00    +0.030 A 
ATOM     23  C   UNL     1       6.015   0.063   2.837  0.00  0.00    +0.023 A 
ATOM     24  C   UNL     1       5.468   0.018   1.569  0.00  0.00    +0.006 A 
ATOM     25  C   UNL     1       4.259  -0.619   1.358  0.00  0.00    -0.035 A 
ATOM     26  C   UNL     1       3.591  -1.208   2.416  0.00  0.00    +0.006 A 
ATOM     27  C   UNL     1       4.135  -1.172   3.685  0.00  0.00    +0.023 A 
BRANCH  22  28
ATOM     28  N   UNL     1       5.899  -0.490   5.184  0.00  0.00    -0.330 N 
BRANCH  28  30
ATOM     29  C   UNL     1       5.647  -2.575   6.437  0.00  0.00    +0.024 C 
ATOM     30  C   UNL     1       5.195  -1.119   6.304  0.00  0.00    +0.102 C 
ENDBRANCH  28  30
BRANCH  28  31
ATOM     31  C   UNL     1       7.179   0.185   5.409  0.00  0.00    +0.102 C 
ATOM     32  C   UNL     1       6.928   1.657   5.744  0.00  0.00    +0.024 C 
ENDBRANCH  28  31
ENDBRANCH  22  28
ENDBRANCH   1  25
BRANCH   5  33
ATOM     33  S   UNL     1      -1.567   2.158   0.021  0.00  0.00    -0.089 S 
ATOM     34  C   UNL     1      -0.997   3.876   0.028  0.00  0.00    +0.093 C 
ENDBRANCH   5  33
TORSDOF 5
