REMARK  Name = ZINC28259746
REMARK  7 active torsions:
REMARK  status: ('A' for Active; 'I' for Inactive)
REMARK    1  A    between atoms: C_1  and  C_2
REMARK    2  A    between atoms: C_3  and  C_27
REMARK    3  A    between atoms: C_7  and  S_17
REMARK    4  A    between atoms: C_9  and  C_11
REMARK    5  A    between atoms: C_11  and  N_12
REMARK    6  A    between atoms: S_17  and  C_18
REMARK    7  A    between atoms: C_18  and  C_19
REMARK                            x       y       z     vdW  Elec       q    Type
REMARK                         _______ _______ _______ _____ _____    ______ ____
ROOT
ATOM      1  C   UNL     1       3.760   0.650  -0.030  0.00  0.00    +0.045 C 
ATOM      2  C   UNL     1       2.264   0.838  -0.015  0.00  0.00    -0.029 A 
ATOM      3  C   UNL     1       1.735   2.070   0.025  0.00  0.00    -0.008 A 
ATOM      4  S   UNL     1      -0.022   1.769   0.027  0.00  0.00    -0.074 S 
ATOM      5  C   UNL     1       0.002  -0.004  -0.025  0.00  0.00    +0.113 A 
ATOM      6  C   UNL     1       1.379  -0.313  -0.043  0.00  0.00    +0.043 A 
ATOM      7  C   UNL     1       1.692  -1.700  -0.087  0.00  0.00    +0.109 A 
ATOM      8  N   UNL     1       0.706  -2.584  -0.107  0.00  0.00    -0.227 NA
ATOM      9  C   UNL     1      -0.564  -2.221  -0.088  0.00  0.00    +0.115 A 
ATOM     10  N   UNL     1      -0.916  -0.950  -0.048  0.00  0.00    -0.227 NA
ATOM     11  C   UNL     1       2.455   3.393   0.059  0.00  0.00    +0.052 C 
ENDROOT
BRANCH   9  12
ATOM     12  C   UNL     1      -1.634  -3.281  -0.113  0.00  0.00    -0.001 C 
BRANCH  12  13
ATOM     13  N   UNL     1      -1.990  -3.585  -1.506  0.00  0.00    +0.384 N 
ATOM     14  C   UNL     1      -0.781  -3.909  -2.306  0.00  0.00    -0.078 C 
ATOM     15  C   UNL     1      -1.356  -4.686  -3.517  0.00  0.00    -0.020 C 
ATOM     16  C   UNL     1      -2.495  -5.518  -2.885  0.00  0.00    -0.020 C 
ATOM     17  C   UNL     1      -2.857  -4.780  -1.583  0.00  0.00    -0.078 C 
ATOM     18  H   UNL     1      -2.503  -2.689  -1.885  0.00  0.00    -0.081 HD
ENDBRANCH  12  13
ENDBRANCH   9  12
BRANCH   7  19
ATOM     19  S   UNL     1       3.370  -2.236  -0.114  0.00  0.00    -0.097 S 
BRANCH  19  20
ATOM     20  C   UNL     1       3.127  -4.029  -0.167  0.00  0.00    +0.152 C 
BRANCH  20  21
ATOM     21  C   UNL     1       4.468  -4.717  -0.196  0.00  0.00    +0.146 A 
ATOM     22  N   UNL     1       5.043  -4.988  -1.355  0.00  0.00    -0.199 NA
ATOM     23  C   UNL     1       6.229  -5.592  -1.385  0.00  0.00    +0.217 A 
ATOM     24  N   UNL     1       6.830  -5.931  -0.249  0.00  0.00    -0.181 NA
ATOM     25  C   UNL     1       6.245  -5.661   0.913  0.00  0.00    +0.217 A 
ATOM     26  N   UNL     1       5.061  -5.053   0.935  0.00  0.00    -0.199 NA
ATOM     27  N   UNL     1       6.864  -6.011   2.096  0.00  0.00    -0.327 N 
ATOM     28  N   UNL     1       6.832  -5.870  -2.594  0.00  0.00    -0.327 N 
ATOM     29  H   UNL     1       6.380  -5.787   3.058  0.00  0.00    +0.145 HD
ATOM     30  H   UNL     1       7.842  -6.514   2.077  0.00  0.00    +0.145 HD
ATOM     31  H   UNL     1       7.813  -6.369  -2.619  0.00  0.00    +0.145 HD
ATOM     32  H   UNL     1       6.333  -5.593  -3.534  0.00  0.00    +0.145 HD
ENDBRANCH  20  21
ENDBRANCH  19  20
ENDBRANCH   7  19
TORSDOF 5
