REMARK  Name = ZINC39677636
REMARK  5 active torsions:
REMARK  status: ('A' for Active; 'I' for Inactive)
REMARK    1  A    between atoms: C_5  and  C_7
REMARK    2  A    between atoms: C_10  and  C_12
REMARK    3  A    between atoms: C_12  and  N_13
REMARK    4  A    between atoms: C_14  and  C_16
REMARK    5  A    between atoms: C_27  and  C_29
REMARK                            x       y       z     vdW  Elec       q    Type
REMARK                         _______ _______ _______ _____ _____    ______ ____
ROOT
ATOM      1  C   UNL     1       0.218  -8.652   2.615  0.00  0.00    +0.100 C 
ATOM      2  C   UNL     1       1.419  -8.646   3.588  0.00  0.00    +0.121 C 
ATOM      3  N   UNL     1       1.219  -9.845   4.436  0.00  0.00    -0.296 N 
ATOM      4  C   UNL     1       0.718 -10.880   3.500  0.00  0.00    +0.115 C 
ATOM      5  C   UNL     1      -0.239 -10.119   2.560  0.00  0.00    -0.004 C 
ATOM      6  C   UNL     1      -1.676 -10.244   3.057  0.00  0.00    -0.010 C 
ATOM      7  C   UNL     1      -2.127 -11.702   2.939  0.00  0.00    -0.082 C 
ATOM      8  N   UNL     1      -2.032 -12.134   1.539  0.00  0.00    +0.379 N 
ATOM      9  C   UNL     1      -0.633 -12.099   1.098  0.00  0.00    -0.082 C 
ATOM     10  C   UNL     1      -0.119 -10.657   1.138  0.00  0.00    -0.010 C 
ATOM     11  C   UNL     1       1.443  -9.967   5.760  0.00  0.00    +0.247 C 
ATOM     12  O   UNL     1       1.735  -8.988   6.419  0.00  0.00    -0.270 OA
ATOM     13  H   UNL     1      -2.387 -13.075   1.454  0.00  0.00    -0.086 HD
ATOM     14  H   UNL     1      -2.582 -11.517   0.960  0.00  0.00    -0.086 HD
ENDROOT
BRANCH  11  15
ATOM     15  C   UNL     1       1.334 -11.290   6.409  0.00  0.00    +0.037 A 
ATOM     16  C   UNL     1       1.432 -12.455   5.646  0.00  0.00    +0.014 A 
ATOM     17  C   UNL     1       1.330 -13.687   6.257  0.00  0.00    +0.021 A 
ATOM     18  C   UNL     1       1.130 -13.770   7.625  0.00  0.00    +0.041 A 
ATOM     19  C   UNL     1       1.032 -12.617   8.387  0.00  0.00    +0.021 A 
ATOM     20  C   UNL     1       1.138 -11.380   7.788  0.00  0.00    +0.014 A 
ATOM     21 CL   UNL     1       1.002 -15.324   8.387  0.00  0.00    -0.084 Cl
ENDBRANCH  11  15
BRANCH   1  23
ATOM     22  N   UNL     1      -0.229  -7.545   0.449  0.00  0.00    -0.310 N 
ATOM     23  C   UNL     1       0.647  -8.184   1.249  0.00  0.00    +0.218 C 
ATOM     24  O   UNL     1       1.782  -8.383   0.868  0.00  0.00    -0.275 OA
ATOM     25  H   UNL     1      -1.136  -7.385   0.753  0.00  0.00    +0.149 HD
BRANCH  22  26
ATOM     26  C   UNL     1       0.188  -7.090  -0.880  0.00  0.00    +0.146 C 
BRANCH  26  30
ATOM     27  C   UNL     1      -3.143  -5.627  -2.956  0.00  0.00    +0.038 A 
ATOM     28  C   UNL     1      -2.433  -4.692  -2.250  0.00  0.00    +0.018 A 
ATOM     29  C   UNL     1      -1.325  -5.099  -1.542  0.00  0.00    +0.013 A 
ATOM     30  C   UNL     1      -0.969  -6.410  -1.565  0.00  0.00    +0.007 A 
ATOM     31  S   UNL     1      -2.230  -7.122  -2.609  0.00  0.00    -0.090 S 
BRANCH  27  36
ATOM     32  C   UNL     1      -6.058  -6.362  -5.194  0.00  0.00    +0.004 A 
ATOM     33  C   UNL     1      -6.582  -5.080  -5.306  0.00  0.00    +0.020 A 
ATOM     34  C   UNL     1      -5.963  -4.034  -4.648  0.00  0.00    +0.111 A 
ATOM     35  N   UNL     1      -4.885  -4.237  -3.918  0.00  0.00    -0.254 NA
ATOM     36  C   UNL     1      -4.352  -5.446  -3.784  0.00  0.00    +0.078 A 
ATOM     37  C   UNL     1      -4.927  -6.548  -4.422  0.00  0.00    +0.029 A 
ENDBRANCH  27  36
ENDBRANCH  26  30
ENDBRANCH  22  26
ENDBRANCH   1  23
TORSDOF 5
