REMARK  Name = ZINC48843507
REMARK  4 active torsions:
REMARK  status: ('A' for Active; 'I' for Inactive)
REMARK    1  A    between atoms: C_4  and  N_10
REMARK    2  A    between atoms: C_6  and  N_9
REMARK    3  A    between atoms: C_18  and  C_20
REMARK    4  A    between atoms: C_20  and  C_21
REMARK                            x       y       z     vdW  Elec       q    Type
REMARK                         _______ _______ _______ _____ _____    ______ ____
ROOT
ATOM      1  N   UNL     1       3.021   0.465   2.882  0.00  0.00    -0.298 N 
ATOM      2  C   UNL     1       4.288   0.044   2.699  0.00  0.00    +0.303 C 
ATOM      3  O   UNL     1       4.840   0.225   1.631  0.00  0.00    -0.253 OA
ATOM      4  N   UNL     1       4.943  -0.577   3.700  0.00  0.00    -0.282 N 
ATOM      5  C   UNL     1       4.255  -0.904   4.956  0.00  0.00    +0.109 C 
ATOM      6  C   UNL     1       5.059  -0.326   6.124  0.00  0.00    +0.019 C 
ATOM      7  C   UNL     1       6.500  -0.834   6.047  0.00  0.00    +0.003 C 
ATOM      8  C   UNL     1       7.140  -0.361   4.740  0.00  0.00    +0.023 C 
ATOM      9  C   UNL     1       6.358  -0.945   3.553  0.00  0.00    +0.088 C 
ATOM     10  H   UNL     1       2.555   0.257   3.707  0.00  0.00    +0.150 HD
ENDROOT
BRANCH   1  14
ATOM     11  C   UNL     1       0.487   3.350   1.023  0.00  0.00    -0.001 C 
ATOM     12  C   UNL     1       2.001   3.525   0.891  0.00  0.00    +0.002 C 
ATOM     13  C   UNL     1       2.705   2.718   1.984  0.00  0.00    +0.021 C 
ATOM     14  C   UNL     1       2.347   1.238   1.836  0.00  0.00    +0.060 C 
ATOM     15  C   UNL     1       0.833   1.063   1.968  0.00  0.00    -0.054 C 
ATOM     16  C   UNL     1       0.129   1.870   0.875  0.00  0.00    -0.014 C 
BRANCH  15  17
ATOM     17  N   UNL     1       0.490  -0.358   1.825  0.00  0.00    +0.381 N 
ATOM     18  H   UNL     1       0.954  -0.890   2.546  0.00  0.00    -0.090 HD
ATOM     19  H   UNL     1      -0.509  -0.474   1.912  0.00  0.00    -0.090 HD
ATOM     20  H   UNL     1       0.788  -0.687   0.919  0.00  0.00    -0.090 HD
ENDBRANCH  15  17
ENDBRANCH   1  14
BRANCH   9  21
ATOM     21  C   UNL     1       6.904  -0.372   2.244  0.00  0.00    +0.147 C 
BRANCH  21  22
ATOM     22  C   UNL     1       6.416  -1.206   1.088  0.00  0.00    +0.358 C 
ATOM     23  O   UNL     1       5.697  -2.169   1.292  0.00  0.00    -0.246 OA
ATOM     24  O   UNL     1       6.739  -0.917  -0.051  0.00  0.00    -0.246 OA
ENDBRANCH  21  22
ENDBRANCH   9  21
TORSDOF 4
