REMARK  Name = ZINC22418224
REMARK  10 active torsions:
REMARK  status: ('A' for Active; 'I' for Inactive)
REMARK    1  A    between atoms: C_1  and  N_2
REMARK    2  A    between atoms: N_2  and  C_3
REMARK    3  A    between atoms: N_2  and  C_4
REMARK    4  A    between atoms: C_7  and  C_10
REMARK    5  A    between atoms: C_10  and  C_12
REMARK    6  A    between atoms: C_10  and  N_26
REMARK    7  A    between atoms: C_12  and  N_13
REMARK    8  A    between atoms: C_14  and  C_16
REMARK    9  A    between atoms: C_16  and  O_17
REMARK   10  A    between atoms: O_17  and  C_18
REMARK                            x       y       z     vdW  Elec       q    Type
REMARK                         _______ _______ _______ _____ _____    ______ ____
ROOT
ATOM      1  C   UNL     1      -0.187   1.212   4.911  0.00  0.00    -0.020 C 
ENDROOT
BRANCH   1   2
ATOM      2  N   UNL     1       1.227   0.955   5.213  0.00  0.00    +0.388 N 
ATOM      3  C   UNL     1       1.419   0.682   6.647  0.00  0.00    -0.073 C 
ATOM      4  C   UNL     1       2.806   0.072   6.844  0.00  0.00    +0.017 C 
ATOM      5  C   UNL     1       3.844   0.922   6.156  0.00  0.00    -0.048 A 
ATOM      6  C   UNL     1       5.176   0.748   6.502  0.00  0.00    +0.004 A 
ATOM      7  C   UNL     1       6.159   1.500   5.890  0.00  0.00    +0.000 A 
ATOM      8  C   UNL     1       5.814   2.431   4.928  0.00  0.00    +0.000 A 
ATOM      9  C   UNL     1       4.488   2.606   4.584  0.00  0.00    +0.002 A 
ATOM     10  C   UNL     1       3.499   1.852   5.199  0.00  0.00    -0.061 A 
ATOM     11  C   UNL     1       2.067   2.082   4.794  0.00  0.00    -0.042 C 
ATOM     12  H   UNL     1       1.534   0.066   4.644  0.00  0.00    -0.080 HD
ENDBRANCH   1   2
BRANCH   1  16
ATOM     13  C   UNL     1      -1.455   4.761   6.925  0.00  0.00    +0.029 A 
ATOM     14  C   UNL     1      -1.831   3.514   7.409  0.00  0.00    +0.023 A 
ATOM     15  C   UNL     1      -1.419   2.369   6.756  0.00  0.00    +0.004 A 
ATOM     16  C   UNL     1      -0.634   2.463   5.621  0.00  0.00    -0.059 A 
ATOM     17  C   UNL     1      -0.254   3.703   5.140  0.00  0.00    +0.004 A 
ATOM     18  C   UNL     1      -0.667   4.852   5.785  0.00  0.00    +0.023 A 
BRANCH  13  20
ATOM     19  C   UNL     1      -2.700   5.824   8.786  0.00  0.00    +0.129 C 
ATOM     20  N   UNL     1      -1.869   5.921   7.584  0.00  0.00    -0.336 N 
ATOM     21  C   UNL     1      -1.473   7.236   7.072  0.00  0.00    +0.129 C 
ENDBRANCH  13  20
ENDBRANCH   1  16
BRANCH   1  22
ATOM     22  C   UNL     1      -0.361   1.392   3.401  0.00  0.00    +0.093 C 
BRANCH  22  23
ATOM     23  N   UNL     1       0.183   0.224   2.704  0.00  0.00    -0.314 N 
ATOM     24  C   UNL     1       0.140   0.162   1.358  0.00  0.00    +0.251 C 
ATOM     25  O   UNL     1      -0.350   1.073   0.725  0.00  0.00    -0.272 OA
ATOM     26  H   UNL     1       0.628  -0.602   3.279  0.00  0.00    +0.149 HD
BRANCH  24  27
ATOM     27  C   UNL     1       0.700  -1.039   0.641  0.00  0.00    +0.324 C 
BRANCH  27  28
ATOM     28  O   UNL     1       0.538  -0.871  -0.769  0.00  0.00    -0.481 OA
BRANCH  28  29
ATOM     29  C   UNL     1       0.994  -1.872  -1.567  0.00  0.00    +0.140 A 
ATOM     30  C   UNL     1       1.585  -2.994  -1.004  0.00  0.00    +0.048 A 
ATOM     31  C   UNL     1       2.048  -4.011  -1.816  0.00  0.00    +0.023 A 
ATOM     32  C   UNL     1       1.922  -3.912  -3.191  0.00  0.00    +0.043 A 
ATOM     33  C   UNL     1       1.333  -2.794  -3.755  0.00  0.00    +0.043 A 
ATOM     34  C   UNL     1       0.863  -1.777  -2.945  0.00  0.00    +0.084 A 
ATOM     35 CL   UNL     1       0.117  -0.378  -3.652  0.00  0.00    -0.080 Cl
ATOM     36 CL   UNL     1       2.505  -5.191  -4.209  0.00  0.00    -0.083 Cl
ENDBRANCH  28  29
ENDBRANCH  27  28
ENDBRANCH  24  27
ENDBRANCH  22  23
ENDBRANCH   1  22
TORSDOF 8
