REMARK  Name = ZINC39545856
REMARK  11 active torsions:
REMARK  status: ('A' for Active; 'I' for Inactive)
REMARK    1  A    between atoms: C_1  and  C_2
REMARK    2  A    between atoms: C_2  and  O_3
REMARK    3  A    between atoms: O_3  and  C_4
REMARK    4  A    between atoms: C_6  and  C_18
REMARK    5  A    between atoms: N_20  and  S_21
REMARK    6  A    between atoms: N_20  and  S_27
REMARK    7  A    between atoms: S_21  and  C_24
REMARK    8  A    between atoms: C_24  and  C_25
REMARK    9  A    between atoms: C_24  and  C_26
REMARK   10  A    between atoms: S_27  and  O_30
REMARK   11  A    between atoms: O_30  and  C_31
REMARK                            x       y       z     vdW  Elec       q    Type
REMARK                         _______ _______ _______ _____ _____    ______ ____
ROOT
ATOM      1  C   UNL     1       2.884  -4.727  -1.945  0.00  0.00    +0.277 C 
ATOM      2  O   UNL     1       3.096  -5.451  -0.995  0.00  0.00    -0.270 OA
ATOM      3  N   UNL     1       3.875  -4.453  -2.817  0.00  0.00    -0.008 N 
ENDROOT
BRANCH   1   6
ATOM      4  C   UNL     1       0.628  -2.289  -0.885  0.00  0.00    +0.134 C 
ATOM      5  C   UNL     1       1.565  -2.600  -2.030  0.00  0.00    +0.107 C 
ATOM      6  C   UNL     1       1.514  -4.135  -2.151  0.00  0.00    +0.155 C 
ATOM      7  N   UNL     1       0.603  -4.550  -1.072  0.00  0.00    -0.367 NA
ATOM      8  C   UNL     1       0.133  -3.406  -0.411  0.00  0.00    +0.113 C 
ATOM      9  N   UNL     1      -0.807  -3.523   0.642  0.00  0.00    -0.301 N 
ATOM     10  C   UNL     1      -1.746  -4.554   0.481  0.00  0.00    +0.037 A 
ATOM     11  C   UNL     1      -2.780  -4.694   1.397  0.00  0.00    +0.023 A 
ATOM     12  C   UNL     1      -3.699  -5.714   1.244  0.00  0.00    +0.002 A 
ATOM     13  C   UNL     1      -3.584  -6.590   0.180  0.00  0.00    +0.000 A 
ATOM     14  C   UNL     1      -2.557  -6.449  -0.732  0.00  0.00    +0.007 A 
ATOM     15  C   UNL     1      -1.632  -5.427  -0.592  0.00  0.00    -0.010 A 
ATOM     16  C   UNL     1      -0.540  -5.283  -1.625  0.00  0.00    +0.124 C 
ATOM     17  H   UNL     1      -0.802  -2.936   1.414  0.00  0.00    +0.153 HD
ATOM     18  H   UNL     1       1.098  -5.135  -0.415  0.00  0.00    +0.129 HD
BRANCH   4  19
ATOM     19  O   UNL     1       0.346  -1.043  -0.417  0.00  0.00    -0.493 OA
BRANCH  19  21
ATOM     20  C   UNL     1      -0.656   0.509   1.141  0.00  0.00    +0.048 C 
ATOM     21  C   UNL     1      -0.472  -0.959   0.751  0.00  0.00    +0.225 C 
ENDBRANCH  19  21
ENDBRANCH   4  19
ENDBRANCH   1   6
BRANCH   3  22
ATOM     22  S   UNL     1       5.412  -4.992  -2.520  0.00  0.00    +0.071 S 
ATOM     23  O   UNL     1       6.256  -4.079  -3.208  0.00  0.00    -0.153 OA
ATOM     24  O   UNL     1       5.485  -5.121  -1.107  0.00  0.00    -0.153 OA
BRANCH  22  25
ATOM     25  C   UNL     1       5.492  -6.627  -3.302  0.00  0.00    +0.147 C 
ATOM     26  C   UNL     1       4.503  -7.570  -2.614  0.00  0.00    +0.033 C 
ATOM     27  C   UNL     1       5.131  -6.502  -4.784  0.00  0.00    +0.033 C 
ENDBRANCH  22  25
ENDBRANCH   3  22
BRANCH   3  28
ATOM     28  S   UNL     1       3.554  -3.576  -4.185  0.00  0.00    +0.231 S 
ATOM     29  O   UNL     1       4.561  -3.915  -5.129  0.00  0.00    -0.114 OA
ATOM     30  O   UNL     1       2.169  -3.740  -4.457  0.00  0.00    -0.114 OA
BRANCH  28  31
ATOM     31  O   UNL     1       3.760  -2.109  -3.838  0.00  0.00    -0.330 OA
BRANCH  31  32
ATOM     32  C   UNL     1       5.064  -1.742  -3.735  0.00  0.00    +0.158 A 
ATOM     33  C   UNL     1       5.718  -1.835  -2.514  0.00  0.00    +0.048 A 
ATOM     34  C   UNL     1       7.044  -1.462  -2.413  0.00  0.00    +0.004 A 
ATOM     35  C   UNL     1       7.720  -0.997  -3.525  0.00  0.00    +0.000 A 
ATOM     36  C   UNL     1       7.071  -0.903  -4.742  0.00  0.00    +0.004 A 
ATOM     37  C   UNL     1       5.746  -1.280  -4.851  0.00  0.00    +0.048 A 
ENDBRANCH  31  32
ENDBRANCH  28  31
ENDBRANCH   3  28
TORSDOF 8
