REMARK  Name = ZINC39681372
REMARK  6 active torsions:
REMARK  status: ('A' for Active; 'I' for Inactive)
REMARK    1  A    between atoms: C_5  and  O_7
REMARK    2  A    between atoms: O_7  and  C_8
REMARK    3  A    between atoms: C_8  and  C_9
REMARK    4  A    between atoms: C_9  and  N_10
REMARK    5  A    between atoms: C_11  and  C_13
REMARK    6  A    between atoms: C_24  and  C_26
REMARK                            x       y       z     vdW  Elec       q    Type
REMARK                         _______ _______ _______ _____ _____    ______ ____
ROOT
ATOM      1  C   UNL     1       1.835  -6.339   2.712  0.00  0.00    +0.100 C 
ATOM      2  C   UNL     1       0.986  -5.922   3.933  0.00  0.00    +0.121 C 
ATOM      3  N   UNL     1       0.185  -7.125   4.260  0.00  0.00    -0.300 N 
ATOM      4  C   UNL     1       1.120  -8.258   4.054  0.00  0.00    +0.115 C 
ATOM      5  C   UNL     1       1.924  -7.872   2.796  0.00  0.00    -0.004 C 
ATOM      6  C   UNL     1       3.378  -8.310   2.944  0.00  0.00    -0.010 C 
ATOM      7  C   UNL     1       3.445  -9.840   2.967  0.00  0.00    -0.082 C 
ATOM      8  N   UNL     1       2.875 -10.376   1.726  0.00  0.00    +0.379 N 
ATOM      9  C   UNL     1       1.452 -10.028   1.637  0.00  0.00    -0.082 C 
ATOM     10  C   UNL     1       1.300  -8.507   1.557  0.00  0.00    -0.010 C 
ATOM     11  C   UNL     1      -1.102  -7.178   4.657  0.00  0.00    +0.219 C 
ATOM     12  O   UNL     1      -1.621  -8.249   4.889  0.00  0.00    -0.275 OA
ATOM     13  H   UNL     1       3.366  -9.984   0.935  0.00  0.00    -0.086 HD
ATOM     14  H   UNL     1       2.976 -11.380   1.716  0.00  0.00    -0.086 HD
ENDROOT
BRANCH  11  15
ATOM     15  C   UNL     1      -1.895  -5.906   4.811  0.00  0.00    +0.079 C 
ATOM     16  C   UNL     1      -3.318  -6.240   5.279  0.00  0.00    +0.017 C 
ATOM     17  C   UNL     1      -4.149  -4.955   5.255  0.00  0.00    +0.027 C 
ATOM     18  C   UNL     1      -3.415  -3.851   5.958  0.00  0.00    -0.031 C 
ATOM     19  C   UNL     1      -2.147  -3.875   6.219  0.00  0.00    -0.030 C 
ATOM     20  C   UNL     1      -1.233  -5.011   5.860  0.00  0.00    +0.039 C 
ENDBRANCH  11  15
BRANCH   1  22
ATOM     21  N   UNL     1       1.889  -5.653   0.336  0.00  0.00    -0.312 N 
ATOM     22  C   UNL     1       1.155  -5.923   1.433  0.00  0.00    +0.218 C 
ATOM     23  O   UNL     1      -0.054  -5.830   1.392  0.00  0.00    -0.275 OA
ATOM     24  H   UNL     1       2.856  -5.727   0.369  0.00  0.00    +0.149 HD
BRANCH  21  25
ATOM     25  C   UNL     1       1.228  -5.249  -0.907  0.00  0.00    +0.145 C 
BRANCH  25  26
ATOM     26  C   UNL     1       2.281  -5.005  -1.990  0.00  0.00    +0.248 C 
BRANCH  26  27
ATOM     27  O   UNL     1       2.943  -6.234  -2.296  0.00  0.00    -0.489 OA
BRANCH  27  32
ATOM     28  C   UNL     1       5.213  -4.952  -4.835  0.00  0.00    +0.004 A 
ATOM     29  C   UNL     1       5.893  -6.106  -5.179  0.00  0.00    +0.002 A 
ATOM     30  C   UNL     1       5.586  -7.303  -4.559  0.00  0.00    +0.023 A 
ATOM     31  C   UNL     1       4.598  -7.349  -3.593  0.00  0.00    +0.083 A 
ATOM     32  C   UNL     1       3.915  -6.192  -3.246  0.00  0.00    +0.139 A 
ATOM     33  C   UNL     1       4.225  -4.992  -3.870  0.00  0.00    +0.047 A 
ATOM     34 CL   UNL     1       4.212  -8.853  -2.816  0.00  0.00    -0.080 Cl
ENDBRANCH  27  32
ENDBRANCH  26  27
ENDBRANCH  25  26
ENDBRANCH  21  25
ENDBRANCH   1  22
TORSDOF 6
