REMARK  Name = ZINC19315001
REMARK  5 active torsions:
REMARK  status: ('A' for Active; 'I' for Inactive)
REMARK    1  A    between atoms: C_1  and  C_2
REMARK    2  A    between atoms: C_3  and  C_21
REMARK    3  A    between atoms: C_4  and  C_14
REMARK    4  A    between atoms: C_21  and  O_23
REMARK    5  A    between atoms: O_23  and  C_24
REMARK                            x       y       z     vdW  Elec       q    Type
REMARK                         _______ _______ _______ _____ _____    ______ ____
ROOT
ATOM      1  C   UNL     1       0.264   1.652   4.848  0.00  0.00    +0.061 C 
ATOM      2  C   UNL     1      -0.569   1.844   3.607  0.00  0.00    +0.016 C 
ATOM      3  C   UNL     1      -1.891   2.060   3.716  0.00  0.00    +0.065 C 
ATOM      4  C   UNL     1      -2.748   2.264   2.504  0.00  0.00    +0.094 C 
ATOM      5  C   UNL     1      -2.051   1.777   1.258  0.00  0.00    +0.024 C 
ATOM      6  C   UNL     1      -0.718   1.572   1.250  0.00  0.00    +0.015 C 
ATOM      7  N   UNL     1       0.026   1.799   2.377  0.00  0.00    -0.321 N 
ATOM      8  C   UNL     1      -0.013   1.086   0.008  0.00  0.00    +0.051 C 
ATOM      9  C   UNL     1      -0.752   1.592  -1.233  0.00  0.00    +0.014 C 
ATOM     10  C   UNL     1      -2.197   1.086  -1.177  0.00  0.00    +0.080 C 
ATOM     11  C   UNL     1      -2.828   1.546   0.109  0.00  0.00    +0.162 C 
ATOM     12  O   UNL     1      -4.029   1.722   0.155  0.00  0.00    -0.292 OA
ATOM     13  H   UNL     1       1.113   1.945   2.286  0.00  0.00    +0.152 HD
ENDROOT
BRANCH   4  14
ATOM     14  C   UNL     1      -3.055   3.733   2.356  0.00  0.00    -0.017 A 
ATOM     15  C   UNL     1      -2.027   4.638   2.167  0.00  0.00    +0.006 A 
ATOM     16  C   UNL     1      -2.308   5.984   2.032  0.00  0.00    +0.000 A 
ATOM     17  C   UNL     1      -3.617   6.427   2.086  0.00  0.00    +0.001 A 
ATOM     18  C   UNL     1      -4.645   5.523   2.274  0.00  0.00    +0.020 A 
ATOM     19  C   UNL     1      -4.365   4.174   2.405  0.00  0.00    +0.045 A 
ATOM     20 CL   UNL     1      -5.656   3.037   2.634  0.00  0.00    -0.083 Cl
ENDBRANCH   4  14
BRANCH   3  21
ATOM     21  C   UNL     1      -2.485   2.094   5.000  0.00  0.00    +0.337 C 
ATOM     22  O   UNL     1      -1.799   1.929   5.991  0.00  0.00    -0.245 OA
BRANCH  21  23
ATOM     23  O   UNL     1      -3.811   2.309   5.124  0.00  0.00    -0.465 OA
ATOM     24  C   UNL     1      -4.343   2.331   6.450  0.00  0.00    +0.280 C 
ENDBRANCH  21  23
ENDBRANCH   3  21
TORSDOF 3
