REMARK  Name = ZINC40387535
REMARK  10 active torsions:
REMARK  status: ('A' for Active; 'I' for Inactive)
REMARK    1  A    between atoms: C_1  and  C_2
REMARK    2  A    between atoms: C_2  and  N_3
REMARK    3  A    between atoms: C_9  and  C_11
REMARK    4  A    between atoms: C_14  and  C_17
REMARK    5  A    between atoms: C_17  and  S_18
REMARK    6  A    between atoms: S_18  and  C_19
REMARK    7  A    between atoms: C_22  and  C_31
REMARK    8  A    between atoms: N_23  and  C_24
REMARK    9  A    between atoms: C_27  and  C_30
REMARK   10  A    between atoms: C_34  and  C_37
REMARK                            x       y       z     vdW  Elec       q    Type
REMARK                         _______ _______ _______ _____ _____    ______ ____
ROOT
ATOM      1  S   UNL     1      -5.703  -8.980   0.225  0.00  0.00    -0.081 S 
ENDROOT
BRANCH   1   2
ATOM      2  C   UNL     1      -5.566 -10.731   0.369  0.00  0.00    +0.197 A 
ATOM      3  N   UNL     1      -4.647 -11.490  -0.187  0.00  0.00    -0.122 NA
ATOM      4  N   UNL     1      -4.843 -12.721   0.124  0.00  0.00    -0.128 NA
ATOM      5  C   UNL     1      -5.898 -12.827   0.898  0.00  0.00    +0.169 A 
ATOM      6  N   UNL     1      -6.392 -11.554   1.085  0.00  0.00    -0.270 N 
BRANCH   6   7
ATOM      7  C   UNL     1      -7.508 -11.181   1.845  0.00  0.00    +0.051 A 
ATOM      8  C   UNL     1      -7.501 -11.354   3.223  0.00  0.00    +0.026 A 
ATOM      9  C   UNL     1      -8.603 -10.986   3.970  0.00  0.00    +0.005 A 
ATOM     10  C   UNL     1      -9.713 -10.444   3.347  0.00  0.00    -0.050 A 
ATOM     11  C   UNL     1      -9.723 -10.271   1.975  0.00  0.00    +0.005 A 
ATOM     12  C   UNL     1      -8.622 -10.632   1.224  0.00  0.00    +0.026 A 
ATOM     13  C   UNL     1     -10.913 -10.043   4.165  0.00  0.00    +0.044 C 
ENDBRANCH   6   7
BRANCH   5  14
ATOM     14  C   UNL     1      -6.449 -14.075   1.467  0.00  0.00    +0.020 A 
ATOM     15  C   UNL     1      -7.738 -14.092   2.002  0.00  0.00    +0.012 A 
ATOM     16  C   UNL     1      -8.247 -15.261   2.531  0.00  0.00    +0.004 A 
ATOM     17  C   UNL     1      -7.482 -16.414   2.532  0.00  0.00    -0.050 A 
ATOM     18  C   UNL     1      -6.203 -16.403   2.003  0.00  0.00    +0.004 A 
ATOM     19  C   UNL     1      -5.685 -15.243   1.466  0.00  0.00    +0.012 A 
ATOM     20  C   UNL     1      -8.044 -17.686   3.111  0.00  0.00    +0.044 C 
ENDBRANCH   5  14
ENDBRANCH   1   2
BRANCH   1  21
ATOM     21  C   UNL     1      -4.316  -8.518  -0.849  0.00  0.00    +0.112 C 
BRANCH  21  25
ATOM     22  C   UNL     1      -4.318  -4.283  -1.437  0.00  0.00    +0.037 A 
ATOM     23  C   UNL     1      -3.612  -4.842  -0.371  0.00  0.00    +0.013 A 
ATOM     24  C   UNL     1      -3.616  -6.209  -0.187  0.00  0.00    +0.005 A 
ATOM     25  C   UNL     1      -4.317  -7.026  -1.056  0.00  0.00    -0.037 A 
ATOM     26  C   UNL     1      -5.019  -6.478  -2.115  0.00  0.00    +0.005 A 
ATOM     27  C   UNL     1      -5.028  -5.112  -2.307  0.00  0.00    +0.013 A 
BRANCH  22  34
ATOM     28  N   UNL     1      -0.771  -0.987  -2.514  0.00  0.00    +0.382 N 
ATOM     29  C   UNL     1      -2.051  -0.428  -2.966  0.00  0.00    -0.060 C 
ATOM     30  C   UNL     1      -3.125  -0.691  -1.905  0.00  0.00    +0.089 C 
ATOM     31  N   UNL     1      -3.158  -2.135  -1.622  0.00  0.00    -0.301 N 
ATOM     32  C   UNL     1      -1.887  -2.811  -1.319  0.00  0.00    +0.089 C 
ATOM     33  C   UNL     1      -0.872  -2.448  -2.408  0.00  0.00    -0.060 C 
ATOM     34  C   UNL     1      -4.319  -2.818  -1.641  0.00  0.00    +0.246 C 
ATOM     35  O   UNL     1      -5.367  -2.231  -1.824  0.00  0.00    -0.270 OA
ATOM     36  H   UNL     1      -0.538  -0.601  -1.611  0.00  0.00    -0.082 HD
BRANCH  28  38
ATOM     37  C   UNL     1       0.473   0.879  -3.499  0.00  0.00    -0.017 C 
ATOM     38  C   UNL     1       0.281  -0.639  -3.479  0.00  0.00    -0.082 C 
ENDBRANCH  28  38
ENDBRANCH  22  34
ENDBRANCH  21  25
ENDBRANCH   1  21
TORSDOF 7
