REMARK  Name = ZINC01784887
REMARK  11 active torsions:
REMARK  status: ('A' for Active; 'I' for Inactive)
REMARK    1  A    between atoms: C_1  and  C_2
REMARK    2  A    between atoms: C_2  and  O_3
REMARK    3  A    between atoms: O_3  and  C_4
REMARK    4  A    between atoms: C_4  and  C_6
REMARK    5  A    between atoms: C_10  and  N_11
REMARK    6  A    between atoms: C_12  and  C_14
REMARK    7  A    between atoms: C_14  and  N_15
REMARK    8  A    between atoms: C_26  and  C_30
REMARK    9  A    between atoms: C_30  and  C_31
REMARK   10  A    between atoms: C_30  and  C_32
REMARK   11  A    between atoms: C_30  and  C_33
REMARK                            x       y       z     vdW  Elec       q    Type
REMARK                         _______ _______ _______ _____ _____    ______ ____
ROOT
ATOM      1  C   UNL     1       2.871  -1.459  -8.612  0.00  0.00    +0.245 C 
ENDROOT
BRANCH   1   2
ATOM      2  N   UNL     1       3.297  -1.120  -7.251  0.00  0.00    -0.201 N 
ATOM      3  C   UNL     1       2.357  -1.015  -6.281  0.00  0.00    +0.279 A 
ATOM      4  O   UNL     1       1.172  -1.192  -6.503  0.00  0.00    -0.265 OA
ATOM      5  C   UNL     1       2.849  -0.680  -4.973  0.00  0.00    +0.079 A 
ATOM      6  C   UNL     1       2.057  -0.508  -3.770  0.00  0.00    -0.023 A 
ATOM      7  C   UNL     1       2.732  -0.191  -2.638  0.00  0.00    -0.004 A 
ATOM      8  S   UNL     1       4.437  -0.108  -3.123  0.00  0.00    -0.071 S 
ATOM      9  C   UNL     1       4.243  -0.497  -4.834  0.00  0.00    +0.138 A 
ATOM     10  N   UNL     1       5.116  -0.615  -5.829  0.00  0.00    -0.123 NA
ATOM     11  N   UNL     1       4.655  -0.918  -7.003  0.00  0.00    -0.061 NA
ATOM     12  C   UNL     1       2.157   0.039  -1.275  0.00  0.00    +0.046 C 
ATOM     13  C   UNL     1       0.718  -0.497  -1.257  0.00  0.00    -0.000 C 
ATOM     14  C   UNL     1      -0.015   0.015  -2.499  0.00  0.00    +0.009 C 
ATOM     15  C   UNL     1       0.539  -0.667  -3.749  0.00  0.00    +0.037 C 
BRANCH  13  16
ATOM     16  C   UNL     1       0.002  -0.004   0.002  0.00  0.00    -0.035 C 
ATOM     17  C   UNL     1      -0.019   1.526   0.010  0.00  0.00    +0.011 C 
ATOM     18  C   UNL     1       0.742  -0.511   1.242  0.00  0.00    +0.011 C 
ATOM     19  C   UNL     1      -1.433  -0.534   0.013  0.00  0.00    +0.011 C 
ENDBRANCH  13  16
ENDBRANCH   1   2
BRANCH   1  21
ATOM     20  N   UNL     1       2.163  -0.261 -10.656  0.00  0.00    -0.278 N 
ATOM     21  C   UNL     1       2.574  -0.194  -9.375  0.00  0.00    +0.239 C 
ATOM     22  O   UNL     1       2.704   0.884  -8.835  0.00  0.00    -0.273 OA
ATOM     23  H   UNL     1       2.058  -1.123 -11.088  0.00  0.00    +0.155 HD
BRANCH  20  28
ATOM     24  C   UNL     1       1.465   1.037 -12.674  0.00  0.00    +0.091 A 
ATOM     25  C   UNL     1       1.243   2.385 -13.172  0.00  0.00    -0.021 A 
ATOM     26  C   UNL     1       1.490   3.374 -12.287  0.00  0.00    -0.004 A 
ATOM     27  S   UNL     1       2.001   2.542 -10.810  0.00  0.00    -0.077 S 
ATOM     28  C   UNL     1       1.889   0.903 -11.358  0.00  0.00    +0.086 A 
ATOM     29  C   UNL     1       1.357   4.847 -12.519  0.00  0.00    +0.043 C 
ATOM     30  C   UNL     1       1.256   5.092 -14.031  0.00  0.00    +0.005 C 
ATOM     31  C   UNL     1       0.225   4.125 -14.620  0.00  0.00    +0.005 C 
ATOM     32  C   UNL     1       0.772   2.697 -14.588  0.00  0.00    +0.037 C 
BRANCH  24  33
ATOM     33  C   UNL     1       1.245  -0.134 -13.525  0.00  0.00    +0.342 C 
ATOM     34  O   UNL     1       0.151  -0.664 -13.560  0.00  0.00    -0.245 OA
BRANCH  33  35
ATOM     35  O   UNL     1       2.256  -0.625 -14.270  0.00  0.00    -0.461 OA
BRANCH  35  37
ATOM     36  C   UNL     1       3.225  -2.197 -15.858  0.00  0.00    +0.048 C 
ATOM     37  C   UNL     1       1.966  -1.788 -15.090  0.00  0.00    +0.229 C 
ENDBRANCH  35  37
ENDBRANCH  33  35
ENDBRANCH  24  33
ENDBRANCH  20  28
ENDBRANCH   1  21
TORSDOF 7
