REMARK  Name = ZINC20464603
REMARK  7 active torsions:
REMARK  status: ('A' for Active; 'I' for Inactive)
REMARK    1  A    between atoms: C_1  and  C_2
REMARK    2  A    between atoms: C_2  and  O_3
REMARK    3  A    between atoms: O_3  and  C_4
REMARK    4  A    between atoms: C_4  and  C_6
REMARK    5  A    between atoms: C_10  and  N_11
REMARK    6  A    between atoms: N_20  and  C_21
REMARK    7  A    between atoms: N_20  and  C_22
REMARK                            x       y       z     vdW  Elec       q    Type
REMARK                         _______ _______ _______ _____ _____    ______ ____
ROOT
ATOM      1  N   UNL     1      -1.119   2.575   0.022  0.00  0.00    -0.263 N 
ATOM      2  C   UNL     1      -2.365   2.062   0.026  0.00  0.00    +0.310 C 
ATOM      3  O   UNL     1      -2.527   0.857   0.020  0.00  0.00    -0.252 OA
ATOM      4  N   UNL     1      -3.432   2.885   0.035  0.00  0.00    -0.247 N 
ATOM      5  C   UNL     1      -4.721   2.355   0.040  0.00  0.00    +0.190 A 
ATOM      6  N   UNL     1      -5.105   1.095   0.029  0.00  0.00    -0.124 NA
ATOM      7  N   UNL     1      -6.446   0.787   0.040  0.00  0.00    -0.124 NA
ATOM      8  C   UNL     1      -7.341   1.756   0.050  0.00  0.00    +0.186 A 
ATOM      9  S   UNL     1      -6.293   3.203   0.052  0.00  0.00    -0.015 S 
ATOM     10  N   UNL     1      -8.728   1.674   0.056  0.00  0.00    -0.308 N 
ATOM     11  C   UNL     1      -9.534   2.897   0.065  0.00  0.00    +0.131 C 
ATOM     12  H   UNL     1      -0.972   3.665   0.026  0.00  0.00    +0.157 HD
ATOM     13  H   UNL     1      -3.286   3.975   0.040  0.00  0.00    +0.158 HD
ENDROOT
BRANCH   1  18
ATOM     14  C   UNL     1       1.327   2.063   0.001  0.00  0.00    +0.091 A 
ATOM     15  C   UNL     1       2.288   0.973  -0.014  0.00  0.00    -0.021 A 
ATOM     16  C   UNL     1       1.753  -0.267  -0.016  0.00  0.00    -0.004 A 
ATOM     17  S   UNL     1       0.002  -0.004   0.002  0.00  0.00    -0.077 S 
ATOM     18  C   UNL     1      -0.021   1.728   0.011  0.00  0.00    +0.087 A 
ATOM     19  C   UNL     1       2.491  -1.569  -0.031  0.00  0.00    +0.043 C 
ATOM     20  C   UNL     1       3.950  -1.294  -0.422  0.00  0.00    +0.005 C 
ATOM     21  C   UNL     1       4.473  -0.124   0.416  0.00  0.00    +0.005 C 
ATOM     22  C   UNL     1       3.798   1.175  -0.027  0.00  0.00    +0.037 C 
BRANCH  14  23
ATOM     23  C   UNL     1       1.762   3.461   0.003  0.00  0.00    +0.342 C 
ATOM     24  O   UNL     1       1.954   4.036   1.058  0.00  0.00    -0.245 OA
BRANCH  23  25
ATOM     25  O   UNL     1       1.952   4.110  -1.164  0.00  0.00    -0.461 OA
BRANCH  25  27
ATOM     26  C   UNL     1       2.544   6.059  -2.498  0.00  0.00    +0.048 C 
ATOM     27  C   UNL     1       2.384   5.494  -1.085  0.00  0.00    +0.229 C 
ENDBRANCH  25  27
ENDBRANCH  23  25
ENDBRANCH  14  23
ENDBRANCH   1  18
BRANCH  10  28
ATOM     28  C   UNL     1      -9.384   0.364   0.052  0.00  0.00    +0.075 C 
ATOM     29  C   UNL     1     -10.263   0.237  -1.194  0.00  0.00    +0.022 C 
ATOM     30  C   UNL     1     -10.948  -1.131  -1.198  0.00  0.00    +0.002 C 
ATOM     31  C   UNL     1     -11.816  -1.270   0.055  0.00  0.00    +0.000 C 
ATOM     32  C   UNL     1     -10.937  -1.143   1.301  0.00  0.00    +0.002 C 
ATOM     33  C   UNL     1     -10.251   0.225   1.304  0.00  0.00    +0.022 C 
ENDBRANCH  10  28
TORSDOF 5
