REMARK  Name = ZINC04478260
REMARK  9 active torsions:
REMARK  status: ('A' for Active; 'I' for Inactive)
REMARK    1  A    between atoms: C_1  and  C_2
REMARK    2  A    between atoms: C_2  and  C_3
REMARK    3  A    between atoms: C_3  and  C_4
REMARK    4  A    between atoms: C_6  and  C_29
REMARK    5  A    between atoms: C_8  and  C_23
REMARK    6  A    between atoms: C_10  and  C_22
REMARK    7  A    between atoms: C_12  and  C_13
REMARK    8  A    between atoms: C_12  and  O_21
REMARK    9  A    between atoms: C_14  and  C_15
REMARK                            x       y       z     vdW  Elec       q    Type
REMARK                         _______ _______ _______ _____ _____    ______ ____
ROOT
ATOM      1  C   UNL     1      -3.097   1.050  -1.042  0.00  0.00    +0.023 C 
ATOM      2  C   UNL     1      -2.524   1.349   0.345  0.00  0.00    -0.033 C 
ATOM      3  C   UNL     1      -4.749   1.532   1.287  0.00  0.00    -0.034 C 
ATOM      4  C   UNL     1      -5.389   1.239  -0.072  0.00  0.00    +0.020 C 
ATOM      5  C   UNL     1      -4.450   0.348  -0.890  0.00  0.00    +0.130 C 
ATOM      6  C   UNL     1      -6.723   0.520   0.136  0.00  0.00    +0.010 C 
ATOM      7  N   UNL     1      -3.456   2.215   1.092  0.00  0.00    +0.389 N 
ATOM      8  H   UNL     1      -3.608   3.083   0.564  0.00  0.00    -0.084 HD
ATOM      9  H   UNL     1      -3.050   2.439   2.008  0.00  0.00    -0.084 HD
ENDROOT
BRANCH   3  10
ATOM     10  C   UNL     1      -4.533   0.239   2.030  0.00  0.00    -0.061 A 
ATOM     11  C   UNL     1      -5.585  -0.638   2.211  0.00  0.00    +0.002 A 
ATOM     12  C   UNL     1      -5.385  -1.827   2.888  0.00  0.00    +0.000 A 
ATOM     13  C   UNL     1      -4.136  -2.133   3.393  0.00  0.00    +0.000 A 
ATOM     14  C   UNL     1      -3.084  -1.253   3.217  0.00  0.00    +0.000 A 
ATOM     15  C   UNL     1      -3.283  -0.067   2.535  0.00  0.00    +0.002 A 
ENDBRANCH   3  10
BRANCH   2  16
ATOM     16  C   UNL     1      -1.202   2.057   0.200  0.00  0.00    -0.061 A 
ATOM     17  C   UNL     1      -0.024   1.378   0.447  0.00  0.00    +0.002 A 
ATOM     18  C   UNL     1       1.190   2.026   0.309  0.00  0.00    +0.000 A 
ATOM     19  C   UNL     1       1.224   3.354  -0.071  0.00  0.00    +0.000 A 
ATOM     20  C   UNL     1       0.045   4.035  -0.313  0.00  0.00    +0.000 A 
ATOM     21  C   UNL     1      -1.168   3.387  -0.175  0.00  0.00    +0.002 A 
ENDBRANCH   2  16
BRANCH   5  22
ATOM     22  C   UNL     1      -4.262  -0.938  -0.199  0.00  0.00    -0.062 C 
ATOM     23  C   UNL     1      -4.113  -1.963   0.353  0.00  0.00    -0.063 C 
BRANCH  23  24
ATOM     24  C   UNL     1      -3.930  -3.214   1.026  0.00  0.00    +0.025 A 
ATOM     25  C   UNL     1      -2.655  -3.616   1.424  0.00  0.00    +0.017 A 
ATOM     26  C   UNL     1      -2.486  -4.819   2.077  0.00  0.00    +0.001 A 
ATOM     27  C   UNL     1      -3.577  -5.633   2.326  0.00  0.00    +0.000 A 
ATOM     28  C   UNL     1      -4.844  -5.243   1.930  0.00  0.00    +0.001 A 
ATOM     29  C   UNL     1      -5.026  -4.038   1.281  0.00  0.00    +0.017 A 
ENDBRANCH  23  24
ENDBRANCH   5  22
BRANCH   5  30
ATOM     30  O   UNL     1      -5.016   0.117  -2.182  0.00  0.00    -0.376 OA
ATOM     31  H   UNL     1      -5.875  -0.325  -2.161  0.00  0.00    +0.211 HD
ENDBRANCH   5  30
BRANCH   1  32
ATOM     32  C   UNL     1      -2.134   0.141  -1.808  0.00  0.00    +0.006 C 
BRANCH  32  34
ATOM     33  C   UNL     1      -1.623  -0.880  -4.030  0.00  0.00    +0.004 C 
ATOM     34  C   UNL     1      -2.591   0.023  -3.263  0.00  0.00    -0.003 C 
ENDBRANCH  32  34
ENDBRANCH   1  32
TORSDOF 7
