REMARK  Name = ZINC11882535
REMARK  8 active torsions:
REMARK  status: ('A' for Active; 'I' for Inactive)
REMARK    1  A    between atoms: C_1  and  C_2
REMARK    2  A    between atoms: C_2  and  O_3
REMARK    3  A    between atoms: O_3  and  C_4
REMARK    4  A    between atoms: C_4  and  C_6
REMARK    5  A    between atoms: C_10  and  N_11
REMARK    6  A    between atoms: C_12  and  C_14
REMARK    7  A    between atoms: C_24  and  C_25
REMARK    8  A    between atoms: C_24  and  N_54
REMARK                            x       y       z     vdW  Elec       q    Type
REMARK                         _______ _______ _______ _____ _____    ______ ____
ROOT
ATOM      1  C   UNL     1       3.767   5.680  -5.249  0.00  0.00    +0.091 A 
ATOM      2  C   UNL     1       3.535   5.293  -3.869  0.00  0.00    -0.025 A 
ATOM      3  C   UNL     1       2.241   5.092  -3.535  0.00  0.00    -0.021 A 
ATOM      4  S   UNL     1       1.335   5.411  -5.021  0.00  0.00    -0.079 S 
ATOM      5  C   UNL     1       2.655   5.804  -6.073  0.00  0.00    +0.086 A 
ATOM      6  C   UNL     1       1.723   4.687  -2.190  0.00  0.00    -0.035 C 
ATOM      7  C   UNL     1       3.982   5.141  -1.440  0.00  0.00    -0.073 C 
ATOM      8  C   UNL     1       4.632   5.111  -2.826  0.00  0.00    +0.018 C 
ATOM      9  N   UNL     1       2.867   4.171  -1.400  0.00  0.00    +0.386 N 
ATOM     10  H   UNL     1       3.182   3.283  -1.808  0.00  0.00    -0.081 HD
ENDROOT
BRANCH   5  11
ATOM     11  N   UNL     1       2.611   6.156  -7.412  0.00  0.00    -0.275 N 
ATOM     12  C   UNL     1       1.428   6.225  -8.053  0.00  0.00    +0.249 C 
ATOM     13  O   UNL     1       0.398   5.978  -7.456  0.00  0.00    -0.270 OA
ATOM     14  H   UNL     1       3.433   6.353  -7.888  0.00  0.00    +0.156 HD
BRANCH  12  15
ATOM     15  C   UNL     1       1.382   6.601  -9.481  0.00  0.00    +0.037 A 
ATOM     16  C   UNL     1       2.562   6.890 -10.168  0.00  0.00    +0.014 A 
ATOM     17  C   UNL     1       2.513   7.234 -11.503  0.00  0.00    +0.016 A 
ATOM     18  C   UNL     1       1.296   7.304 -12.158  0.00  0.00    +0.018 A 
ATOM     19  C   UNL     1       0.121   7.024 -11.481  0.00  0.00    +0.016 A 
ATOM     20  C   UNL     1       0.157   6.673 -10.148  0.00  0.00    +0.014 A 
ATOM     21 BR   UNL     1       1.236   7.785 -13.986  0.00  0.00    -0.050 Br
ENDBRANCH  12  15
ENDBRANCH   5  11
BRANCH   1  22
ATOM     22  C   UNL     1       5.119   5.930  -5.752  0.00  0.00    +0.342 C 
ATOM     23  O   UNL     1       5.768   5.019  -6.231  0.00  0.00    -0.245 OA
BRANCH  22  24
ATOM     24  O   UNL     1       5.645   7.170  -5.684  0.00  0.00    -0.461 OA
BRANCH  24  26
ATOM     25  C   UNL     1       7.413   8.806  -6.041  0.00  0.00    +0.048 C 
ATOM     26  C   UNL     1       6.990   7.344  -6.202  0.00  0.00    +0.229 C 
ENDBRANCH  24  26
ENDBRANCH  22  24
ENDBRANCH   1  22
BRANCH   9  27
ATOM     27  C   UNL     1       2.451   3.937  -0.001  0.00  0.00    -0.043 C 
BRANCH  27  28
ATOM     28  C   UNL     1       1.156   3.165   0.008  0.00  0.00    -0.064 A 
ATOM     29  C   UNL     1       1.175   1.783   0.000  0.00  0.00    +0.002 A 
ATOM     30  C   UNL     1      -0.013   1.076   0.008  0.00  0.00    +0.000 A 
ATOM     31  C   UNL     1      -1.219   1.751   0.017  0.00  0.00    +0.000 A 
ATOM     32  C   UNL     1      -1.238   3.133   0.030  0.00  0.00    +0.000 A 
ATOM     33  C   UNL     1      -0.050   3.840   0.023  0.00  0.00    +0.002 A 
ENDBRANCH  27  28
ENDBRANCH   9  27
TORSDOF 7
