REMARK  Name = ZINC22765267
REMARK  11 active torsions:
REMARK  status: ('A' for Active; 'I' for Inactive)
REMARK    1  A    between atoms: C_1  and  C_2
REMARK    2  A    between atoms: C_2  and  C_4
REMARK    3  A    between atoms: C_2  and  S_20
REMARK    4  A    between atoms: N_6  and  C_7
REMARK    5  A    between atoms: C_12  and  S_13
REMARK    6  A    between atoms: S_13  and  C_14
REMARK    7  A    between atoms: S_20  and  C_21
REMARK    8  A    between atoms: C_24  and  C_31
REMARK    9  A    between atoms: N_25  and  C_26
REMARK   10  A    between atoms: C_26  and  C_27
REMARK   11  A    between atoms: C_27  and  C_28
REMARK                            x       y       z     vdW  Elec       q    Type
REMARK                         _______ _______ _______ _____ _____    ______ ____
ROOT
ATOM      1  C   UNL     1       3.455   5.180   1.705  0.00  0.00    +0.029 C 
ATOM      2  C   UNL     1       3.623   3.958   0.801  0.00  0.00    +0.137 C 
ENDROOT
BRANCH   2   3
ATOM      3  C   UNL     1       5.090   3.698   0.574  0.00  0.00    +0.230 C 
ATOM      4  O   UNL     1       5.659   2.837   1.210  0.00  0.00    -0.274 OA
ATOM      5  N   UNL     1       5.769   4.423  -0.337  0.00  0.00    -0.284 N 
ATOM      6  H   UNL     1       5.237   5.146  -0.973  0.00  0.00    +0.155 HD
BRANCH   5   7
ATOM      7  C   UNL     1       7.154   4.257  -0.473  0.00  0.00    +0.047 A 
ATOM      8  C   UNL     1       7.743   3.042  -0.157  0.00  0.00    +0.024 A 
ATOM      9  C   UNL     1       9.108   2.878  -0.298  0.00  0.00    +0.002 A 
ATOM     10  C   UNL     1       9.893   3.926  -0.743  0.00  0.00    +0.001 A 
ATOM     11  C   UNL     1       9.316   5.143  -1.055  0.00  0.00    +0.017 A 
ATOM     12  C   UNL     1       7.945   5.315  -0.922  0.00  0.00    +0.034 A 
BRANCH  12  13
ATOM     13  S   UNL     1       7.206   6.864  -1.319  0.00  0.00    -0.088 S 
BRANCH  13  14
ATOM     14  C   UNL     1       6.429   6.580  -2.875  0.00  0.00    +0.013 A 
ATOM     15  C   UNL     1       6.615   5.371  -3.536  0.00  0.00    +0.015 A 
ATOM     16  C   UNL     1       6.001   5.150  -4.753  0.00  0.00    +0.001 A 
ATOM     17  C   UNL     1       5.210   6.133  -5.319  0.00  0.00    +0.000 A 
ATOM     18  C   UNL     1       5.027   7.339  -4.667  0.00  0.00    +0.001 A 
ATOM     19  C   UNL     1       5.634   7.565  -3.447  0.00  0.00    +0.015 A 
ENDBRANCH  13  14
ENDBRANCH  12  13
ENDBRANCH   5   7
ENDBRANCH   2   3
BRANCH   2  20
ATOM     20  S   UNL     1       2.870   2.514   1.591  0.00  0.00    -0.074 S 
BRANCH  20  21
ATOM     21  C   UNL     1       1.181   3.014   1.598  0.00  0.00    +0.193 A 
ATOM     22  N   UNL     1       0.702   4.146   1.133  0.00  0.00    -0.122 NA
ATOM     23  N   UNL     1      -0.572   4.188   1.297  0.00  0.00    -0.125 NA
ATOM     24  C   UNL     1      -0.987   3.082   1.873  0.00  0.00    +0.200 A 
ATOM     25  N   UNL     1       0.125   2.298   2.089  0.00  0.00    -0.299 N 
BRANCH  24  26
ATOM     26  C   UNL     1      -2.376   2.745   2.224  0.00  0.00    +0.172 A 
ATOM     27  C   UNL     1      -3.420   3.618   2.281  0.00  0.00    +0.053 A 
ATOM     28  C   UNL     1      -4.554   2.870   2.652  0.00  0.00    +0.042 A 
ATOM     29  C   UNL     1      -4.151   1.593   2.810  0.00  0.00    +0.196 A 
ATOM     30  O   UNL     1      -2.835   1.521   2.551  0.00  0.00    -0.460 OA
ENDBRANCH  24  26
BRANCH  25  31
ATOM     31  C   UNL     1       0.167   0.971   2.709  0.00  0.00    +0.135 C 
BRANCH  31  32
ATOM     32  C   UNL     1       0.369   1.120   4.218  0.00  0.00    +0.117 C 
BRANCH  32  33
ATOM     33  C   UNL     1       0.412  -0.245   4.856  0.00  0.00    +0.212 C 
ATOM     34  O   UNL     1       0.293  -1.239   4.170  0.00  0.00    -0.276 OA
ATOM     35  N   UNL     1       0.582  -0.361   6.188  0.00  0.00    -0.329 N 
ATOM     36  H   UNL     1       0.614  -1.358   6.653  0.00  0.00    +0.145 HD
ATOM     37  H   UNL     1       0.689   0.540   6.809  0.00  0.00    +0.145 HD
ENDBRANCH  32  33
ENDBRANCH  31  32
ENDBRANCH  25  31
ENDBRANCH  20  21
ENDBRANCH   2  20
TORSDOF 10
