REMARK  Name = ZINC62794803
REMARK  6 active torsions:
REMARK  status: ('A' for Active; 'I' for Inactive)
REMARK    1  A    between atoms: C_1  and  C_2
REMARK    2  A    between atoms: C_2  and  C_3
REMARK    3  A    between atoms: C_2  and  C_4
REMARK    4  A    between atoms: N_7  and  C_9
REMARK    5  A    between atoms: C_12  and  C_16
REMARK    6  A    between atoms: N_17  and  O_18
REMARK                            x       y       z     vdW  Elec       q    Type
REMARK                         _______ _______ _______ _____ _____    ______ ____
ROOT
ATOM      1  C   UNL     1       1.013  -1.722   4.542  0.00  0.00    +0.084 A 
ATOM      2  C   UNL     1       2.117  -2.081   5.307  0.00  0.00    +0.030 A 
ATOM      3  C   UNL     1       1.945  -2.532   6.598  0.00  0.00    +0.013 A 
ATOM      4  C   UNL     1       0.662  -2.627   7.138  0.00  0.00    +0.019 A 
ATOM      5  C   UNL     1      -0.445  -2.266   6.369  0.00  0.00    +0.033 A 
ATOM      6  C   UNL     1      -0.267  -1.810   5.079  0.00  0.00    +0.067 A 
ATOM      7 CL   UNL     1      -1.642  -1.354   4.123  0.00  0.00    -0.081 Cl
ENDROOT
BRANCH   1  11
ATOM      8  C   UNL     1       0.731  -0.503   1.223  0.00  0.00    +0.066 A 
ATOM      9  C   UNL     1       2.116  -0.660   1.343  0.00  0.00    +0.045 A 
ATOM     10  C   UNL     1       2.377  -1.128   2.585  0.00  0.00    +0.115 A 
ATOM     11  N   UNL     1       1.191  -1.264   3.231  0.00  0.00    -0.238 N 
ATOM     12  N   UNL     1       0.177  -0.859   2.354  0.00  0.00    -0.171 NA
BRANCH   8  14
ATOM     13  C   UNL     1      -0.019   1.526   0.010  0.00  0.00    +0.014 C 
ATOM     14  C   UNL     1       0.002  -0.004   0.002  0.00  0.00    +0.033 C 
ATOM     15  C   UNL     1       0.718  -0.497  -1.257  0.00  0.00    +0.014 C 
ENDBRANCH   8  14
ENDBRANCH   1  11
BRANCH   4  16
ATOM     16  C   UNL     1       0.475  -3.111   8.524  0.00  0.00    +0.162 C 
ATOM     17  N   UNL     1       1.508  -3.448   9.240  0.00  0.00    -0.072 NA
ATOM     18  N   UNL     1      -0.799  -3.205   9.059  0.00  0.00    -0.340 N 
ATOM     19  H   UNL     1      -1.569  -2.954   8.525  0.00  0.00    +0.144 HD
ATOM     20  H   UNL     1      -0.921  -3.522   9.967  0.00  0.00    +0.144 HD
BRANCH  17  21
ATOM     21  O   UNL     1       1.329  -3.911  10.566  0.00  0.00    -0.408 OA
ATOM     22  H   UNL     1       2.153  -4.137  11.019  0.00  0.00    +0.328 HD
ENDBRANCH  17  21
ENDBRANCH   4  16
TORSDOF 4
