REMARK  Name = ZINC37043285
REMARK  7 active torsions:
REMARK  status: ('A' for Active; 'I' for Inactive)
REMARK    1  A    between atoms: C_1  and  C_2
REMARK    2  A    between atoms: C_4  and  C_9
REMARK    3  A    between atoms: C_7  and  N_8
REMARK    4  A    between atoms: N_11  and  C_12
REMARK    5  A    between atoms: C_12  and  C_14
REMARK    6  A    between atoms: C_12  and  C_18
REMARK    7  A    between atoms: C_14  and  C_15
REMARK                            x       y       z     vdW  Elec       q    Type
REMARK                         _______ _______ _______ _____ _____    ______ ____
ROOT
ATOM      1  C   UNL     1      -0.100  -2.872  -2.378  0.00  0.00    +0.245 C 
ATOM      2  O   UNL     1      -0.009  -2.216  -3.398  0.00  0.00    -0.270 OA
ATOM      3  N   UNL     1      -0.083  -4.218  -2.439  0.00  0.00    -0.303 N 
ATOM      4  H   UNL     1      -0.083  -4.740  -1.621  0.00  0.00    +0.150 HD
ENDROOT
BRANCH   1   8
ATOM      5  C   UNL     1      -0.391   1.337   0.278  0.00  0.00    +0.045 C 
ATOM      6  C   UNL     1      -0.372  -0.168   0.208  0.00  0.00    -0.029 A 
ATOM      7  C   UNL     1      -0.249  -0.797  -1.010  0.00  0.00    +0.018 A 
ATOM      8  C   UNL     1      -0.231  -2.194  -1.075  0.00  0.00    +0.037 A 
ATOM      9  C   UNL     1      -0.337  -2.946   0.099  0.00  0.00    +0.015 A 
ATOM     10  C   UNL     1      -0.460  -2.311   1.313  0.00  0.00    +0.024 A 
ATOM     11  C   UNL     1      -0.472  -0.920   1.375  0.00  0.00    +0.028 A 
BRANCH  11  12
ATOM     12  N   UNL     1      -0.590  -0.281   2.604  0.00  0.00    -0.358 N 
ATOM     13  H   UNL     1      -0.602   0.688   2.648  0.00  0.00    +0.142 HD
ATOM     14  H   UNL     1      -0.660  -0.804   3.418  0.00  0.00    +0.142 HD
ENDBRANCH  11  12
ENDBRANCH   1   8
BRANCH   3  15
ATOM     15  C   UNL     1      -0.064  -4.892  -3.739  0.00  0.00    +0.121 C 
BRANCH  15  16
ATOM     16  C   UNL     1      -1.462  -4.947  -4.298  0.00  0.00    +0.011 A 
ATOM     17  C   UNL     1      -1.878  -4.772  -5.576  0.00  0.00    +0.013 A 
ATOM     18  C   UNL     1      -3.227  -4.869  -5.861  0.00  0.00    +0.008 A 
ATOM     19  C   UNL     1      -4.094  -5.136  -4.854  0.00  0.00    +0.045 A 
ATOM     20  S   UNL     1      -3.000  -5.267  -3.449  0.00  0.00    -0.100 S 
ENDBRANCH  15  16
BRANCH  15  21
ATOM     21  C   UNL     1       0.473  -6.315  -3.568  0.00  0.00    +0.152 C 
BRANCH  21  22
ATOM     22  C   UNL     1       1.917  -6.259  -3.141  0.00  0.00    +0.358 C 
ATOM     23  O   UNL     1       2.496  -5.187  -3.086  0.00  0.00    -0.246 OA
ATOM     24  O   UNL     1       2.508  -7.285  -2.851  0.00  0.00    -0.246 OA
ENDBRANCH  21  22
ENDBRANCH  15  21
ENDBRANCH   3  15
TORSDOF 6
