REMARK  Name = ZINC10287237
REMARK  10 active torsions:
REMARK  status: ('A' for Active; 'I' for Inactive)
REMARK    1  A    between atoms: C_1  and  C_2
REMARK    2  A    between atoms: C_2  and  C_4
REMARK    3  A    between atoms: C_2  and  N_14
REMARK    4  A    between atoms: C_15  and  C_17
REMARK    5  A    between atoms: C_17  and  S_18
REMARK    6  A    between atoms: S_18  and  C_19
REMARK    7  A    between atoms: C_22  and  C_31
REMARK    8  A    between atoms: N_23  and  C_24
REMARK    9  A    between atoms: C_24  and  C_25
REMARK   10  A    between atoms: C_31  and  N_69
REMARK                            x       y       z     vdW  Elec       q    Type
REMARK                         _______ _______ _______ _____ _____    ______ ____
ROOT
ATOM      1  C   UNL     1       9.957   3.651  -4.039  0.00  0.00    +0.192 A 
ATOM      2  N   UNL     1       9.796   2.366  -4.254  0.00  0.00    -0.123 NA
ATOM      3  N   UNL     1      10.703   1.941  -5.058  0.00  0.00    -0.135 NA
ATOM      4  C   UNL     1      11.491   2.920  -5.402  0.00  0.00    +0.118 A 
ATOM      5  N   UNL     1      11.041   4.046  -4.769  0.00  0.00    -0.303 N 
ENDROOT
BRANCH   1   6
ATOM      6  S   UNL     1       8.959   4.674  -3.008  0.00  0.00    -0.077 S 
BRANCH   6   7
ATOM      7  C   UNL     1       7.763   3.452  -2.416  0.00  0.00    +0.173 C 
BRANCH   7   9
ATOM      8  N   UNL     1       5.790   3.400  -0.924  0.00  0.00    -0.308 N 
ATOM      9  C   UNL     1       6.779   4.120  -1.490  0.00  0.00    +0.224 C 
ATOM     10  O   UNL     1       6.878   5.305  -1.253  0.00  0.00    -0.275 OA
ATOM     11  H   UNL     1       5.712   2.452  -1.113  0.00  0.00    +0.149 HD
BRANCH   8  13
ATOM     12  C   UNL     1       5.414   4.091   1.392  0.00  0.00    +0.033 C 
ATOM     13  C   UNL     1       4.834   4.049  -0.024  0.00  0.00    +0.100 C 
BRANCH  13  14
ATOM     14  C   UNL     1       3.544   3.270  -0.015  0.00  0.00    -0.027 A 
ATOM     15  C   UNL     1       3.583   1.877  -0.022  0.00  0.00    +0.006 A 
ATOM     16  C   UNL     1       2.436   1.144  -0.015  0.00  0.00    +0.009 A 
ATOM     17  C   UNL     1       1.193   1.799   0.000  0.00  0.00    -0.018 A 
ATOM     18  C   UNL     1      -0.013   1.076   0.008  0.00  0.00    +0.008 A 
ATOM     19  C   UNL     1      -1.198   1.744   0.017  0.00  0.00    +0.001 A 
ATOM     20  C   UNL     1      -1.237   3.137   0.031  0.00  0.00    +0.001 A 
ATOM     21  C   UNL     1      -0.090   3.870   0.023  0.00  0.00    +0.008 A 
ATOM     22  C   UNL     1       1.153   3.215   0.008  0.00  0.00    -0.018 A 
ATOM     23  C   UNL     1       2.358   3.938  -0.001  0.00  0.00    +0.014 A 
ENDBRANCH  13  14
ENDBRANCH   8  13
ENDBRANCH   7   9
ENDBRANCH   6   7
ENDBRANCH   1   6
BRANCH   5  24
ATOM     24  C   UNL     1      11.606   5.395  -4.855  0.00  0.00    +0.160 C 
BRANCH  24  25
ATOM     25  C   UNL     1      12.648   5.572  -3.781  0.00  0.00    -0.028 A 
ATOM     26  C   UNL     1      12.285   6.059  -2.539  0.00  0.00    +0.005 A 
ATOM     27  C   UNL     1      13.241   6.217  -1.553  0.00  0.00    +0.000 A 
ATOM     28  C   UNL     1      14.560   5.898  -1.811  0.00  0.00    +0.000 A 
ATOM     29  C   UNL     1      14.924   5.416  -3.054  0.00  0.00    +0.000 A 
ATOM     30  C   UNL     1      13.968   5.253  -4.039  0.00  0.00    +0.005 A 
ENDBRANCH  24  25
ENDBRANCH   5  24
BRANCH   4  31
ATOM     31  C   UNL     1      12.676   2.830  -6.329  0.00  0.00    -0.001 C 
BRANCH  31  37
ATOM     32  C   UNL     1      11.338   2.023  -8.179  0.00  0.00    -0.078 C 
ATOM     33  C   UNL     1      10.789   2.393  -9.558  0.00  0.00    -0.019 C 
ATOM     34  C   UNL     1      11.955   2.570 -10.536  0.00  0.00    -0.004 C 
ATOM     35  C   UNL     1      12.903   3.646  -9.998  0.00  0.00    -0.019 C 
ATOM     36  C   UNL     1      13.390   3.240  -8.605  0.00  0.00    -0.078 C 
ATOM     37  N   UNL     1      12.223   3.110  -7.707  0.00  0.00    +0.384 N 
ATOM     38  H   UNL     1      11.699   3.993  -7.713  0.00  0.00    -0.081 HD
ENDBRANCH  31  37
ENDBRANCH   4  31
TORSDOF 9
