REMARK  Name = ZINC15044543
REMARK  12 active torsions:
REMARK  status: ('A' for Active; 'I' for Inactive)
REMARK    1  A    between atoms: C_3  and  S_31
REMARK    2  A    between atoms: C_6  and  N_7
REMARK    3  A    between atoms: C_8  and  C_10
REMARK    4  A    between atoms: C_10  and  C_11
REMARK    5  A    between atoms: C_11  and  C_12
REMARK    6  A    between atoms: C_12  and  C_13
REMARK    7  A    between atoms: C_13  and  C_14
REMARK    8  A    between atoms: C_14  and  N_15
REMARK    9  A    between atoms: C_19  and  C_20
REMARK   10  A    between atoms: C_23  and  O_27
REMARK   11  A    between atoms: C_25  and  O_26
REMARK   12  A    between atoms: S_31  and  N_34
REMARK                            x       y       z     vdW  Elec       q    Type
REMARK                         _______ _______ _______ _____ _____    ______ ____
ROOT
ATOM      1  C   UNL     1       2.202   1.581   0.140  0.00  0.00    +0.019 C 
ENDROOT
BRANCH   1   2
ATOM      2  C   UNL     1       2.572   3.023  -0.212  0.00  0.00    +0.002 C 
BRANCH   2   3
ATOM      3  C   UNL     1       4.095   3.160  -0.266  0.00  0.00    +0.009 C 
BRANCH   3   4
ATOM      4  C   UNL     1       4.464   4.603  -0.618  0.00  0.00    +0.096 C 
BRANCH   4   6
ATOM      5  N   UNL     1       6.524   5.929  -0.965  0.00  0.00    -0.285 N 
ATOM      6  C   UNL     1       5.964   4.738  -0.671  0.00  0.00    +0.217 C 
ATOM      7  O   UNL     1       6.668   3.775  -0.451  0.00  0.00    -0.275 OA
ATOM      8  H   UNL     1       5.964   6.714  -1.070  0.00  0.00    +0.155 HD
BRANCH   5  14
ATOM      9  C   UNL     1       8.572   7.183  -0.714  0.00  0.00    +0.025 A 
ATOM     10  C   UNL     1       9.942   7.279  -0.862  0.00  0.00    +0.030 A 
ATOM     11  C   UNL     1      10.653   6.234  -1.423  0.00  0.00    +0.105 A 
ATOM     12  C   UNL     1       9.996   5.088  -1.832  0.00  0.00    +0.030 A 
ATOM     13  C   UNL     1       8.628   4.984  -1.681  0.00  0.00    +0.025 A 
ATOM     14  C   UNL     1       7.910   6.031  -1.119  0.00  0.00    +0.033 A 
BRANCH  11  15
ATOM     15  S   UNL     1      12.400   6.364  -1.616  0.00  0.00    +0.056 S 
ATOM     16  O   UNL     1      12.845   7.312  -0.657  0.00  0.00    -0.153 OA
ATOM     17  O   UNL     1      12.902   5.035  -1.664  0.00  0.00    -0.153 OA
BRANCH  15  18
ATOM     18  N   UNL     1      12.680   7.030  -3.106  0.00  0.00    -0.204 NA
ATOM     19  H   UNL     1      11.934   7.265  -3.680  0.00  0.00    +0.144 HD
ATOM     20  H   UNL     1      13.589   7.185  -3.405  0.00  0.00    +0.144 HD
ENDBRANCH  15  18
ENDBRANCH  11  15
ENDBRANCH   5  14
ENDBRANCH   4   6
ENDBRANCH   3   4
ENDBRANCH   2   3
ENDBRANCH   1   2
BRANCH   1  21
ATOM     21  C   UNL     1       0.679   1.443   0.194  0.00  0.00    +0.115 C 
BRANCH  21  22
ATOM     22  N   UNL     1       0.325   0.062   0.531  0.00  0.00    -0.255 N 
ATOM     23  C   UNL     1       0.185  -0.278   1.801  0.00  0.00    +0.258 C 
ATOM     24  O   UNL     1       0.343   0.528   2.700  0.00  0.00    -0.269 OA
ATOM     25  C   UNL     1      -0.172  -1.683   2.074  0.00  0.00    +0.077 C 
ATOM     26  C   UNL     1      -0.378  -2.308   3.263  0.00  0.00    +0.031 C 
ATOM     27  S   UNL     1      -0.259  -2.336   0.413  0.00  0.00    -0.061 S 
ATOM     28  C   UNL     1       0.144  -0.833  -0.462  0.00  0.00    +0.121 C 
ATOM     29  S   UNL     1       0.272  -0.587  -2.152  0.00  0.00    -0.027 S 
BRANCH  26  30
ATOM     30  C   UNL     1      -0.564  -3.762   3.304  0.00  0.00    +0.018 A 
ATOM     31  C   UNL     1      -0.029  -4.568   2.290  0.00  0.00    +0.015 A 
ATOM     32  C   UNL     1      -0.202  -5.932   2.336  0.00  0.00    +0.046 A 
ATOM     33  C   UNL     1      -0.915  -6.514   3.380  0.00  0.00    +0.120 A 
ATOM     34  C   UNL     1      -1.453  -5.726   4.387  0.00  0.00    +0.091 A 
ATOM     35  C   UNL     1      -1.283  -4.353   4.357  0.00  0.00    +0.127 A 
BRANCH  35  36
ATOM     36  O   UNL     1      -1.808  -3.580   5.341  0.00  0.00    -0.506 OA
ATOM     37  H   UNL     1      -2.708  -3.273   5.163  0.00  0.00    +0.292 HD
ENDBRANCH  35  36
BRANCH  33  38
ATOM     38  O   UNL     1      -1.085  -7.861   3.413  0.00  0.00    -0.507 OA
ATOM     39  H   UNL     1      -1.881  -8.168   2.959  0.00  0.00    +0.292 HD
ENDBRANCH  33  38
ENDBRANCH  26  30
ENDBRANCH  21  22
ENDBRANCH   1  21
TORSDOF 12
