REMARK  Name = ZINC14604131
REMARK  7 active torsions:
REMARK  status: ('A' for Active; 'I' for Inactive)
REMARK    1  A    between atoms: C_3  and  S_13
REMARK    2  A    between atoms: C_4  and  N_10
REMARK    3  A    between atoms: C_6  and  C_7
REMARK    4  A    between atoms: S_13  and  C_14
REMARK    5  A    between atoms: C_14  and  C_15
REMARK    6  A    between atoms: C_21  and  C_23
REMARK    7  A    between atoms: C_23  and  C_24
REMARK                            x       y       z     vdW  Elec       q    Type
REMARK                         _______ _______ _______ _____ _____    ______ ____
ROOT
ATOM      1  C   UNL     1       4.598   4.931  -0.017  0.00  0.00    +0.229 C 
ATOM      2  O   UNL     1       5.706   4.439  -0.030  0.00  0.00    -0.275 OA
ATOM      3  N   UNL     1       4.455   6.272  -0.009  0.00  0.00    -0.264 N 
ATOM      4  C   UNL     1       5.579   7.090  -0.016  0.00  0.00    +0.165 A 
ATOM      5  N   UNL     1       6.846   6.738  -0.035  0.00  0.00    -0.233 NA
ATOM      6  C   UNL     1       7.806   7.644  -0.039  0.00  0.00    +0.124 A 
ATOM      7  C   UNL     1       7.425   8.945  -0.022  0.00  0.00    +0.015 A 
ATOM      8  S   UNL     1       5.648   8.771  -0.008  0.00  0.00    -0.057 S 
ATOM      9  H   UNL     1       3.569   6.665   0.002  0.00  0.00    +0.157 HD
ENDROOT
BRANCH   1  10
ATOM     10  C   UNL     1       3.379   4.044  -0.010  0.00  0.00    +0.170 C 
BRANCH  10  11
ATOM     11  S   UNL     1       3.897   2.306  -0.023  0.00  0.00    -0.114 S 
BRANCH  11  14
ATOM     12  C   UNL     1      -0.017   1.394   0.010  0.00  0.00    +0.014 A 
ATOM     13  C   UNL     1       1.168   2.095   0.002  0.00  0.00    +0.018 A 
ATOM     14  C   UNL     1       2.380   1.409  -0.013  0.00  0.00    +0.039 A 
ATOM     15  C   UNL     1       2.396   0.016  -0.021  0.00  0.00    +0.140 A 
ATOM     16  C   UNL     1       1.224  -0.684  -0.014  0.00  0.00    +0.047 A 
ATOM     17  C   UNL     1       0.002  -0.004   0.002  0.00  0.00    +0.039 A 
BRANCH  17  18
ATOM     18  C   UNL     1      -1.264  -0.760   0.011  0.00  0.00    +0.242 C 
ATOM     19  O   UNL     1      -1.246  -1.976   0.004  0.00  0.00    -0.270 OA
ATOM     20  N   UNL     1      -2.441  -0.104   0.026  0.00  0.00    -0.325 N 
ATOM     21  H   UNL     1      -2.455   0.866   0.031  0.00  0.00    +0.145 HD
ATOM     22  H   UNL     1      -3.274  -0.601   0.031  0.00  0.00    +0.145 HD
ENDBRANCH  17  18
BRANCH  15  23
ATOM     23  N   UNL     1       3.688  -0.707  -0.037  0.00  0.00    +0.058 N 
ATOM     24  O   UNL     1       3.704  -1.916  -0.044  0.00  0.00    -0.126 OA
ATOM     25  O   UNL     1       4.727  -0.089  -0.043  0.00  0.00    -0.126 OA
ENDBRANCH  15  23
ENDBRANCH  11  14
ENDBRANCH  10  11
ENDBRANCH   1  10
BRANCH   7  26
ATOM     26  C   UNL     1       8.269  10.194  -0.020  0.00  0.00    +0.080 C 
BRANCH  26  27
ATOM     27  C   UNL     1       8.532  10.624  -1.440  0.00  0.00    -0.023 A 
ATOM     28  C   UNL     1       9.694  10.230  -2.077  0.00  0.00    +0.025 A 
ATOM     29  C   UNL     1       9.936  10.625  -3.381  0.00  0.00    +0.041 A 
ATOM     30  C   UNL     1       9.015  11.414  -4.047  0.00  0.00    +0.021 A 
ATOM     31  C   UNL     1       7.854  11.808  -3.410  0.00  0.00    +0.022 A 
ATOM     32  C   UNL     1       7.609  11.408  -2.108  0.00  0.00    +0.045 A 
ATOM     33 CL   UNL     1       6.146  11.897  -1.310  0.00  0.00    -0.083 Cl
ATOM     34 CL   UNL     1      11.395  10.131  -4.181  0.00  0.00    -0.084 Cl
ENDBRANCH  26  27
ENDBRANCH   7  26
TORSDOF 7
