REMARK  Name = ZINC56720023
REMARK  3 active torsions:
REMARK  status: ('A' for Active; 'I' for Inactive)
REMARK    1  A    between atoms: C_3  and  N_11
REMARK    2  A    between atoms: N_14  and  C_15
REMARK    3  A    between atoms: C_15  and  C_16
REMARK                            x       y       z     vdW  Elec       q    Type
REMARK                         _______ _______ _______ _____ _____    ______ ____
ROOT
ATOM      1  N   UNL     1       3.587   2.137   0.005  0.00  0.00    -0.266 N 
ATOM      2  C   UNL     1       3.565   3.480  -0.101  0.00  0.00    +0.304 C 
ATOM      3  O   UNL     1       2.503   4.073  -0.095  0.00  0.00    -0.252 OA
ATOM      4  N   UNL     1       4.719   4.167  -0.213  0.00  0.00    -0.295 N 
ATOM      5  H   UNL     1       4.434   1.671   0.086  0.00  0.00    +0.156 HD
ATOM      6  H   UNL     1       5.566   3.694  -0.217  0.00  0.00    +0.151 HD
ENDROOT
BRANCH   1   9
ATOM      7  C   UNL     1       0.074   1.233  -0.612  0.00  0.00    +0.006 A 
ATOM      8  C   UNL     1       1.258   1.946  -0.606  0.00  0.00    +0.027 A 
ATOM      9  C   UNL     1       2.387   1.413  -0.001  0.00  0.00    +0.080 A 
ATOM     10  C   UNL     1       2.326   0.159   0.601  0.00  0.00    +0.183 A 
ATOM     11  C   UNL     1       1.135  -0.552   0.595  0.00  0.00    +0.164 A 
ATOM     12  C   UNL     1       0.010  -0.012  -0.015  0.00  0.00    +0.049 A 
ATOM     13  O   UNL     1       1.051  -1.776   1.184  0.00  0.00    -0.485 OA
ATOM     14  C   UNL     1       2.287  -2.446   1.456  0.00  0.00    +0.270 C 
ATOM     15  C   UNL     1       3.247  -1.439   2.103  0.00  0.00    +0.270 C 
ATOM     16  O   UNL     1       3.442  -0.355   1.189  0.00  0.00    -0.483 OA
ENDBRANCH   1   9
BRANCH   4  17
ATOM     17  C   UNL     1       4.695   5.627  -0.328  0.00  0.00    +0.142 C 
BRANCH  17  18
ATOM     18  C   UNL     1       6.106   6.146  -0.439  0.00  0.00    -0.014 A 
ATOM     19  C   UNL     1       6.824   6.477   0.703  0.00  0.00    +0.010 A 
ATOM     20  C   UNL     1       8.115   6.949   0.556  0.00  0.00    +0.042 A 
ATOM     21  C   UNL     1       8.648   7.076  -0.723  0.00  0.00    +0.099 A 
ATOM     22  N   UNL     1       7.932   6.750  -1.787  0.00  0.00    -0.349 N 
ATOM     23  C   UNL     1       6.699   6.291  -1.677  0.00  0.00    +0.089 A 
ATOM     24  N   UNL     1       9.945   7.550  -0.884  0.00  0.00    -0.317 N 
ATOM     25  C   UNL     1      10.751   7.779   0.294  0.00  0.00    +0.106 C 
ATOM     26  C   UNL     1      10.534   9.227   0.799  0.00  0.00    +0.019 C 
ATOM     27  C   UNL     1      11.164  10.188  -0.120  0.00  0.00    +0.002 C 
ATOM     28  C   UNL     1      10.577  10.187  -1.528  0.00  0.00    +0.002 C 
ATOM     29  C   UNL     1      11.244   9.110  -2.348  0.00  0.00    +0.019 C 
ATOM     30  C   UNL     1      10.444   7.793  -2.252  0.00  0.00    +0.106 C 
ATOM     31  H   UNL     1       8.323   6.847  -2.669  0.00  0.00    +0.167 HD
ENDBRANCH  17  18
ENDBRANCH   4  17
TORSDOF 3
