REMARK  Name = ZINC09969701
REMARK  7 active torsions:
REMARK  status: ('A' for Active; 'I' for Inactive)
REMARK    1  A    between atoms: C_4  and  C_7
REMARK    2  A    between atoms: C_7  and  N_60
REMARK    3  A    between atoms: C_8  and  C_14
REMARK    4  A    between atoms: C_8  and  N_60
REMARK    5  A    between atoms: N_18  and  C_19
REMARK    6  A    between atoms: C_19  and  C_21
REMARK    7  A    between atoms: C_19  and  C_28
REMARK                            x       y       z     vdW  Elec       q    Type
REMARK                         _______ _______ _______ _____ _____    ______ ____
ROOT
ATOM      1  C   UNL     1      -2.351   3.173  -2.067  0.00  0.00    +0.142 A 
ATOM      2  N   UNL     1      -2.073   4.142  -1.230  0.00  0.00    -0.115 NA
ATOM      3  N   UNL     1      -1.186   4.899  -1.777  0.00  0.00    -0.023 NA
ATOM      4  N   UNL     1      -0.886   4.435  -2.940  0.00  0.00    -0.043 NA
ATOM      5  N   UNL     1      -1.588   3.374  -3.158  0.00  0.00    -0.219 N 
ENDROOT
BRANCH   1   6
ATOM      6  C   UNL     1      -3.333   2.050  -1.851  0.00  0.00    -0.005 C 
ATOM      7  C   UNL     1      -2.592   0.712  -1.878  0.00  0.00    -0.005 C 
ATOM      8  C   UNL     1      -3.589  -0.427  -1.658  0.00  0.00    -0.001 C 
ATOM      9  C   UNL     1      -4.642  -0.405  -2.768  0.00  0.00    -0.000 C 
ATOM     10  C   UNL     1      -5.383   0.933  -2.742  0.00  0.00    -0.001 C 
ATOM     11  C   UNL     1      -4.386   2.073  -2.961  0.00  0.00    -0.005 C 
BRANCH   6  12
ATOM     12  N   UNL     1      -4.002   2.222  -0.547  0.00  0.00    +0.390 N 
ATOM     13  H   UNL     1      -4.410   3.163  -0.497  0.00  0.00    -0.084 HD
ATOM     14  H   UNL     1      -4.745   1.520  -0.453  0.00  0.00    -0.084 HD
BRANCH  12  15
ATOM     15  C   UNL     1      -3.032   2.054   0.551  0.00  0.00    -0.045 C 
BRANCH  15  19
ATOM     16  C   UNL     1      -5.101   2.232   4.284  0.00  0.00    +0.000 A 
ATOM     17  C   UNL     1      -4.841   1.008   3.696  0.00  0.00    +0.000 A 
ATOM     18  C   UNL     1      -4.171   0.951   2.488  0.00  0.00    +0.002 A 
ATOM     19  C   UNL     1      -3.762   2.116   1.868  0.00  0.00    -0.064 A 
ATOM     20  C   UNL     1      -4.018   3.340   2.459  0.00  0.00    +0.002 A 
ATOM     21  C   UNL     1      -4.691   3.398   3.665  0.00  0.00    +0.000 A 
ENDBRANCH  15  19
ENDBRANCH  12  15
ENDBRANCH   6  12
ENDBRANCH   1   6
BRANCH   5  22
ATOM     22  C   UNL     1      -1.555   2.542  -4.362  0.00  0.00    +0.172 C 
BRANCH  22  23
ATOM     23  C   UNL     1      -1.989   3.360  -5.551  0.00  0.00    -0.018 A 
ATOM     24  C   UNL     1      -1.385   4.577  -5.809  0.00  0.00    +0.007 A 
ATOM     25  C   UNL     1      -1.786   5.331  -6.896  0.00  0.00    +0.020 A 
ATOM     26  C   UNL     1      -2.793   4.868  -7.725  0.00  0.00    +0.041 A 
ATOM     27  C   UNL     1      -3.397   3.651  -7.465  0.00  0.00    +0.020 A 
ATOM     28  C   UNL     1      -2.995   2.898  -6.378  0.00  0.00    +0.007 A 
ATOM     29 CL   UNL     1      -3.298   5.815  -9.090  0.00  0.00    -0.084 Cl
ENDBRANCH  22  23
BRANCH  22  30
ATOM     30  C   UNL     1      -0.153   2.036  -4.586  0.00  0.00    -0.000 A 
ATOM     31  C   UNL     1       0.904   2.925  -4.626  0.00  0.00    +0.007 A 
ATOM     32  C   UNL     1       2.190   2.462  -4.830  0.00  0.00    +0.000 A 
ATOM     33  C   UNL     1       2.420   1.108  -4.995  0.00  0.00    +0.001 A 
ATOM     34  C   UNL     1       1.363   0.218  -4.956  0.00  0.00    +0.020 A 
ATOM     35  C   UNL     1       0.077   0.681  -4.745  0.00  0.00    +0.046 A 
ATOM     36 CL   UNL     1      -1.250  -0.437  -4.688  0.00  0.00    -0.083 Cl
ENDBRANCH  22  30
ENDBRANCH   5  22
TORSDOF 7
