REMARK  Name = ZINC09561983
REMARK  6 active torsions:
REMARK  status: ('A' for Active; 'I' for Inactive)
REMARK    1  A    between atoms: C_6  and  C_7
REMARK    2  A    between atoms: C_7  and  O_9
REMARK    3  A    between atoms: O_9  and  C_10
REMARK    4  A    between atoms: C_10  and  C_11
REMARK    5  A    between atoms: N_13  and  C_14
REMARK    6  A    between atoms: C_15  and  C_22
REMARK                            x       y       z     vdW  Elec       q    Type
REMARK                         _______ _______ _______ _____ _____    ______ ____
ROOT
ATOM      1  C   UNL     1       3.554   2.060  -0.021  0.00  0.00    +0.255 C 
ATOM      2  O   UNL     1       3.379   3.260  -0.013  0.00  0.00    -0.272 OA
ATOM      3  N   UNL     1       4.806   1.562  -0.035  0.00  0.00    -0.277 N 
ATOM      4  H   UNL     1       4.946   0.602  -0.042  0.00  0.00    +0.155 HD
ENDROOT
BRANCH   3   5
ATOM      5  C   UNL     1       5.894   2.421  -0.041  0.00  0.00    +0.084 A 
ATOM      6  C   UNL     1       7.241   2.104  -0.050  0.00  0.00    +0.068 A 
ATOM      7  C   UNL     1       8.198   3.210  -0.059  0.00  0.00    -0.023 A 
ATOM      8  C   UNL     1       7.651   4.439  -0.047  0.00  0.00    -0.004 A 
ATOM      9  S   UNL     1       5.898   4.152  -0.031  0.00  0.00    -0.077 S 
ATOM     10  C   UNL     1       8.695   5.522  -0.054  0.00  0.00    +0.043 C 
ATOM     11  C   UNL     1       9.989   4.811  -0.509  0.00  0.00    +0.010 C 
ATOM     12  C   UNL     1       9.720   3.358  -0.071  0.00  0.00    +0.037 C 
BRANCH   6  13
ATOM     13  C   UNL     1       7.693   0.709  -0.055  0.00  0.00    +0.244 C 
ATOM     14  O   UNL     1       7.874   0.131  -1.111  0.00  0.00    -0.270 OA
ATOM     15  N   UNL     1       7.907   0.066   1.110  0.00  0.00    -0.325 N 
ATOM     16  H   UNL     1       7.763   0.526   1.952  0.00  0.00    +0.145 HD
ATOM     17  H   UNL     1       8.206  -0.857   1.107  0.00  0.00    +0.145 HD
ENDBRANCH   6  13
ENDBRANCH   3   5
BRANCH   1  18
ATOM     18  C   UNL     1       2.371   1.126  -0.015  0.00  0.00    +0.328 C 
BRANCH  18  19
ATOM     19  O   UNL     1       1.143   1.900   0.001  0.00  0.00    -0.452 OA
BRANCH  19  20
ATOM     20  C   UNL     1      -0.014   1.211   0.009  0.00  0.00    +0.340 C 
ATOM     21  O   UNL     1       0.002  -0.004   0.002  0.00  0.00    -0.245 OA
BRANCH  20  27
ATOM     22  C   UNL     1      -1.326   3.328   0.032  0.00  0.00    +0.016 A 
ATOM     23  C   UNL     1      -2.533   3.995   0.036  0.00  0.00    +0.015 A 
ATOM     24  C   UNL     1      -3.720   3.284   0.038  0.00  0.00    +0.013 A 
ATOM     25  C   UNL     1      -3.705   1.899   0.030  0.00  0.00    +0.015 A 
ATOM     26  C   UNL     1      -2.505   1.220   0.021  0.00  0.00    +0.016 A 
ATOM     27  C   UNL     1      -1.303   1.932   0.019  0.00  0.00    +0.059 A 
ATOM     28  I   UNL     1      -5.549   4.306   0.052  0.00  0.00    -0.044 I 
ENDBRANCH  20  27
ENDBRANCH  19  20
ENDBRANCH  18  19
ENDBRANCH   1  18
TORSDOF 6
