REMARK  Name = ZINC13567259
REMARK  10 active torsions:
REMARK  status: ('A' for Active; 'I' for Inactive)
REMARK    1  A    between atoms: C_1  and  C_2
REMARK    2  A    between atoms: C_9  and  C_11
REMARK    3  A    between atoms: C_12  and  C_37
REMARK    4  A    between atoms: C_16  and  C_18
REMARK    5  A    between atoms: C_21  and  O_26
REMARK    6  A    between atoms: C_22  and  O_24
REMARK    7  A    between atoms: O_24  and  C_25
REMARK    8  A    between atoms: O_26  and  C_27
REMARK    9  A    between atoms: C_27  and  C_28
REMARK   10  A    between atoms: C_33  and  C_36
REMARK                            x       y       z     vdW  Elec       q    Type
REMARK                         _______ _______ _______ _____ _____    ______ ____
ROOT
ATOM      1  C   UNL     1       1.936  -2.680   1.205  0.00  0.00    +0.043 C 
ATOM      2  C   UNL     1       3.198  -3.134   1.147  0.00  0.00    +0.014 C 
ATOM      3  N   UNL     1       3.868  -3.165  -0.045  0.00  0.00    -0.321 N 
ATOM      4  C   UNL     1       3.183  -3.128  -1.230  0.00  0.00    +0.016 C 
ATOM      5  C   UNL     1       1.914  -2.670  -1.274  0.00  0.00    +0.024 C 
ATOM      6  C   UNL     1       1.226  -2.189  -0.022  0.00  0.00    +0.090 C 
ATOM      7  C   UNL     1       1.200  -2.626  -2.485  0.00  0.00    +0.162 C 
ATOM      8  O   UNL     1       0.055  -2.222  -2.487  0.00  0.00    -0.292 OA
ATOM      9  C   UNL     1       1.830  -3.070  -3.777  0.00  0.00    +0.083 C 
ATOM     10  C   UNL     1       3.345  -2.852  -3.693  0.00  0.00    -0.001 C 
ATOM     11  C   UNL     1       3.878  -3.614  -2.478  0.00  0.00    +0.055 C 
ATOM     12  C   UNL     1       4.011  -3.377  -4.967  0.00  0.00    +0.008 C 
ATOM     13  C   UNL     1       3.881  -3.611   2.402  0.00  0.00    +0.061 C 
ATOM     14  H   UNL     1       4.966  -3.220  -0.058  0.00  0.00    +0.152 HD
ENDROOT
BRANCH   1  23
ATOM     15  C   UNL     1      -2.747  -2.582   7.419  0.00  0.00    +0.045 C 
ATOM     16  C   UNL     1      -2.044  -2.471   6.090  0.00  0.00    -0.032 A 
ATOM     17  C   UNL     1      -2.728  -2.014   4.971  0.00  0.00    +0.008 A 
ATOM     18  C   UNL     1      -2.045  -1.926   3.771  0.00  0.00    +0.044 A 
ATOM     19  C   UNL     1      -0.705  -2.296   3.727  0.00  0.00    +0.125 A 
ATOM     20  N   UNL     1      -0.090  -2.731   4.815  0.00  0.00    -0.240 NA
ATOM     21  C   UNL     1      -0.714  -2.821   5.974  0.00  0.00    +0.116 A 
ATOM     22  N   UNL     1      -0.006  -2.212   2.525  0.00  0.00    -0.267 N 
ATOM     23  C   UNL     1       1.262  -2.665   2.450  0.00  0.00    +0.248 C 
ATOM     24  O   UNL     1       1.827  -3.061   3.454  0.00  0.00    -0.270 OA
ATOM     25  H   UNL     1      -0.488  -1.778   1.637  0.00  0.00    +0.157 HD
ENDBRANCH   1  23
BRANCH   6  26
ATOM     26  C   UNL     1       1.209  -0.682  -0.015  0.00  0.00    -0.032 A 
ATOM     27  C   UNL     1       2.400   0.021  -0.023  0.00  0.00    +0.008 A 
ATOM     28  C   UNL     1       2.390   1.403  -0.016  0.00  0.00    +0.050 A 
ATOM     29  C   UNL     1       1.185   2.088  -0.001  0.00  0.00    +0.163 A 
ATOM     30  C   UNL     1      -0.013   1.380   0.008  0.00  0.00    +0.162 A 
ATOM     31  C   UNL     1       0.004  -0.005   0.001  0.00  0.00    +0.054 A 
BRANCH  30  32
ATOM     32  O   UNL     1      -1.198   2.047   0.018  0.00  0.00    -0.491 OA
ATOM     33  C   UNL     1      -2.388   1.256   0.020  0.00  0.00    +0.277 C 
ENDBRANCH  30  32
BRANCH  29  34
ATOM     34  O   UNL     1       1.174   3.447   0.006  0.00  0.00    -0.476 OA
BRANCH  34  35
ATOM     35  C   UNL     1       2.442   4.107  -0.004  0.00  0.00    +0.317 C 
BRANCH  35  36
ATOM     36  C   UNL     1       2.237   5.564   0.005  0.00  0.00    -0.065 C 
ATOM     37  C   UNL     1       2.073   6.727   0.012  0.00  0.00    +0.007 C 
ENDBRANCH  35  36
ENDBRANCH  34  35
ENDBRANCH  29  34
ENDBRANCH   6  26
TORSDOF 6
