REMARK  Name = ZINC00909090
REMARK  11 active torsions:
REMARK  status: ('A' for Active; 'I' for Inactive)
REMARK    1  A    between atoms: C_1  and  C_2
REMARK    2  A    between atoms: C_2  and  O_3
REMARK    3  A    between atoms: O_3  and  C_4
REMARK    4  A    between atoms: C_6  and  C_11
REMARK    5  A    between atoms: C_9  and  O_10
REMARK    6  A    between atoms: C_13  and  C_25
REMARK    7  A    between atoms: C_15  and  C_20
REMARK    8  A    between atoms: C_15  and  O_24
REMARK    9  A    between atoms: C_25  and  C_27
REMARK   10  A    between atoms: C_30  and  O_33
REMARK   11  A    between atoms: O_33  and  C_34
REMARK                            x       y       z     vdW  Elec       q    Type
REMARK                         _______ _______ _______ _____ _____    ______ ____
ROOT
ATOM      1  C   UNL     1       0.651  -4.945  -0.015  0.00  0.00    +0.120 C 
ATOM      2  C   UNL     1       0.994  -5.370   1.417  0.00  0.00    +0.144 C 
ATOM      3  C   UNL     1       2.147  -6.379   1.363  0.00  0.00    +0.243 C 
ATOM      4  N   UNL     1       1.770  -7.493   0.492  0.00  0.00    -0.264 N 
ATOM      5  C   UNL     1       0.919  -7.321  -0.531  0.00  0.00    +0.302 C 
ATOM      6  O   UNL     1       0.648  -8.278  -1.231  0.00  0.00    -0.253 OA
ATOM      7  N   UNL     1       0.356  -6.136  -0.813  0.00  0.00    -0.292 N 
ATOM      8  H   UNL     1       2.143  -8.373   0.657  0.00  0.00    +0.153 HD
ATOM      9  H   UNL     1      -0.259  -6.067  -1.560  0.00  0.00    +0.151 HD
ENDROOT
BRANCH   1  12
ATOM     10  C   UNL     1      -1.494  -1.840   0.142  0.00  0.00    +0.162 A 
ATOM     11  C   UNL     1      -0.388  -2.673   0.125  0.00  0.00    +0.055 A 
ATOM     12  C   UNL     1      -0.554  -4.040   0.003  0.00  0.00    -0.023 A 
ATOM     13  C   UNL     1      -1.823  -4.579  -0.102  0.00  0.00    +0.009 A 
ATOM     14  C   UNL     1      -2.931  -3.753  -0.086  0.00  0.00    +0.049 A 
ATOM     15  C   UNL     1      -2.772  -2.382   0.042  0.00  0.00    +0.158 A 
BRANCH  15  16
ATOM     16  O   UNL     1      -3.862  -1.569   0.063  0.00  0.00    -0.503 OA
ATOM     17  H   UNL     1      -4.139  -1.260  -0.810  0.00  0.00    +0.292 HD
ENDBRANCH  15  16
BRANCH  10  18
ATOM     18  O   UNL     1      -1.333  -0.495   0.262  0.00  0.00    -0.489 OA
BRANCH  18  20
ATOM     19  C   UNL     1      -0.011   1.516   0.487  0.00  0.00    +0.048 C 
ATOM     20  C   UNL     1       0.007  -0.009   0.360  0.00  0.00    +0.226 C 
ENDBRANCH  18  20
ENDBRANCH  10  18
ENDBRANCH   1  12
BRANCH   3  21
ATOM     21  C   UNL     1       3.398  -5.696   0.809  0.00  0.00    +0.436 C 
ATOM     22  F   UNL     1       3.753  -4.627   1.639  0.00  0.00    -0.166 F 
ATOM     23  F   UNL     1       4.450  -6.618   0.760  0.00  0.00    -0.166 F 
ATOM     24  F   UNL     1       3.137  -5.219  -0.480  0.00  0.00    -0.166 F 
ENDBRANCH   3  21
BRANCH   3  25
ATOM     25  O   UNL     1       2.412  -6.870   2.679  0.00  0.00    -0.364 OA
ATOM     26  H   UNL     1       3.132  -7.515   2.720  0.00  0.00    +0.212 HD
ENDBRANCH   3  25
BRANCH   2  27
ATOM     27  C   UNL     1      -0.211  -6.007   2.058  0.00  0.00    +0.173 C 
ATOM     28  O   UNL     1      -0.966  -6.685   1.393  0.00  0.00    -0.292 OA
BRANCH  27  29
ATOM     29  C   UNL     1      -0.473  -5.808   3.490  0.00  0.00    +0.018 A 
ATOM     30  C   UNL     1       0.393  -5.021   4.259  0.00  0.00    +0.015 A 
ATOM     31  C   UNL     1       0.144  -4.838   5.595  0.00  0.00    +0.046 A 
ATOM     32  C   UNL     1      -0.967  -5.431   6.186  0.00  0.00    +0.120 A 
ATOM     33  C   UNL     1      -1.830  -6.214   5.426  0.00  0.00    +0.046 A 
ATOM     34  C   UNL     1      -1.593  -6.399   4.088  0.00  0.00    +0.015 A 
BRANCH  32  35
ATOM     35  O   UNL     1      -1.208  -5.247   7.508  0.00  0.00    -0.495 OA
ATOM     36  C   UNL     1      -2.366  -5.885   8.051  0.00  0.00    +0.277 C 
ENDBRANCH  32  35
ENDBRANCH  27  29
ENDBRANCH   2  27
TORSDOF 9
