REMARK  Name = ZINC12477487
REMARK  12 active torsions:
REMARK  status: ('A' for Active; 'I' for Inactive)
REMARK    1  A    between atoms: C_1  and  O_2
REMARK    2  A    between atoms: O_2  and  C_3
REMARK    3  A    between atoms: C_3  and  C_5
REMARK    4  A    between atoms: C_8  and  C_11
REMARK    5  A    between atoms: C_11  and  C_13
REMARK    6  A    between atoms: C_11  and  N_22
REMARK    7  A    between atoms: N_15  and  C_16
REMARK    8  A    between atoms: N_22  and  C_23
REMARK    9  A    between atoms: C_23  and  C_24
REMARK   10  A    between atoms: C_24  and  N_76
REMARK   11  A    between atoms: C_30  and  C_32
REMARK   12  A    between atoms: C_32  and  C_33
REMARK                            x       y       z     vdW  Elec       q    Type
REMARK                         _______ _______ _______ _____ _____    ______ ____
ROOT
ATOM      1  C   UNL     1      -5.033   4.018   0.045  0.00  0.00    +0.192 C 
ENDROOT
BRANCH   1   5
ATOM      2  C   UNL     1      -1.310   1.915  -0.022  0.00  0.00    +0.059 A 
ATOM      3  C   UNL     1      -2.036   2.092  -1.201  0.00  0.00    +0.015 A 
ATOM      4  C   UNL     1      -3.240   2.767  -1.171  0.00  0.00    +0.007 A 
ATOM      5  C   UNL     1      -3.721   3.277   0.021  0.00  0.00    -0.018 A 
ATOM      6  C   UNL     1      -3.003   3.110   1.192  0.00  0.00    +0.007 A 
ATOM      7  C   UNL     1      -1.802   2.433   1.178  0.00  0.00    +0.015 A 
BRANCH   2   8
ATOM      8  C   UNL     1      -0.024   1.189  -0.045  0.00  0.00    +0.339 C 
ATOM      9  O   UNL     1       0.608   1.040   0.982  0.00  0.00    -0.245 OA
BRANCH   8  11
ATOM     10  C   UNL     1       1.712  -0.021  -1.150  0.00  0.00    +0.280 C 
ATOM     11  O   UNL     1       0.445   0.686  -1.204  0.00  0.00    -0.464 OA
ENDBRANCH   8  11
ENDBRANCH   2   8
ENDBRANCH   1   5
BRANCH   1  12
ATOM     12  C   UNL     1      -5.391   4.361   1.468  0.00  0.00    +0.238 C 
ATOM     13  O   UNL     1      -5.532   5.520   1.795  0.00  0.00    -0.273 OA
ATOM     14  N   UNL     1      -5.555   3.379   2.377  0.00  0.00    -0.311 N 
ATOM     15  H   UNL     1      -5.442   2.452   2.115  0.00  0.00    +0.149 HD
BRANCH  14  16
ATOM     16  C   UNL     1      -5.903   3.712   3.760  0.00  0.00    +0.073 C 
ATOM     17  C   UNL     1      -4.627   4.026   4.545  0.00  0.00    +0.022 C 
ATOM     18  C   UNL     1      -4.991   4.374   5.990  0.00  0.00    +0.002 C 
ATOM     19  C   UNL     1      -5.708   3.187   6.636  0.00  0.00    +0.000 C 
ATOM     20  C   UNL     1      -6.983   2.873   5.851  0.00  0.00    +0.002 C 
ATOM     21  C   UNL     1      -6.620   2.525   4.406  0.00  0.00    +0.022 C 
ENDBRANCH  14  16
ENDBRANCH   1  12
BRANCH   1  22
ATOM     22  N   UNL     1      -4.913   5.249  -0.739  0.00  0.00    -0.287 N 
ATOM     23  C   UNL     1      -3.946   6.142  -0.448  0.00  0.00    +0.221 C 
ATOM     24  O   UNL     1      -3.122   5.886   0.405  0.00  0.00    -0.275 OA
BRANCH  22  25
ATOM     25  C   UNL     1      -5.844   5.511  -1.839  0.00  0.00    +0.090 C 
BRANCH  25  26
ATOM     26  C   UNL     1      -7.061   6.272  -1.308  0.00  0.00    -0.060 C 
BRANCH  26  32
ATOM     27  C   UNL     1      -7.403   7.453  -3.393  0.00  0.00    -0.079 C 
ATOM     28  C   UNL     1      -8.341   7.588  -4.595  0.00  0.00    -0.019 C 
ATOM     29  C   UNL     1      -9.696   8.121  -4.122  0.00  0.00    -0.004 C 
ATOM     30  C   UNL     1     -10.267   7.172  -3.065  0.00  0.00    -0.019 C 
ATOM     31  C   UNL     1      -9.274   7.048  -1.907  0.00  0.00    -0.079 C 
ATOM     32  N   UNL     1      -7.999   6.508  -2.425  0.00  0.00    +0.381 N 
ATOM     33  H   UNL     1      -8.183   5.616  -2.900  0.00  0.00    -0.082 HD
ENDBRANCH  26  32
ENDBRANCH  25  26
ENDBRANCH  22  25
BRANCH  23  34
ATOM     34  C   UNL     1      -3.889   7.457  -1.181  0.00  0.00    +0.138 C 
BRANCH  34  35
ATOM     35  C   UNL     1      -2.723   8.266  -0.671  0.00  0.00    -0.001 A 
ATOM     36  C   UNL     1      -1.441   8.285  -1.110  0.00  0.00    +0.011 A 
ATOM     37  C   UNL     1      -0.532   9.119  -0.486  0.00  0.00    +0.008 A 
ATOM     38  C   UNL     1      -0.947   9.884   0.553  0.00  0.00    +0.045 A 
ATOM     39  S   UNL     1      -2.672   9.441   0.672  0.00  0.00    -0.101 S 
ENDBRANCH  34  35
ENDBRANCH  23  34
ENDBRANCH   1  22
TORSDOF 11
