REMARK  Name = ZINC22184648
REMARK  7 active torsions:
REMARK  status: ('A' for Active; 'I' for Inactive)
REMARK    1  A    between atoms: C_3  and  C_10
REMARK    2  A    between atoms: C_5  and  N_7
REMARK    3  A    between atoms: C_11  and  C_12
REMARK    4  A    between atoms: C_11  and  N_21
REMARK    5  A    between atoms: N_14  and  C_15
REMARK    6  A    between atoms: C_15  and  C_16
REMARK    7  A    between atoms: C_22  and  C_24
REMARK                            x       y       z     vdW  Elec       q    Type
REMARK                         _______ _______ _______ _____ _____    ______ ____
ROOT
ATOM      1  C   UNL     1       0.108   5.359   0.024  0.00  0.00    +0.036 C 
ATOM      2  C   UNL     1      -1.155   5.839  -0.039  0.00  0.00    +0.097 C 
ENDROOT
BRANCH   1   5
ATOM      3  C   UNL     1      -0.276   1.776  -1.012  0.00  0.00    +0.003 A 
ATOM      4  C   UNL     1      -0.517   3.127  -0.876  0.00  0.00    +0.008 A 
ATOM      5  C   UNL     1       0.355   3.917  -0.121  0.00  0.00    -0.021 A 
ATOM      6  C   UNL     1       1.465   3.328   0.494  0.00  0.00    +0.040 A 
ATOM      7  C   UNL     1       1.690   1.975   0.353  0.00  0.00    +0.127 A 
ATOM      8  C   UNL     1       0.821   1.200  -0.396  0.00  0.00    +0.033 A 
BRANCH   7   9
ATOM      9  N   UNL     1       2.864   1.350   1.003  0.00  0.00    +0.056 N 
ATOM     10  O   UNL     1       3.064   0.155   0.879  0.00  0.00    -0.126 OA
ATOM     11  O   UNL     1       3.629   2.031   1.662  0.00  0.00    -0.126 OA
ENDBRANCH   7   9
ENDBRANCH   1   5
BRANCH   2  12
ATOM     12  C   UNL     1      -2.294   4.910  -0.058  0.00  0.00    +0.259 C 
ATOM     13  O   UNL     1      -3.076   4.925  -0.990  0.00  0.00    -0.269 OA
ATOM     14  N   UNL     1      -2.472   4.040   0.956  0.00  0.00    -0.303 N 
ATOM     15  H   UNL     1      -1.814   4.081   1.837  0.00  0.00    +0.149 HD
BRANCH  14  16
ATOM     16  C   UNL     1      -3.542   3.042   0.886  0.00  0.00    +0.179 C 
BRANCH  16  17
ATOM     17  C   UNL     1      -3.605   2.282   2.186  0.00  0.00    +0.122 A 
ATOM     18  C   UNL     1      -4.416   2.561   3.222  0.00  0.00    +0.046 A 
ATOM     19  C   UNL     1      -4.145   1.602   4.225  0.00  0.00    +0.041 A 
ATOM     20  C   UNL     1      -3.185   0.794   3.741  0.00  0.00    +0.195 A 
ATOM     21  O   UNL     1      -2.866   1.206   2.504  0.00  0.00    -0.466 OA
ENDBRANCH  16  17
ENDBRANCH  14  16
ENDBRANCH   2  12
BRANCH   2  22
ATOM     22  N   UNL     1      -1.378   7.218  -0.086  0.00  0.00    -0.277 N 
ATOM     23  C   UNL     1      -2.634   7.701  -0.016  0.00  0.00    +0.248 C 
ATOM     24  O   UNL     1      -3.567   6.944   0.171  0.00  0.00    -0.270 OA
ATOM     25  H   UNL     1      -0.527   7.910  -0.179  0.00  0.00    +0.155 HD
BRANCH  23  26
ATOM     26  C   UNL     1      -2.878   9.150  -0.168  0.00  0.00    +0.037 A 
ATOM     27  C   UNL     1      -1.809  10.023  -0.377  0.00  0.00    +0.014 A 
ATOM     28  C   UNL     1      -2.044  11.374  -0.523  0.00  0.00    +0.016 A 
ATOM     29  C   UNL     1      -3.336  11.867  -0.451  0.00  0.00    +0.018 A 
ATOM     30  C   UNL     1      -4.400  11.007  -0.238  0.00  0.00    +0.016 A 
ATOM     31  C   UNL     1      -4.179   9.653  -0.096  0.00  0.00    +0.014 A 
ATOM     32 BR   UNL     1      -3.648  13.722  -0.644  0.00  0.00    -0.050 Br
ENDBRANCH  23  26
ENDBRANCH   2  22
TORSDOF 7
