REMARK  Name = ZINC08854674
REMARK  6 active torsions:
REMARK  status: ('A' for Active; 'I' for Inactive)
REMARK    1  A    between atoms: C_6  and  N_7
REMARK    2  A    between atoms: C_8  and  C_10
REMARK    3  A    between atoms: C_10  and  S_11
REMARK    4  A    between atoms: S_11  and  C_12
REMARK    5  A    between atoms: C_18  and  C_20
REMARK    6  A    between atoms: C_20  and  N_47
REMARK                            x       y       z     vdW  Elec       q    Type
REMARK                         _______ _______ _______ _____ _____    ______ ____
ROOT
ATOM      1  C   UNL     1       0.038   1.032  -2.809  0.00  0.00    +0.160 A 
ATOM      2  N   UNL     1       1.125   0.274  -2.807  0.00  0.00    -0.133 NA
ATOM      3  N   UNL     1       1.671  -0.112  -3.876  0.00  0.00    -0.125 NA
ATOM      4  C   UNL     1       1.195   0.217  -5.065  0.00  0.00    +0.188 A 
ATOM      5  S   UNL     1      -0.221   1.197  -4.573  0.00  0.00    -0.024 S 
ATOM      6  N   UNL     1       1.658  -0.110  -6.337  0.00  0.00    -0.265 N 
ATOM      7  C   UNL     1       2.757  -0.877  -6.477  0.00  0.00    +0.202 C 
ATOM      8  O   UNL     1       3.343  -1.282  -5.495  0.00  0.00    -0.277 OA
ATOM      9  H   UNL     1       1.189   0.214  -7.122  0.00  0.00    +0.157 HD
ENDROOT
BRANCH   1  10
ATOM     10  S   UNL     1      -0.891   1.685  -1.462  0.00  0.00    -0.088 S 
BRANCH  10  11
ATOM     11  C   UNL     1      -0.016   1.080   0.008  0.00  0.00    +0.172 C 
BRANCH  11  13
ATOM     12  N   UNL     1      -0.242   1.246   2.466  0.00  0.00    -0.285 N 
ATOM     13  C   UNL     1      -0.717   1.573   1.248  0.00  0.00    +0.227 C 
ATOM     14  O   UNL     1      -1.709   2.265   1.150  0.00  0.00    -0.275 OA
ATOM     15  H   UNL     1       0.511   0.639   2.546  0.00  0.00    +0.155 HD
BRANCH  12  21
ATOM     16  C   UNL     1      -0.052   2.086   4.723  0.00  0.00    +0.024 A 
ATOM     17  C   UNL     1      -0.638   2.621   5.853  0.00  0.00    +0.017 A 
ATOM     18  C   UNL     1      -2.003   2.842   5.888  0.00  0.00    +0.018 A 
ATOM     19  C   UNL     1      -2.785   2.535   4.788  0.00  0.00    +0.017 A 
ATOM     20  C   UNL     1      -2.204   2.006   3.652  0.00  0.00    +0.024 A 
ATOM     21  C   UNL     1      -0.833   1.782   3.615  0.00  0.00    +0.033 A 
ATOM     22 BR   UNL     1      -2.803   3.567   7.440  0.00  0.00    -0.050 Br
ENDBRANCH  12  21
ENDBRANCH  11  13
ENDBRANCH  10  11
ENDBRANCH   1  10
BRANCH   7  23
ATOM     23  C   UNL     1       3.258  -1.232  -7.854  0.00  0.00    +0.019 C 
BRANCH  23  29
ATOM     24  C   UNL     1       5.569  -1.317  -7.138  0.00  0.00    -0.078 C 
ATOM     25  C   UNL     1       6.754  -2.256  -6.898  0.00  0.00    -0.019 C 
ATOM     26  C   UNL     1       7.190  -2.870  -8.231  0.00  0.00    -0.004 C 
ATOM     27  C   UNL     1       6.002  -3.607  -8.857  0.00  0.00    -0.019 C 
ATOM     28  C   UNL     1       4.840  -2.629  -9.040  0.00  0.00    -0.078 C 
ATOM     29  N   UNL     1       4.452  -2.091  -7.718  0.00  0.00    +0.385 N 
ATOM     30  H   UNL     1       4.230  -2.874  -7.092  0.00  0.00    -0.081 HD
ENDBRANCH  23  29
ENDBRANCH   7  23
TORSDOF 6
