REMARK  Name = ZINC06658634
REMARK  9 active torsions:
REMARK  status: ('A' for Active; 'I' for Inactive)
REMARK    1  A    between atoms: C_1  and  C_2
REMARK    2  A    between atoms: C_6  and  O_8
REMARK    3  A    between atoms: O_8  and  C_9
REMARK    4  A    between atoms: C_9  and  C_10
REMARK    5  A    between atoms: N_12  and  C_13
REMARK    6  A    between atoms: C_15  and  C_20
REMARK    7  A    between atoms: C_15  and  C_21
REMARK    8  A    between atoms: C_16  and  C_18
REMARK    9  A    between atoms: C_16  and  C_19
REMARK                            x       y       z     vdW  Elec       q    Type
REMARK                         _______ _______ _______ _____ _____    ______ ____
ROOT
ATOM      1  O   UNL     1      -3.437   4.735   1.457  0.00  0.00    -0.482 OA
ENDROOT
BRANCH   1   7
ATOM      2  C   UNL     1      -3.947   4.106   6.267  0.00  0.00    +0.044 C 
ATOM      3  C   UNL     1      -3.328   3.712   4.950  0.00  0.00    -0.043 A 
ATOM      4  C   UNL     1      -2.432   2.662   4.905  0.00  0.00    +0.050 A 
ATOM      5  C   UNL     1      -1.857   2.291   3.698  0.00  0.00    +0.143 A 
ATOM      6  C   UNL     1      -2.192   2.990   2.528  0.00  0.00    +0.063 A 
ATOM      7  C   UNL     1      -3.107   4.055   2.584  0.00  0.00    +0.132 A 
ATOM      8  C   UNL     1      -3.666   4.405   3.800  0.00  0.00    +0.050 A 
ATOM      9  C   UNL     1      -1.583   2.593   1.253  0.00  0.00    -0.023 A 
ATOM     10  C   UNL     1      -0.706   1.566   1.256  0.00  0.00    +0.041 A 
ATOM     11  C   UNL     1      -0.416   0.904   2.475  0.00  0.00    +0.341 A 
ATOM     12  O   UNL     1       0.371  -0.026   2.467  0.00  0.00    -0.245 OA
ATOM     13  O   UNL     1      -0.979   1.268   3.634  0.00  0.00    -0.422 OA
ATOM     14  C   UNL     1      -0.013   1.086   0.008  0.00  0.00    +0.042 C 
ATOM     15  C   UNL     1      -0.740   1.586  -1.238  0.00  0.00    +0.005 C 
ATOM     16  C   UNL     1      -0.946   3.100  -1.103  0.00  0.00    +0.005 C 
ATOM     17  C   UNL     1      -1.964   3.346   0.010  0.00  0.00    +0.036 C 
ENDBRANCH   1   7
BRANCH   1  18
ATOM     18  C   UNL     1      -4.372   5.806   1.597  0.00  0.00    +0.324 C 
BRANCH  18  19
ATOM     19  C   UNL     1      -4.615   6.439   0.251  0.00  0.00    +0.251 C 
ATOM     20  O   UNL     1      -4.044   6.014  -0.731  0.00  0.00    -0.272 OA
ATOM     21  N   UNL     1      -5.468   7.477   0.138  0.00  0.00    -0.310 N 
ATOM     22  H   UNL     1      -5.925   7.816   0.923  0.00  0.00    +0.149 HD
BRANCH  21  23
ATOM     23  C   UNL     1      -5.705   8.093  -1.173  0.00  0.00    +0.070 C 
ATOM     24  C   UNL     1      -4.644   9.164  -1.425  0.00  0.00    +0.009 C 
ATOM     25  C   UNL     1      -4.879   9.839  -2.774  0.00  0.00    -0.072 C 
ATOM     26  C   UNL     1      -7.344   9.431  -2.521  0.00  0.00    -0.072 C 
ATOM     27  C   UNL     1      -7.079   8.762  -1.174  0.00  0.00    +0.009 C 
ATOM     28  C   UNL     1      -7.676   8.361  -3.568  0.00  0.00    -0.010 C 
ATOM     29  C   UNL     1      -8.598  10.318  -2.361  0.00  0.00    -0.010 C 
ATOM     30  C   UNL     1      -4.437   8.899  -3.902  0.00  0.00    -0.010 C 
ATOM     31  C   UNL     1      -3.969  11.086  -2.835  0.00  0.00    -0.010 C 
ATOM     32  N   UNL     1      -6.263  10.338  -2.993  0.00  0.00    +0.386 N 
ATOM     33  H   UNL     1      -6.392  10.488  -4.000  0.00  0.00    -0.084 HD
ATOM     34  H   UNL     1      -6.361  11.232  -2.498  0.00  0.00    -0.084 HD
ENDBRANCH  21  23
ENDBRANCH  18  19
ENDBRANCH   1  18
TORSDOF 4
