REMARK  Name = ZINC09487709
REMARK  6 active torsions:
REMARK  status: ('A' for Active; 'I' for Inactive)
REMARK    1  A    between atoms: C_4  and  C_7
REMARK    2  A    between atoms: C_9  and  C_13
REMARK    3  A    between atoms: C_16  and  S_19
REMARK    4  A    between atoms: N_17  and  N_18
REMARK    5  A    between atoms: S_19  and  C_20
REMARK    6  A    between atoms: C_20  and  C_21
REMARK                            x       y       z     vdW  Elec       q    Type
REMARK                         _______ _______ _______ _____ _____    ______ ____
ROOT
ATOM      1  C   UNL     1       5.878  -3.637  -0.085  0.00  0.00    +0.202 A 
ATOM      2  N   UNL     1       5.255  -4.792  -0.096  0.00  0.00    -0.125 NA
ATOM      3  N   UNL     1       6.110  -5.752  -0.111  0.00  0.00    -0.120 NA
ATOM      4  C   UNL     1       7.332  -5.267  -0.110  0.00  0.00    +0.209 A 
ATOM      5  N   UNL     1       7.227  -3.905  -0.099  0.00  0.00    -0.222 N 
ENDROOT
BRANCH   1   8
ATOM      6  C   UNL     1       3.696  -0.686  -0.038  0.00  0.00    +0.066 A 
ATOM      7  C   UNL     1       3.865  -2.039  -0.053  0.00  0.00    +0.061 A 
ATOM      8  C   UNL     1       5.248  -2.299  -0.067  0.00  0.00    +0.132 A 
ATOM      9  N   UNL     1       5.885  -1.145  -0.061  0.00  0.00    -0.170 NA
ATOM     10  N   UNL     1       4.935  -0.116  -0.048  0.00  0.00    -0.276 N 
ATOM     11  H   UNL     1       5.125   0.836  -0.045  0.00  0.00    +0.189 HD
BRANCH   6  15
ATOM     12  C   UNL     1      -0.017   1.379   0.010  0.00  0.00    +0.000 A 
ATOM     13  C   UNL     1       1.168   2.093   0.002  0.00  0.00    +0.001 A 
ATOM     14  C   UNL     1       2.377   1.428  -0.013  0.00  0.00    +0.010 A 
ATOM     15  C   UNL     1       2.403   0.033  -0.021  0.00  0.00    -0.000 A 
ATOM     16  C   UNL     1       1.205  -0.680  -0.013  0.00  0.00    +0.010 A 
ATOM     17  C   UNL     1       0.002  -0.004   0.002  0.00  0.00    +0.001 A 
ENDBRANCH   6  15
ENDBRANCH   1   8
BRANCH   5  18
ATOM     18  N   UNL     1       8.249  -2.999  -0.099  0.00  0.00    -0.295 N 
ATOM     19  H   UNL     1       8.527  -2.768   0.844  0.00  0.00    +0.163 HD
ATOM     20  H   UNL     1       9.033  -3.338  -0.635  0.00  0.00    +0.163 HD
ENDBRANCH   5  18
BRANCH   4  21
ATOM     21  S   UNL     1       8.826  -6.201  -0.128  0.00  0.00    -0.080 S 
BRANCH  21  22
ATOM     22  C   UNL     1       8.266  -7.926  -0.146  0.00  0.00    +0.112 C 
BRANCH  22  23
ATOM     23  C   UNL     1       9.462  -8.842  -0.163  0.00  0.00    -0.037 A 
ATOM     24  C   UNL     1      10.009  -9.243  -1.367  0.00  0.00    +0.005 A 
ATOM     25  C   UNL     1      11.107 -10.083  -1.382  0.00  0.00    +0.015 A 
ATOM     26  C   UNL     1      11.658 -10.523  -0.192  0.00  0.00    +0.018 A 
ATOM     27  C   UNL     1      11.110 -10.121   1.013  0.00  0.00    +0.015 A 
ATOM     28  C   UNL     1      10.015  -9.277   1.027  0.00  0.00    +0.005 A 
ATOM     29 BR   UNL     1      13.159 -11.673  -0.212  0.00  0.00    -0.050 Br
ENDBRANCH  22  23
ENDBRANCH  21  22
ENDBRANCH   4  21
TORSDOF 6
