REMARK  Name = ZINC60353947
REMARK  11 active torsions:
REMARK  status: ('A' for Active; 'I' for Inactive)
REMARK    1  A    between atoms: C_1  and  C_2
REMARK    2  A    between atoms: C_6  and  C_28
REMARK    3  A    between atoms: C_7  and  O_8
REMARK    4  A    between atoms: O_8  and  C_9
REMARK    5  A    between atoms: C_9  and  C_11
REMARK    6  A    between atoms: C_9  and  C_12
REMARK    7  A    between atoms: N_14  and  N_15
REMARK    8  A    between atoms: C_16  and  C_18
REMARK    9  A    between atoms: C_19  and  C_27
REMARK   10  A    between atoms: C_21  and  S_23
REMARK   11  A    between atoms: S_23  and  N_26
REMARK                            x       y       z     vdW  Elec       q    Type
REMARK                         _______ _______ _______ _____ _____    ______ ____
ROOT
ATOM      1  C   UNL     1      -1.049  -0.086   4.005  0.00  0.00    +0.270 C 
ATOM      2  O   UNL     1       0.035  -0.221   4.532  0.00  0.00    -0.270 OA
ATOM      3  N   UNL     1      -2.166  -0.066   4.759  0.00  0.00    -0.231 N 
ATOM      4  H   UNL     1      -3.033   0.042   4.338  0.00  0.00    +0.173 HD
ENDROOT
BRANCH   3   5
ATOM      5  N   UNL     1      -2.075  -0.200   6.151  0.00  0.00    -0.230 N 
ATOM      6  C   UNL     1      -3.192  -0.180   6.904  0.00  0.00    +0.267 C 
ATOM      7  O   UNL     1      -4.280  -0.044   6.376  0.00  0.00    -0.268 OA
ATOM      8  H   UNL     1      -1.208  -0.308   6.572  0.00  0.00    +0.173 HD
BRANCH   6   9
ATOM      9  C   UNL     1      -3.097  -0.321   8.360  0.00  0.00    +0.080 A 
ATOM     10  C   UNL     1      -4.111  -0.332   9.305  0.00  0.00    -0.029 A 
ATOM     11  C   UNL     1      -3.709  -0.482  10.611  0.00  0.00    +0.040 A 
ATOM     12  C   UNL     1      -2.387  -0.606  10.883  0.00  0.00    +0.143 A 
ATOM     13  S   UNL     1      -1.647  -0.530   9.376  0.00  0.00    -0.064 S 
ATOM     14  C   UNL     1      -5.563  -0.188   8.925  0.00  0.00    +0.045 C 
BRANCH  12  15
ATOM     15  S   UNL     1      -1.619  -0.807  12.456  0.00  0.00    +0.062 S 
ATOM     16  O   UNL     1      -0.284  -0.340  12.320  0.00  0.00    -0.153 OA
ATOM     17  O   UNL     1      -2.519  -0.273  13.418  0.00  0.00    -0.153 OA
BRANCH  15  18
ATOM     18  N   UNL     1      -1.524  -2.434  12.750  0.00  0.00    -0.203 NA
ATOM     19  H   UNL     1      -1.864  -3.065  12.097  0.00  0.00    +0.144 HD
ATOM     20  H   UNL     1      -1.128  -2.755  13.575  0.00  0.00    +0.144 HD
ENDBRANCH  15  18
ENDBRANCH  12  15
ENDBRANCH   6   9
ENDBRANCH   3   5
BRANCH   1  21
ATOM     21  C   UNL     1      -1.147   0.059   2.509  0.00  0.00    +0.257 C 
ATOM     22  C   UNL     1      -1.683   1.450   2.165  0.00  0.00    +0.062 C 
BRANCH  21  23
ATOM     23  O   UNL     1       0.148  -0.110   1.928  0.00  0.00    -0.479 OA
BRANCH  23  30
ATOM     24  C   UNL     1       0.141  -2.934   1.892  0.00  0.00    +0.047 C 
ATOM     25  C   UNL     1       0.205  -2.106   0.635  0.00  0.00    -0.007 A 
ATOM     26  C   UNL     1       0.257  -2.725  -0.599  0.00  0.00    +0.027 A 
ATOM     27  C   UNL     1       0.316  -1.965  -1.754  0.00  0.00    +0.042 A 
ATOM     28  C   UNL     1       0.323  -0.584  -1.675  0.00  0.00    +0.027 A 
ATOM     29  C   UNL     1       0.270   0.039  -0.443  0.00  0.00    -0.007 A 
ATOM     30  C   UNL     1       0.205  -0.721   0.715  0.00  0.00    +0.127 A 
ATOM     31  C   UNL     1       0.278   1.544  -0.358  0.00  0.00    +0.047 C 
ATOM     32 CL   UNL     1       0.383  -2.746  -3.303  0.00  0.00    -0.084 Cl
ENDBRANCH  23  30
ENDBRANCH  21  23
ENDBRANCH   1  21
TORSDOF 7
