REMARK  Name = ZINC36367380
REMARK  12 active torsions:
REMARK  status: ('A' for Active; 'I' for Inactive)
REMARK    1  A    between atoms: C_1  and  C_2
REMARK    2  A    between atoms: C_2  and  C_3
REMARK    3  A    between atoms: C_2  and  C_4
REMARK    4  A    between atoms: C_11  and  C_41
REMARK    5  A    between atoms: C_19  and  C_20
REMARK    6  A    between atoms: C_19  and  C_21
REMARK    7  A    between atoms: N_23  and  C_24
REMARK    8  A    between atoms: C_24  and  C_26
REMARK    9  A    between atoms: C_24  and  C_37
REMARK   10  A    between atoms: C_26  and  C_27
REMARK   11  A    between atoms: C_37  and  O_39
REMARK   12  A    between atoms: O_39  and  C_40
REMARK                            x       y       z     vdW  Elec       q    Type
REMARK                         _______ _______ _______ _____ _____    ______ ____
ROOT
ATOM      1  C   UNL     1       2.459  -4.467   3.039  0.00  0.00    +0.220 C 
ATOM      2  O   UNL     1       1.942  -3.526   2.474  0.00  0.00    -0.275 OA
ATOM      3  N   UNL     1       2.540  -5.662   2.422  0.00  0.00    -0.302 N 
ATOM      4  H   UNL     1       2.953  -6.414   2.873  0.00  0.00    +0.150 HD
ENDROOT
BRANCH   1  18
ATOM      5  C   UNL     1       0.678  -0.516   1.245  0.00  0.00    -0.067 C 
ATOM      6  C   UNL     1       0.026  -1.300   2.087  0.00  0.00    +0.003 C 
ATOM      7  C   UNL     1       0.712  -1.810   3.297  0.00  0.00    -0.048 C 
ATOM      8  C   UNL     1       0.171  -2.788   3.992  0.00  0.00    -0.023 C 
ATOM      9  C   UNL     1       0.812  -3.336   5.233  0.00  0.00    +0.032 C 
ATOM     10  C   UNL     1       2.330  -3.183   5.197  0.00  0.00    +0.014 C 
ATOM     11  C   UNL     1       2.740  -1.774   4.826  0.00  0.00    -0.021 C 
ATOM     12  C   UNL     1       2.017  -1.166   3.658  0.00  0.00    +0.025 C 
ATOM     13  C   UNL     1       2.849  -1.022   2.388  0.00  0.00    +0.013 C 
ATOM     14  C   UNL     1       2.103  -0.090   1.424  0.00  0.00    +0.031 C 
ATOM     15  C   UNL     1       4.255  -1.632   4.686  0.00  0.00    +0.007 C 
ATOM     16  C   UNL     1       4.834  -2.707   3.773  0.00  0.00    +0.002 C 
ATOM     17  C   UNL     1       4.523  -4.083   4.356  0.00  0.00    +0.016 C 
ATOM     18  C   UNL     1       3.009  -4.300   4.429  0.00  0.00    +0.048 C 
ATOM     19  C   UNL     1       2.788  -5.629   5.184  0.00  0.00    +0.021 C 
ATOM     20  C   UNL     1       2.368  -0.887   6.047  0.00  0.00    +0.012 C 
BRANCH   5  22
ATOM     21  C   UNL     1      -0.099   1.509   0.044  0.00  0.00    +0.012 C 
ATOM     22  C   UNL     1      -0.059  -0.020   0.028  0.00  0.00    +0.009 C 
ATOM     23  C   UNL     1       0.661  -0.498  -1.234  0.00  0.00    +0.012 C 
ENDBRANCH   5  22
ENDBRANCH   1  18
BRANCH   3  24
ATOM     24  C   UNL     1       2.005  -5.825   1.068  0.00  0.00    +0.186 C 
BRANCH  24  25
ATOM     25  C   UNL     1       0.530  -6.127   1.144  0.00  0.00    +0.328 C 
ATOM     26  O   UNL     1      -0.017  -6.198   2.219  0.00  0.00    -0.249 OA
BRANCH  25  27
ATOM     27  O   UNL     1      -0.175  -6.316   0.018  0.00  0.00    -0.467 OA
ATOM     28  C   UNL     1      -1.568  -6.598   0.164  0.00  0.00    +0.280 C 
ENDBRANCH  25  27
ENDBRANCH  24  25
BRANCH  24  29
ATOM     29  C   UNL     1       2.726  -6.979   0.369  0.00  0.00    +0.071 C 
BRANCH  29  30
ATOM     30  C   UNL     1       4.179  -6.624   0.183  0.00  0.00    -0.020 A 
ATOM     31  C   UNL     1       4.734  -6.079  -0.910  0.00  0.00    +0.087 A 
ATOM     32  N   UNL     1       6.076  -5.899  -0.713  0.00  0.00    -0.360 N 
ATOM     33  H   UNL     1       6.689  -5.520  -1.362  0.00  0.00    +0.165 HD
ATOM     34  C   UNL     1       6.426  -6.336   0.545  0.00  0.00    +0.047 A 
ATOM     35  C   UNL     1       5.252  -6.803   1.164  0.00  0.00    +0.003 A 
ATOM     36  C   UNL     1       5.304  -7.308   2.465  0.00  0.00    +0.010 A 
ATOM     37  C   UNL     1       6.495  -7.341   3.133  0.00  0.00    +0.001 A 
ATOM     38  C   UNL     1       7.656  -6.877   2.528  0.00  0.00    +0.002 A 
ATOM     39  C   UNL     1       7.629  -6.384   1.242  0.00  0.00    +0.026 A 
ENDBRANCH  29  30
ENDBRANCH  24  29
ENDBRANCH   3  24
TORSDOF 7
