REMARK  Name = ZINC51098995
REMARK  8 active torsions:
REMARK  status: ('A' for Active; 'I' for Inactive)
REMARK    1  A    between atoms: C_1  and  C_2
REMARK    2  A    between atoms: C_5  and  C_7
REMARK    3  A    between atoms: N_9  and  C_10
REMARK    4  A    between atoms: N_13  and  C_16
REMARK    5  A    between atoms: C_16  and  C_18
REMARK    6  A    between atoms: C_16  and  C_19
REMARK    7  A    between atoms: N_21  and  C_22
REMARK    8  A    between atoms: C_22  and  C_23
REMARK                            x       y       z     vdW  Elec       q    Type
REMARK                         _______ _______ _______ _____ _____    ______ ____
ROOT
ATOM      1  C   UNL     1       1.890  -7.227  -0.305  0.00  0.00    +0.070 C 
ATOM      2  C   UNL     1       2.112  -7.733   1.123  0.00  0.00    +0.004 C 
ATOM      3  C   UNL     1       3.388  -8.578   1.165  0.00  0.00    -0.076 C 
ATOM      4  N   UNL     1       4.534  -7.762   0.750  0.00  0.00    +0.387 N 
ATOM      5  C   UNL     1       4.362  -7.332  -0.643  0.00  0.00    -0.076 C 
ATOM      6  C   UNL     1       3.124  -6.439  -0.755  0.00  0.00    +0.004 C 
ATOM      7  H   UNL     1       4.601  -6.950   1.346  0.00  0.00    -0.081 HD
ENDROOT
BRANCH   1  10
ATOM      8  C   UNL     1      -0.516  -6.887  -0.483  0.00  0.00    +0.251 C 
ATOM      9  O   UNL     1      -0.649  -8.093  -0.586  0.00  0.00    -0.270 OA
ATOM     10  N   UNL     1       0.713  -6.355  -0.338  0.00  0.00    -0.308 N 
ATOM     11  H   UNL     1       0.819  -5.394  -0.256  0.00  0.00    +0.149 HD
BRANCH   8  16
ATOM     12  C   UNL     1      -4.230  -2.758  -0.482  0.00  0.00    +0.051 C 
ATOM     13  C   UNL     1      -3.444  -4.043  -0.513  0.00  0.00    -0.013 A 
ATOM     14  C   UNL     1      -3.918  -5.306  -0.649  0.00  0.00    +0.011 A 
ATOM     15  C   UNL     1      -3.030  -6.356  -0.654  0.00  0.00    +0.021 A 
ATOM     16  C   UNL     1      -1.694  -6.015  -0.516  0.00  0.00    +0.074 A 
ATOM     17  S   UNL     1      -1.780  -4.238  -0.394  0.00  0.00    -0.089 S 
ENDBRANCH   8  16
ENDBRANCH   1  10
BRANCH   4  18
ATOM     18  C   UNL     1       5.766  -8.554   0.867  0.00  0.00    +0.016 C 
ATOM     19  C   UNL     1       6.955  -7.723   0.381  0.00  0.00    -0.004 C 
BRANCH  18  20
ATOM     20  C   UNL     1       5.979  -8.940   2.308  0.00  0.00    +0.199 C 
ATOM     21  O   UNL     1       5.532  -8.245   3.195  0.00  0.00    -0.278 OA
ATOM     22  N   UNL     1       6.667 -10.059   2.611  0.00  0.00    -0.316 N 
ATOM     23  H   UNL     1       7.025 -10.615   1.902  0.00  0.00    +0.149 HD
BRANCH  22  24
ATOM     24  C   UNL     1       6.875 -10.435   4.012  0.00  0.00    +0.107 C 
BRANCH  24  25
ATOM     25  C   UNL     1       7.680 -11.734   4.078  0.00  0.00    +0.006 C 
ATOM     26  C   UNL     1       9.081 -11.496   3.511  0.00  0.00    +0.005 C 
ATOM     27  C   UNL     1       9.885 -12.795   3.576  0.00  0.00    +0.000 C 
ATOM     28  C   UNL     1       9.995 -13.254   5.032  0.00  0.00    +0.000 C 
ATOM     29  C   UNL     1       8.594 -13.492   5.599  0.00  0.00    +0.000 C 
ATOM     30  C   UNL     1       7.790 -12.193   5.533  0.00  0.00    +0.005 C 
ENDBRANCH  24  25
ENDBRANCH  22  24
ENDBRANCH  18  20
ENDBRANCH   4  18
TORSDOF 6
