REMARK  Name = ZINC17172260
REMARK  7 active torsions:
REMARK  status: ('A' for Active; 'I' for Inactive)
REMARK    1  A    between atoms: C_1  and  C_2
REMARK    2  A    between atoms: C_5  and  C_8
REMARK    3  A    between atoms: N_14  and  C_15
REMARK    4  A    between atoms: C_15  and  C_16
REMARK    5  A    between atoms: C_16  and  C_17
REMARK    6  A    between atoms: N_19  and  N_20
REMARK    7  A    between atoms: C_27  and  C_30
REMARK                            x       y       z     vdW  Elec       q    Type
REMARK                         _______ _______ _______ _____ _____    ______ ____
ROOT
ATOM      1  C   UNL     1      -1.651   2.601   1.244  0.00  0.00    +0.233 C 
ATOM      2  O   UNL     1      -1.005   2.551   2.269  0.00  0.00    -0.274 OA
ATOM      3  N   UNL     1      -1.183   2.017   0.123  0.00  0.00    -0.219 N 
ATOM      4  H   UNL     1      -1.700   2.058  -0.697  0.00  0.00    +0.176 HD
ENDROOT
BRANCH   3   5
ATOM      5  N   UNL     1       0.049   1.351   0.142  0.00  0.00    -0.212 N 
ATOM      6  C   UNL     1       1.197   2.077   0.156  0.00  0.00    +0.223 A 
ATOM      7  N   UNL     1       2.365   1.492   0.168  0.00  0.00    -0.228 NA
ATOM      8  C   UNL     1       2.467   0.165   0.167  0.00  0.00    +0.116 A 
ATOM      9  C   UNL     1       1.336  -0.666   0.153  0.00  0.00    +0.081 A 
ATOM     10  C   UNL     1       0.072   0.006   0.140  0.00  0.00    +0.280 A 
ATOM     11  O   UNL     1      -0.967  -0.631   0.127  0.00  0.00    -0.265 OA
ATOM     12  C   UNL     1       1.621  -2.096   0.155  0.00  0.00    +0.004 A 
ATOM     13  C   UNL     1       2.913  -2.504   0.169  0.00  0.00    +0.056 A 
ATOM     14  S   UNL     1       3.827  -0.974   0.182  0.00  0.00    -0.076 S 
BRANCH  12  15
ATOM     15  C   UNL     1       0.517  -3.086   0.141  0.00  0.00    -0.017 A 
ATOM     16  C   UNL     1      -0.529  -2.981   1.056  0.00  0.00    +0.008 A 
ATOM     17  C   UNL     1      -1.557  -3.901   1.034  0.00  0.00    +0.001 A 
ATOM     18  C   UNL     1      -1.544  -4.935   0.114  0.00  0.00    +0.000 A 
ATOM     19  C   UNL     1      -0.505  -5.048  -0.793  0.00  0.00    +0.001 A 
ATOM     20  C   UNL     1       0.524  -4.129  -0.784  0.00  0.00    +0.008 A 
ENDBRANCH  12  15
ENDBRANCH   3   5
BRANCH   1  21
ATOM     21  C   UNL     1      -2.977   3.317   1.223  0.00  0.00    +0.119 C 
BRANCH  21  22
ATOM     22  C   UNL     1      -3.271   3.886   2.613  0.00  0.00    +0.135 C 
BRANCH  22  29
ATOM     23  C   UNL     1      -4.745   5.935   2.389  0.00  0.00    +0.163 A 
ATOM     24  N   UNL     1      -6.023   6.190   2.435  0.00  0.00    -0.153 NA
ATOM     25  N   UNL     1      -6.696   4.987   2.685  0.00  0.00    -0.254 N 
ATOM     26  H   UNL     1      -7.656   4.874   2.775  0.00  0.00    +0.191 HD
ATOM     27  C   UNL     1      -5.767   4.013   2.777  0.00  0.00    +0.176 A 
ATOM     28  S   UNL     1      -6.068   2.354   3.074  0.00  0.00    -0.011 S 
ATOM     29  N   UNL     1      -4.559   4.582   2.593  0.00  0.00    -0.303 N 
BRANCH  23  34
ATOM     30  C   UNL     1      -0.579   9.799   1.472  0.00  0.00    +0.044 C 
ATOM     31  C   UNL     1      -1.670   8.787   1.711  0.00  0.00    -0.050 A 
ATOM     32  C   UNL     1      -2.906   9.204   2.173  0.00  0.00    +0.004 A 
ATOM     33  C   UNL     1      -3.908   8.282   2.395  0.00  0.00    +0.012 A 
ATOM     34  C   UNL     1      -3.674   6.929   2.153  0.00  0.00    +0.019 A 
ATOM     35  C   UNL     1      -2.424   6.515   1.692  0.00  0.00    +0.012 A 
ATOM     36  C   UNL     1      -1.431   7.446   1.469  0.00  0.00    +0.004 A 
ENDBRANCH  23  34
ENDBRANCH  22  29
ENDBRANCH  21  22
ENDBRANCH   1  21
TORSDOF 6
