REMARK  Name = ZINC12757792
REMARK  12 active torsions:
REMARK  status: ('A' for Active; 'I' for Inactive)
REMARK    1  A    between atoms: C_1  and  C_2
REMARK    2  A    between atoms: C_2  and  C_3
REMARK    3  A    between atoms: C_3  and  N_4
REMARK    4  A    between atoms: C_13  and  C_15
REMARK    5  A    between atoms: N_17  and  N_18
REMARK    6  A    between atoms: N_18  and  S_19
REMARK    7  A    between atoms: S_19  and  C_22
REMARK    8  A    between atoms: C_23  and  C_32
REMARK    9  A    between atoms: C_24  and  C_31
REMARK   10  A    between atoms: C_25  and  C_30
REMARK   11  A    between atoms: C_26  and  C_29
REMARK   12  A    between atoms: C_27  and  C_28
REMARK                            x       y       z     vdW  Elec       q    Type
REMARK                         _______ _______ _______ _____ _____    ______ ____
ROOT
ATOM      1  C   UNL     1       1.908   6.521   2.864  0.00  0.00    +0.279 C 
ATOM      2  O   UNL     1       1.996   7.702   3.142  0.00  0.00    -0.267 OA
ATOM      3  N   UNL     1       2.786   5.640   3.382  0.00  0.00    -0.226 N 
ATOM      4  H   UNL     1       2.716   4.698   3.160  0.00  0.00    +0.171 HD
ENDROOT
BRANCH   1  14
ATOM      5  N   UNL     1      -0.156   4.298   0.877  0.00  0.00    -0.228 N 
ATOM      6  C   UNL     1      -1.104   5.045   0.275  0.00  0.00    +0.275 A 
ATOM      7  O   UNL     1      -1.929   4.531  -0.458  0.00  0.00    -0.266 OA
ATOM      8  C   UNL     1      -1.120   6.493   0.527  0.00  0.00    +0.050 A 
ATOM      9  C   UNL     1      -2.058   7.349  -0.041  0.00  0.00    +0.014 A 
ATOM     10  C   UNL     1      -2.002   8.697   0.243  0.00  0.00    +0.001 A 
ATOM     11  C   UNL     1      -1.023   9.204   1.087  0.00  0.00    +0.001 A 
ATOM     12  C   UNL     1      -0.084   8.372   1.660  0.00  0.00    +0.011 A 
ATOM     13  C   UNL     1      -0.123   7.009   1.387  0.00  0.00    +0.020 A 
ATOM     14  C   UNL     1       0.840   6.054   1.958  0.00  0.00    +0.155 A 
ATOM     15  N   UNL     1       0.739   4.783   1.653  0.00  0.00    -0.163 NA
BRANCH   5  16
ATOM     16  C   UNL     1      -0.147   2.855   0.626  0.00  0.00    +0.147 C 
BRANCH  16  18
ATOM     17  C   UNL     1       0.736   1.048  -0.856  0.00  0.00    +0.005 C 
ATOM     18  C   UNL     1       0.727   2.555  -0.594  0.00  0.00    +0.020 C 
ENDBRANCH  16  18
ENDBRANCH   5  16
ENDBRANCH   1  14
BRANCH   3  19
ATOM     19  N   UNL     1       3.800   6.083   4.242  0.00  0.00    -0.108 NA
ATOM     20  H   UNL     1       4.405   6.785   3.956  0.00  0.00    +0.172 HD
BRANCH  19  21
ATOM     21  S   UNL     1       3.964   5.409   5.745  0.00  0.00    +0.074 S 
ATOM     22  O   UNL     1       5.148   5.957   6.309  0.00  0.00    -0.152 OA
ATOM     23  O   UNL     1       2.697   5.519   6.380  0.00  0.00    -0.152 OA
BRANCH  21  24
ATOM     24  C   UNL     1       4.265   3.689   5.515  0.00  0.00    +0.113 A 
ATOM     25  C   UNL     1       3.232   2.781   5.658  0.00  0.00    -0.021 A 
ATOM     26  C   UNL     1       3.467   1.431   5.473  0.00  0.00    -0.043 A 
ATOM     27  C   UNL     1       4.737   0.989   5.154  0.00  0.00    -0.044 A 
ATOM     28  C   UNL     1       5.771   1.896   5.016  0.00  0.00    -0.043 A 
ATOM     29  C   UNL     1       5.535   3.246   5.197  0.00  0.00    -0.021 A 
ATOM     30  C   UNL     1       6.662   4.235   5.046  0.00  0.00    +0.046 C 
ATOM     31  C   UNL     1       7.156   1.413   4.668  0.00  0.00    +0.044 C 
ATOM     32  C   UNL     1       4.995  -0.483   4.957  0.00  0.00    +0.044 C 
ATOM     33  C   UNL     1       2.340   0.443   5.623  0.00  0.00    +0.044 C 
ATOM     34  C   UNL     1       1.849   3.263   6.011  0.00  0.00    +0.046 C 
ENDBRANCH  21  24
ENDBRANCH  19  21
ENDBRANCH   3  19
TORSDOF 6
