REMARK  Name = ZINC13844908
REMARK  6 active torsions:
REMARK  status: ('A' for Active; 'I' for Inactive)
REMARK    1  A    between atoms: C_1  and  C_2
REMARK    2  A    between atoms: C_2  and  C_3
REMARK    3  A    between atoms: C_2  and  C_4
REMARK    4  A    between atoms: C_2  and  N_5
REMARK    5  A    between atoms: C_6  and  C_16
REMARK    6  A    between atoms: C_25  and  C_26
REMARK                            x       y       z     vdW  Elec       q    Type
REMARK                         _______ _______ _______ _____ _____    ______ ____
ROOT
ATOM      1  C   UNL     1      -0.214   4.036   0.264  0.00  0.00    +0.010 A 
ATOM      2  C   UNL     1      -0.391   2.624   0.602  0.00  0.00    +0.006 A 
ATOM      3  C   UNL     1      -1.502   1.778   0.675  0.00  0.00    +0.010 A 
ATOM      4  C   UNL     1      -1.336   0.470   1.030  0.00  0.00    +0.001 A 
ATOM      5  C   UNL     1      -0.072  -0.027   1.319  0.00  0.00    +0.002 A 
ATOM      6  C   UNL     1       1.036   0.788   1.253  0.00  0.00    +0.026 A 
ATOM      7  C   UNL     1       0.892   2.124   0.894  0.00  0.00    +0.047 A 
ATOM      8  N   UNL     1       1.784   3.163   0.743  0.00  0.00    -0.354 N 
ATOM      9  H   UNL     1       2.742   3.101   0.882  0.00  0.00    +0.166 HD
ATOM     10  C   UNL     1       1.111   4.304   0.371  0.00  0.00    +0.054 A 
ENDROOT
BRANCH   1  12
ATOM     11  N   UNL     1      -0.934   5.702  -1.363  0.00  0.00    -0.281 N 
ATOM     12  C   UNL     1      -1.298   5.008  -0.122  0.00  0.00    +0.141 C 
ATOM     13  C   UNL     1      -1.436   6.077   0.933  0.00  0.00    -0.010 A 
ATOM     14  C   UNL     1      -1.755   6.044   2.271  0.00  0.00    +0.006 A 
ATOM     15  C   UNL     1      -1.805   7.221   2.999  0.00  0.00    +0.000 A 
ATOM     16  C   UNL     1      -1.536   8.431   2.385  0.00  0.00    +0.001 A 
ATOM     17  C   UNL     1      -1.215   8.475   1.044  0.00  0.00    +0.013 A 
ATOM     18  C   UNL     1      -1.162   7.293   0.303  0.00  0.00    +0.042 A 
ATOM     19  C   UNL     1      -0.857   7.021  -1.114  0.00  0.00    +0.248 C 
ATOM     20  O   UNL     1      -0.574   7.868  -1.939  0.00  0.00    -0.270 OA
BRANCH  11  22
ATOM     21  C   UNL     1      -2.033   4.679  -3.294  0.00  0.00    +0.031 C 
ATOM     22  C   UNL     1      -0.695   5.063  -2.659  0.00  0.00    +0.030 C 
ATOM     23  C   UNL     1       0.045   6.036  -3.579  0.00  0.00    +0.031 C 
ATOM     24  C   UNL     1       0.154   3.806  -2.458  0.00  0.00    +0.031 C 
ENDBRANCH  11  22
ENDBRANCH   1  12
BRANCH  10  25
ATOM     25  C   UNL     1       1.737   5.621   0.122  0.00  0.00    +0.017 A 
ATOM     26  C   UNL     1       2.339   5.889  -1.108  0.00  0.00    +0.013 A 
ATOM     27  C   UNL     1       2.916   7.121  -1.336  0.00  0.00    +0.021 A 
ATOM     28  C   UNL     1       2.910   8.087  -0.343  0.00  0.00    +0.042 A 
ATOM     29  C   UNL     1       2.320   7.825   0.881  0.00  0.00    +0.040 A 
ATOM     30  C   UNL     1       1.733   6.598   1.120  0.00  0.00    +0.051 A 
ATOM     31 CL   UNL     1       0.993   6.271   2.656  0.00  0.00    -0.083 Cl
ATOM     32 CL   UNL     1       3.646   9.632  -0.635  0.00  0.00    -0.083 Cl
ENDBRANCH  10  25
TORSDOF 3
