REMARK  Name = ZINC20610541
REMARK  7 active torsions:
REMARK  status: ('A' for Active; 'I' for Inactive)
REMARK    1  A    between atoms: C_1  and  C_2
REMARK    2  A    between atoms: C_2  and  O_3
REMARK    3  A    between atoms: O_3  and  C_4
REMARK    4  A    between atoms: C_9  and  N_10
REMARK    5  A    between atoms: C_13  and  C_20
REMARK    6  A    between atoms: C_26  and  O_32
REMARK    7  A    between atoms: O_32  and  C_33
REMARK                            x       y       z     vdW  Elec       q    Type
REMARK                         _______ _______ _______ _____ _____    ______ ____
ROOT
ATOM      1  N   UNL     1       1.953  -1.466  -3.425  0.00  0.00    -0.225 N 
ATOM      2  C   UNL     1       3.229  -1.048  -3.314  0.00  0.00    +0.267 A 
ATOM      3  O   UNL     1       3.917  -1.418  -2.377  0.00  0.00    -0.267 OA
ATOM      4  C   UNL     1       3.763  -0.182  -4.284  0.00  0.00    +0.073 A 
ATOM      5  C   UNL     1       2.973   0.217  -5.322  0.00  0.00    +0.260 A 
ATOM      6  N   UNL     1       1.679  -0.233  -5.397  0.00  0.00    -0.274 N 
ATOM      7  H   UNL     1       1.114   0.048  -6.134  0.00  0.00    +0.173 HD
ATOM      8  C   UNL     1       1.192  -1.065  -4.460  0.00  0.00    +0.337 A 
ATOM      9  O   UNL     1       0.044  -1.458  -4.546  0.00  0.00    -0.246 OA
ATOM     10  O   UNL     1       3.461   1.048  -6.267  0.00  0.00    -0.267 OA
ENDROOT
BRANCH   4  11
ATOM     11  C   UNL     1       5.187   0.299  -4.179  0.00  0.00    +0.018 C 
ATOM     12  C   UNL     1       6.129  -0.873  -4.319  0.00  0.00    +0.011 A 
ATOM     13  C   UNL     1       7.221  -1.036  -3.537  0.00  0.00    -0.022 A 
ATOM     14  C   UNL     1       7.870  -2.257  -3.955  0.00  0.00    +0.006 A 
ATOM     15  C   UNL     1       9.020  -2.922  -3.516  0.00  0.00    +0.056 A 
ATOM     16  C   UNL     1       9.349  -4.101  -4.168  0.00  0.00    +0.121 A 
ATOM     17  C   UNL     1       8.576  -4.603  -5.208  0.00  0.00    +0.047 A 
ATOM     18  C   UNL     1       7.436  -3.959  -5.656  0.00  0.00    +0.030 A 
ATOM     19  C   UNL     1       7.084  -2.772  -5.018  0.00  0.00    +0.047 A 
ATOM     20  N   UNL     1       6.041  -1.908  -5.209  0.00  0.00    -0.359 N 
ATOM     21  H   UNL     1       5.344  -2.012  -5.876  0.00  0.00    +0.166 HD
ATOM     22  C   UNL     1       7.613  -0.063  -2.452  0.00  0.00    +0.018 C 
ATOM     23  C   UNL     1       6.825   1.235  -2.679  0.00  0.00    -0.076 C 
ATOM     24  N   UNL     1       5.402   0.924  -2.865  0.00  0.00    +0.388 N 
ATOM     25  H   UNL     1       4.861   1.774  -2.807  0.00  0.00    -0.084 HD
ATOM     26  H   UNL     1       5.103   0.290  -2.140  0.00  0.00    -0.084 HD
BRANCH  16  27
ATOM     27  O   UNL     1      10.458  -4.785  -3.779  0.00  0.00    -0.495 OA
ATOM     28  C   UNL     1      10.754  -5.994  -4.481  0.00  0.00    +0.277 C 
ENDBRANCH  16  27
ENDBRANCH   4  11
BRANCH   1  34
ATOM     29  C   UNL     1       0.777  -1.811  -1.336  0.00  0.00    +0.144 A 
ATOM     30  C   UNL     1       0.244  -2.669  -0.388  0.00  0.00    +0.048 A 
ATOM     31  C   UNL     1       0.352  -4.037  -0.554  0.00  0.00    +0.004 A 
ATOM     32  C   UNL     1       0.993  -4.553  -1.666  0.00  0.00    +0.002 A 
ATOM     33  C   UNL     1       1.527  -3.704  -2.616  0.00  0.00    +0.030 A 
ATOM     34  C   UNL     1       1.416  -2.330  -2.459  0.00  0.00    +0.096 A 
BRANCH  29  35
ATOM     35  O   UNL     1       0.671  -0.465  -1.174  0.00  0.00    -0.490 OA
BRANCH  35  37
ATOM     36  C   UNL     1      -0.019   1.526   0.010  0.00  0.00    +0.048 C 
ATOM     37  C   UNL     1       0.002  -0.004   0.002  0.00  0.00    +0.226 C 
ENDBRANCH  35  37
ENDBRANCH  29  35
ENDBRANCH   1  34
TORSDOF 5
