REMARK  Name = ZINC06198227
REMARK  10 active torsions:
REMARK  status: ('A' for Active; 'I' for Inactive)
REMARK    1  A    between atoms: C_1  and  C_2
REMARK    2  A    between atoms: C_2  and  C_3
REMARK    3  A    between atoms: C_10  and  C_15
REMARK    4  A    between atoms: C_15  and  C_17
REMARK    5  A    between atoms: C_15  and  N_74
REMARK    6  A    between atoms: N_21  and  C_22
REMARK    7  A    between atoms: C_28  and  C_29
REMARK    8  A    between atoms: C_28  and  N_74
REMARK    9  A    between atoms: C_34  and  C_35
REMARK   10  A    between atoms: C_34  and  N_74
REMARK                            x       y       z     vdW  Elec       q    Type
REMARK                         _______ _______ _______ _____ _____    ______ ____
ROOT
ATOM      1  C   UNL     1       2.804  -3.132  -0.117  0.00  0.00    +0.039 C 
ENDROOT
BRANCH   1   9
ATOM      2  C   UNL     1       4.422  -4.186  -5.996  0.00  0.00    -0.047 A 
ATOM      3  C   UNL     1       3.452  -3.377  -6.572  0.00  0.00    +0.005 A 
ATOM      4  C   UNL     1       2.556  -2.685  -5.786  0.00  0.00    +0.026 A 
ATOM      5  C   UNL     1       2.621  -2.798  -4.401  0.00  0.00    +0.049 A 
ATOM      6  C   UNL     1       3.606  -3.620  -3.821  0.00  0.00    -0.001 A 
ATOM      7  C   UNL     1       4.506  -4.312  -4.638  0.00  0.00    +0.013 A 
ATOM      8  C   UNL     1       3.667  -3.732  -2.362  0.00  0.00    +0.017 A 
ATOM      9  C   UNL     1       2.769  -3.038  -1.621  0.00  0.00    +0.011 A 
ATOM     10  C   UNL     1       1.797  -2.233  -2.252  0.00  0.00    +0.251 A 
ATOM     11  O   UNL     1       0.996  -1.621  -1.567  0.00  0.00    -0.268 OA
ATOM     12  N   UNL     1       1.737  -2.119  -3.591  0.00  0.00    -0.322 N 
ATOM     13  H   UNL     1       1.040  -1.533  -4.004  0.00  0.00    +0.169 HD
BRANCH   2  15
ATOM     14  C   UNL     1       4.813  -6.306  -7.222  0.00  0.00    +0.009 C 
ATOM     15  C   UNL     1       5.391  -4.932  -6.876  0.00  0.00    +0.032 C 
ENDBRANCH   2  15
ENDBRANCH   1   9
BRANCH   1  16
ATOM     16  C   UNL     1       1.531  -3.769   0.377  0.00  0.00    +0.143 A 
ATOM     17  N   UNL     1       0.319  -3.539  -0.066  0.00  0.00    -0.115 NA
ATOM     18  N   UNL     1      -0.497  -4.274   0.609  0.00  0.00    -0.023 NA
ATOM     19  N   UNL     1       0.164  -4.966   1.470  0.00  0.00    -0.044 NA
ATOM     20  N   UNL     1       1.417  -4.683   1.358  0.00  0.00    -0.227 N 
BRANCH  20  21
ATOM     21  C   UNL     1       2.512  -5.250   2.150  0.00  0.00    +0.111 C 
ATOM     22  C   UNL     1       2.536  -6.769   1.973  0.00  0.00    +0.027 C 
ATOM     23  C   UNL     1       3.679  -7.361   2.800  0.00  0.00    +0.002 C 
ATOM     24  C   UNL     1       3.467  -7.023   4.277  0.00  0.00    +0.000 C 
ATOM     25  C   UNL     1       3.442  -5.504   4.455  0.00  0.00    +0.002 C 
ATOM     26  C   UNL     1       2.300  -4.912   3.627  0.00  0.00    +0.027 C 
ENDBRANCH  20  21
ENDBRANCH   1  16
BRANCH   1  27
ATOM     27  N   UNL     1       2.918  -1.767   0.437  0.00  0.00    +0.396 N 
ATOM     28  H   UNL     1       2.426  -1.113  -0.182  0.00  0.00    -0.080 HD
BRANCH  27  29
ATOM     29  C   UNL     1       2.301  -1.713   1.779  0.00  0.00    -0.002 C 
BRANCH  29  30
ATOM     30  C   UNL     1       2.024  -0.273   2.126  0.00  0.00    +0.089 A 
ATOM     31  C   UNL     1       0.852   0.365   1.956  0.00  0.00    +0.042 A 
ATOM     32  C   UNL     1       1.038   1.691   2.412  0.00  0.00    +0.041 A 
ATOM     33  C   UNL     1       2.312   1.783   2.833  0.00  0.00    +0.195 A 
ATOM     34  O   UNL     1       2.903   0.589   2.663  0.00  0.00    -0.470 OA
ENDBRANCH  29  30
ENDBRANCH  27  29
BRANCH  27  35
ATOM     35  C   UNL     1       4.340  -1.372   0.520  0.00  0.00    -0.045 C 
BRANCH  35  36
ATOM     36  C   UNL     1       4.840  -1.040  -0.888  0.00  0.00    +0.102 C 
ATOM     37  C   UNL     1       6.235  -0.380  -0.822  0.00  0.00    +0.032 C 
ATOM     38  C   UNL     1       6.200   0.683  -1.943  0.00  0.00    +0.030 C 
ATOM     39  C   UNL     1       4.789   0.539  -2.553  0.00  0.00    +0.160 C 
ATOM     40  O   UNL     1       3.990  -0.047  -1.502  0.00  0.00    -0.378 OA
ENDBRANCH  35  36
ENDBRANCH  27  35
ENDBRANCH   1  27
TORSDOF 9
