REMARK  Name = ZINC44563399
REMARK  6 active torsions:
REMARK  status: ('A' for Active; 'I' for Inactive)
REMARK    1  A    between atoms: C_1  and  N_2
REMARK    2  A    between atoms: C_7  and  C_9
REMARK    3  A    between atoms: C_9  and  N_10
REMARK    4  A    between atoms: N_10  and  S_11
REMARK    5  A    between atoms: S_11  and  C_14
REMARK    6  A    between atoms: C_17  and  N_21
REMARK                            x       y       z     vdW  Elec       q    Type
REMARK                         _______ _______ _______ _____ _____    ______ ____
ROOT
ATOM      1  S   UNL     1      -1.217   2.018   3.459  0.00  0.00    +0.059 S 
ATOM      2  O   UNL     1      -1.291   3.424   3.269  0.00  0.00    -0.153 OA
ATOM      3  O   UNL     1      -2.364   1.181   3.404  0.00  0.00    -0.153 OA
ENDROOT
BRANCH   1   4
ATOM      4  C   UNL     1      -0.482   1.761   5.040  0.00  0.00    +0.119 A 
ATOM      5  C   UNL     1      -1.077   0.903   5.947  0.00  0.00    +0.031 A 
ATOM      6  C   UNL     1      -0.504   0.700   7.186  0.00  0.00    +0.025 A 
ATOM      7  C   UNL     1       0.672   1.358   7.523  0.00  0.00    +0.026 A 
ATOM      8  C   UNL     1       1.268   2.220   6.611  0.00  0.00    +0.040 A 
ATOM      9  C   UNL     1       0.692   2.415   5.370  0.00  0.00    +0.046 A 
ATOM     10 BR   UNL     1       1.506   3.581   4.124  0.00  0.00    -0.048 Br
BRANCH   7  11
ATOM     11  N   UNL     1       1.253   1.155   8.777  0.00  0.00    -0.358 N 
ATOM     12  H   UNL     1       0.836   0.553   9.413  0.00  0.00    +0.142 HD
ATOM     13  H   UNL     1       2.074   1.615   9.011  0.00  0.00    +0.142 HD
ENDBRANCH   7  11
ENDBRANCH   1   4
BRANCH   1  14
ATOM     14  N   UNL     1      -0.155   1.442   2.326  0.00  0.00    -0.191 NA
ATOM     15  H   UNL     1       0.245   2.049   1.684  0.00  0.00    +0.148 HD
BRANCH  14  16
ATOM     16  C   UNL     1       0.179   0.016   2.294  0.00  0.00    +0.090 C 
BRANCH  16  23
ATOM     17  C   UNL     1       2.923   0.404   1.841  0.00  0.00    -0.096 C 
ATOM     18  N   UNL     1       1.980   0.547   0.724  0.00  0.00    +0.381 N 
ATOM     19  C   UNL     1       2.648   0.175  -0.529  0.00  0.00    -0.079 C 
ATOM     20  C   UNL     1       1.696   0.399  -1.706  0.00  0.00    -0.019 C 
ATOM     21  C   UNL     1       0.447  -0.466  -1.516  0.00  0.00    -0.003 C 
ATOM     22  C   UNL     1      -0.201  -0.122  -0.171  0.00  0.00    -0.014 C 
ATOM     23  C   UNL     1       0.822  -0.326   0.949  0.00  0.00    -0.053 C 
ATOM     24  H   UNL     1       1.671   1.506   0.666  0.00  0.00    -0.082 HD
ENDBRANCH  16  23
ENDBRANCH  14  16
ENDBRANCH   1  14
TORSDOF 5
