REMARK  Name = ZINC06409009
REMARK  11 active torsions:
REMARK  status: ('A' for Active; 'I' for Inactive)
REMARK    1  A    between atoms: C_1  and  C_2
REMARK    2  A    between atoms: C_9  and  C_14
REMARK    3  A    between atoms: C_14  and  C_16
REMARK    4  A    between atoms: C_14  and  N_71
REMARK    5  A    between atoms: N_20  and  C_21
REMARK    6  A    between atoms: C_26  and  C_27
REMARK    7  A    between atoms: C_26  and  N_71
REMARK    8  A    between atoms: C_30  and  O_33
REMARK    9  A    between atoms: O_33  and  C_34
REMARK   10  A    between atoms: C_35  and  C_36
REMARK   11  A    between atoms: C_35  and  N_71
REMARK                            x       y       z     vdW  Elec       q    Type
REMARK                         _______ _______ _______ _____ _____    ______ ____
ROOT
ATOM      1  C   UNL     1      -0.255   1.690  -0.896  0.00  0.00    +0.040 C 
ENDROOT
BRANCH   1  10
ATOM      2  C   UNL     1      -0.032   6.199  -6.832  0.00  0.00    +0.044 C 
ATOM      3  C   UNL     1      -0.796   5.307  -5.887  0.00  0.00    -0.050 A 
ATOM      4  C   UNL     1      -2.159   5.118  -6.069  0.00  0.00    +0.005 A 
ATOM      5  C   UNL     1      -2.877   4.307  -5.217  0.00  0.00    +0.026 A 
ATOM      6  C   UNL     1      -2.230   3.670  -4.163  0.00  0.00    +0.049 A 
ATOM      7  C   UNL     1      -0.848   3.864  -3.981  0.00  0.00    -0.001 A 
ATOM      8  C   UNL     1      -0.140   4.692  -4.859  0.00  0.00    +0.013 A 
ATOM      9  C   UNL     1      -0.178   3.194  -2.865  0.00  0.00    +0.017 A 
ATOM     10  C   UNL     1      -0.915   2.399  -2.051  0.00  0.00    +0.011 A 
ATOM     11  C   UNL     1      -2.299   2.237  -2.277  0.00  0.00    +0.251 A 
ATOM     12  O   UNL     1      -2.943   1.522  -1.530  0.00  0.00    -0.268 OA
ATOM     13  N   UNL     1      -2.924   2.853  -3.296  0.00  0.00    -0.322 N 
ATOM     14  H   UNL     1      -3.876   2.720  -3.422  0.00  0.00    +0.169 HD
ENDBRANCH   1  10
BRANCH   1  15
ATOM     15  C   UNL     1      -0.321   0.201  -1.116  0.00  0.00    +0.143 A 
ATOM     16  N   UNL     1      -1.255  -0.613  -0.689  0.00  0.00    -0.115 NA
ATOM     17  N   UNL     1      -0.955  -1.803  -1.080  0.00  0.00    -0.023 NA
ATOM     18  N   UNL     1       0.146  -1.770  -1.746  0.00  0.00    -0.044 NA
ATOM     19  N   UNL     1       0.566  -0.550  -1.795  0.00  0.00    -0.227 N 
BRANCH  19  20
ATOM     20  C   UNL     1       1.780  -0.074  -2.462  0.00  0.00    +0.111 C 
ATOM     21  C   UNL     1       1.670  -0.297  -3.984  0.00  0.00    +0.027 C 
ATOM     22  C   UNL     1       3.104  -0.696  -4.414  0.00  0.00    +0.002 C 
ATOM     23  C   UNL     1       3.583  -1.577  -3.234  0.00  0.00    +0.002 C 
ATOM     24  C   UNL     1       2.997  -0.887  -1.985  0.00  0.00    +0.027 C 
ENDBRANCH  19  20
ENDBRANCH   1  15
BRANCH   1  25
ATOM     25  N   UNL     1      -0.979   2.021   0.350  0.00  0.00    +0.397 N 
ATOM     26  H   UNL     1      -1.929   1.635   0.296  0.00  0.00    -0.079 HD
BRANCH  25  27
ATOM     27  C   UNL     1      -0.285   1.426   1.511  0.00  0.00    -0.041 C 
BRANCH  27  28
ATOM     28  C   UNL     1       1.152   1.878   1.556  0.00  0.00    -0.064 A 
ATOM     29  C   UNL     1       2.137   1.106   0.967  0.00  0.00    +0.005 A 
ATOM     30  C   UNL     1       3.454   1.521   1.001  0.00  0.00    +0.046 A 
ATOM     31  C   UNL     1       3.790   2.707   1.637  0.00  0.00    +0.120 A 
ATOM     32  C   UNL     1       2.801   3.477   2.232  0.00  0.00    +0.046 A 
ATOM     33  C   UNL     1       1.485   3.061   2.190  0.00  0.00    +0.005 A 
BRANCH  31  34
ATOM     34  O   UNL     1       5.086   3.115   1.677  0.00  0.00    -0.495 OA
ATOM     35  C   UNL     1       6.035   2.334   0.947  0.00  0.00    +0.277 C 
ENDBRANCH  31  34
ENDBRANCH  27  28
ENDBRANCH  25  27
BRANCH  25  36
ATOM     36  C   UNL     1      -1.065   3.488   0.510  0.00  0.00    -0.001 C 
BRANCH  36  37
ATOM     37  C   UNL     1      -2.115   3.801   1.544  0.00  0.00    +0.089 A 
ATOM     38  C   UNL     1      -1.887   4.044   2.848  0.00  0.00    +0.042 A 
ATOM     39  C   UNL     1      -3.145   4.288   3.445  0.00  0.00    +0.041 A 
ATOM     40  C   UNL     1      -4.066   4.180   2.471  0.00  0.00    +0.195 A 
ATOM     41  O   UNL     1      -3.436   3.891   1.321  0.00  0.00    -0.470 OA
ENDBRANCH  36  37
ENDBRANCH  25  36
ENDBRANCH   1  25
TORSDOF 9
