REMARK  Name = ZINC39534228
REMARK  10 active torsions:
REMARK  status: ('A' for Active; 'I' for Inactive)
REMARK    1  A    between atoms: C_4  and  C_7
REMARK    2  A    between atoms: C_7  and  C_8
REMARK    3  A    between atoms: N_11  and  C_15
REMARK    4  A    between atoms: C_15  and  C_17
REMARK    5  A    between atoms: C_15  and  C_20
REMARK    6  A    between atoms: C_17  and  N_18
REMARK    7  A    between atoms: N_18  and  O_19
REMARK    8  A    between atoms: C_23  and  S_26
REMARK    9  A    between atoms: S_26  and  O_29
REMARK   10  A    between atoms: O_29  and  C_30
REMARK                            x       y       z     vdW  Elec       q    Type
REMARK                         _______ _______ _______ _____ _____    ______ ____
ROOT
ATOM      1  C   UNL     1       7.098  -2.892   2.748  0.00  0.00    -0.022 C 
ENDROOT
BRANCH   1   4
ATOM      2  C   UNL     1       3.910  -1.400   1.444  0.00  0.00    -0.085 C 
ATOM      3  C   UNL     1       5.267  -2.105   1.412  0.00  0.00    -0.094 C 
ATOM      4  N   UNL     1       5.794  -2.215   2.779  0.00  0.00    +0.383 N 
ATOM      5  C   UNL     1       5.954  -0.871   3.352  0.00  0.00    -0.097 C 
ATOM      6  C   UNL     1       4.596  -0.166   3.384  0.00  0.00    -0.101 C 
ATOM      7  N   UNL     1       4.069  -0.056   2.017  0.00  0.00    +0.379 N 
ATOM      8  H   UNL     1       4.712   0.477   1.451  0.00  0.00    -0.086 HD
ATOM      9  H   UNL     1       3.174   0.409   2.038  0.00  0.00    -0.086 HD
ATOM     10  H   UNL     1       5.152  -2.748   3.345  0.00  0.00    -0.081 HD
BRANCH   2  11
ATOM     11  C   UNL     1       3.361  -1.285   0.021  0.00  0.00    +0.017 C 
BRANCH  11  15
ATOM     12  C   UNL     1      -0.577   0.366   0.139  0.00  0.00    +0.000 A 
ATOM     13  C   UNL     1       0.519   1.201   0.033  0.00  0.00    +0.000 A 
ATOM     14  C   UNL     1       1.794   0.667  -0.006  0.00  0.00    +0.003 A 
ATOM     15  C   UNL     1       1.971  -0.703   0.063  0.00  0.00    -0.049 A 
ATOM     16  C   UNL     1       0.875  -1.537   0.171  0.00  0.00    +0.003 A 
ATOM     17  C   UNL     1      -0.400  -1.003   0.208  0.00  0.00    +0.000 A 
ENDBRANCH  11  15
ENDBRANCH   2  11
ENDBRANCH   1   4
BRANCH   1  18
ATOM     18  C   UNL     1       6.940  -4.257   2.131  0.00  0.00    -0.060 A 
ATOM     19  C   UNL     1       5.829  -5.025   2.426  0.00  0.00    +0.004 A 
ATOM     20  C   UNL     1       5.684  -6.278   1.860  0.00  0.00    +0.031 A 
ATOM     21  C   UNL     1       6.650  -6.762   0.998  0.00  0.00    +0.128 A 
ATOM     22  C   UNL     1       7.760  -5.994   0.701  0.00  0.00    +0.031 A 
ATOM     23  C   UNL     1       7.903  -4.739   1.264  0.00  0.00    +0.004 A 
BRANCH  21  24
ATOM     24  S   UNL     1       6.466  -8.360   0.277  0.00  0.00    +0.151 S 
ATOM     25  O   UNL     1       7.772  -8.803  -0.066  0.00  0.00    -0.131 OA
ATOM     26  O   UNL     1       5.613  -9.099   1.139  0.00  0.00    -0.131 OA
BRANCH  24  27
ATOM     27  O   UNL     1       5.711  -8.178  -1.032  0.00  0.00    -0.342 OA
BRANCH  27  28
ATOM     28  C   UNL     1       6.462  -7.654  -2.036  0.00  0.00    +0.157 A 
ATOM     29  C   UNL     1       6.529  -6.279  -2.207  0.00  0.00    +0.048 A 
ATOM     30  C   UNL     1       7.294  -5.747  -3.228  0.00  0.00    +0.004 A 
ATOM     31  C   UNL     1       7.991  -6.585  -4.079  0.00  0.00    +0.000 A 
ATOM     32  C   UNL     1       7.925  -7.956  -3.910  0.00  0.00    +0.004 A 
ATOM     33  C   UNL     1       7.167  -8.492  -2.888  0.00  0.00    +0.048 A 
ENDBRANCH  27  28
ENDBRANCH  24  27
ENDBRANCH  21  24
ENDBRANCH   1  18
BRANCH   1  34
ATOM     34  C   UNL     1       7.631  -3.035   4.174  0.00  0.00    +0.100 C 
BRANCH  34  35
ATOM     35  N   UNL     1       8.967  -3.645   4.138  0.00  0.00    -0.205 NA
ATOM     36  H   UNL     1       9.616  -3.065   3.627  0.00  0.00    +0.153 HD
BRANCH  35  37
ATOM     37  O   UNL     1       9.457  -3.915   5.490  0.00  0.00    -0.315 OA
ATOM     38  H   UNL     1      10.336  -4.318   5.517  0.00  0.00    +0.236 HD
ENDBRANCH  35  37
ENDBRANCH  34  35
ENDBRANCH   1  34
TORSDOF 10
