REMARK  Name = ZINC35642333
REMARK  13 active torsions:
REMARK  status: ('A' for Active; 'I' for Inactive)
REMARK    1  A    between atoms: C_1  and  C_2
REMARK    2  A    between atoms: C_2  and  N_3
REMARK    3  A    between atoms: C_4  and  C_24
REMARK    4  A    between atoms: C_5  and  C_19
REMARK    5  A    between atoms: C_6  and  C_11
REMARK    6  A    between atoms: C_16  and  O_17
REMARK    7  A    between atoms: O_17  and  C_18
REMARK    8  A    between atoms: C_19  and  O_21
REMARK    9  A    between atoms: O_21  and  C_22
REMARK   10  A    between atoms: C_22  and  C_23
REMARK   11  A    between atoms: C_24  and  N_25
REMARK   12  A    between atoms: C_32  and  C_34
REMARK   13  A    between atoms: C_37  and  C_40
REMARK                            x       y       z     vdW  Elec       q    Type
REMARK                         _______ _______ _______ _____ _____    ______ ____
ROOT
ATOM      1  N   UNL     1      -1.354   0.199  -0.680  0.00  0.00    -0.261 N 
ATOM      2  C   UNL     1      -2.278   0.094   0.321  0.00  0.00    +0.010 C 
ATOM      3  C   UNL     1      -3.543  -0.299   0.063  0.00  0.00    +0.077 C 
ATOM      4  C   UNL     1      -3.903  -0.620  -1.374  0.00  0.00    +0.147 C 
ATOM      5  N   UNL     1      -2.835  -0.474  -2.378  0.00  0.00    -0.288 N 
ATOM      6  C   UNL     1      -1.619  -0.066  -1.965  0.00  0.00    +0.307 C 
ATOM      7  O   UNL     1      -0.732   0.061  -2.787  0.00  0.00    -0.252 OA
ATOM      8  H   UNL     1      -3.004  -0.664  -3.314  0.00  0.00    +0.151 HD
ENDROOT
BRANCH   4   9
ATOM      9  C   UNL     1      -5.045   0.277  -1.778  0.00  0.00    +0.019 A 
ATOM     10  C   UNL     1      -4.789   1.486  -2.396  0.00  0.00    +0.009 A 
ATOM     11  C   UNL     1      -5.835   2.310  -2.766  0.00  0.00    +0.001 A 
ATOM     12  C   UNL     1      -7.141   1.926  -2.520  0.00  0.00    +0.004 A 
ATOM     13  C   UNL     1      -7.402   0.718  -1.903  0.00  0.00    +0.046 A 
ATOM     14  C   UNL     1      -6.354  -0.113  -1.535  0.00  0.00    +0.125 A 
BRANCH  14  15
ATOM     15  O   UNL     1      -6.608  -1.304  -0.933  0.00  0.00    -0.495 OA
ATOM     16  C   UNL     1      -7.979  -1.689  -0.810  0.00  0.00    +0.277 C 
ENDBRANCH  14  15
ENDBRANCH   4   9
BRANCH   1  18
ATOM     17  C   UNL     1       0.113   2.148  -0.503  0.00  0.00    +0.025 C 
ATOM     18  C   UNL     1       0.000   0.632  -0.328  0.00  0.00    +0.111 C 
ENDBRANCH   1  18
BRANCH   3  19
ATOM     19  C   UNL     1      -4.501  -0.410   1.098  0.00  0.00    +0.339 C 
ATOM     20  O   UNL     1      -4.735  -1.494   1.597  0.00  0.00    -0.245 OA
BRANCH  19  21
ATOM     21  O   UNL     1      -5.154   0.688   1.533  0.00  0.00    -0.462 OA
BRANCH  21  22
ATOM     22  C   UNL     1      -6.023   0.524   2.655  0.00  0.00    +0.229 C 
ATOM     23  C   UNL     1      -6.761   1.837   2.924  0.00  0.00    +0.048 C 
ENDBRANCH  21  22
ENDBRANCH  19  21
ENDBRANCH   3  19
BRANCH   2  24
ATOM     24  C   UNL     1      -1.878   0.422   1.736  0.00  0.00    -0.026 C 
BRANCH  24  25
ATOM     25  N   UNL     1      -1.517  -0.814   2.442  0.00  0.00    +0.384 N 
ATOM     26  C   UNL     1      -1.412  -0.517   3.869  0.00  0.00    -0.077 C 
ATOM     27  C   UNL     1      -1.761  -1.755   4.665  0.00  0.00    +0.000 C 
ATOM     28  C   UNL     1      -0.474  -2.534   4.990  0.00  0.00    +0.106 C 
ATOM     29  N   UNL     1       0.454  -2.531   3.841  0.00  0.00    -0.299 N 
ATOM     30  C   UNL     1       0.000  -2.710   2.478  0.00  0.00    +0.089 C 
ATOM     31  C   UNL     1      -0.344  -1.337   1.855  0.00  0.00    -0.059 C 
ATOM     32  C   UNL     1       1.771  -2.355   4.070  0.00  0.00    +0.247 C 
ATOM     33  O   UNL     1       2.539  -2.238   3.136  0.00  0.00    -0.270 OA
ATOM     34  H   UNL     1      -2.263  -1.482   2.313  0.00  0.00    -0.081 HD
BRANCH  32  35
ATOM     35  C   UNL     1       2.280  -2.304   5.457  0.00  0.00    +0.037 A 
ATOM     36  C   UNL     1       1.717  -3.120   6.441  0.00  0.00    +0.013 A 
ATOM     37  C   UNL     1       2.197  -3.068   7.733  0.00  0.00    +0.004 A 
ATOM     38  C   UNL     1       3.233  -2.210   8.056  0.00  0.00    -0.050 A 
ATOM     39  C   UNL     1       3.795  -1.399   7.086  0.00  0.00    +0.004 A 
ATOM     40  C   UNL     1       3.329  -1.445   5.788  0.00  0.00    +0.013 A 
ATOM     41  C   UNL     1       3.752  -2.158   9.469  0.00  0.00    +0.044 C 
ENDBRANCH  32  35
ENDBRANCH  24  25
ENDBRANCH   2  24
TORSDOF 9
