REMARK  Name = ZINC09424313
REMARK  11 active torsions:
REMARK  status: ('A' for Active; 'I' for Inactive)
REMARK    1  A    between atoms: C_1  and  C_2
REMARK    2  A    between atoms: C_2  and  C_36
REMARK    3  A    between atoms: C_7  and  C_35
REMARK    4  A    between atoms: C_10  and  N_11
REMARK    5  A    between atoms: C_10  and  N_70
REMARK    6  A    between atoms: N_19  and  N_20
REMARK    7  A    between atoms: C_21  and  C_23
REMARK    8  A    between atoms: C_23  and  O_24
REMARK    9  A    between atoms: O_24  and  C_25
REMARK   10  A    between atoms: C_30  and  O_31
REMARK   11  A    between atoms: O_31  and  C_32
REMARK                            x       y       z     vdW  Elec       q    Type
REMARK                         _______ _______ _______ _____ _____    ______ ____
ROOT
ATOM      1  N   UNL     1       5.059   7.325  -0.007  0.00  0.00    -0.282 N 
ATOM      2  C   UNL     1       4.232   8.442   0.007  0.00  0.00    +0.044 A 
ATOM      3  C   UNL     1       4.518   9.803   0.012  0.00  0.00    +0.024 A 
ATOM      4  C   UNL     1       3.492  10.727   0.027  0.00  0.00    +0.002 A 
ATOM      5  C   UNL     1       2.171  10.313   0.037  0.00  0.00    +0.001 A 
ATOM      6  C   UNL     1       1.867   8.966   0.033  0.00  0.00    +0.012 A 
ATOM      7  C   UNL     1       2.894   8.028   0.012  0.00  0.00    +0.028 A 
ATOM      8  C   UNL     1       2.914   6.547   0.009  0.00  0.00    +0.153 C 
ATOM      9  N   UNL     1       1.885   5.735   0.015  0.00  0.00    -0.174 NA
ATOM     10  C   UNL     1       4.346   6.186  -0.007  0.00  0.00    +0.270 C 
ATOM     11  O   UNL     1       4.800   5.057  -0.018  0.00  0.00    -0.268 OA
ENDROOT
BRANCH   9  12
ATOM     12  N   UNL     1       2.088   4.348   0.005  0.00  0.00    -0.203 N 
ATOM     13  C   UNL     1       1.030   3.513   0.011  0.00  0.00    +0.270 C 
ATOM     14  O   UNL     1      -0.096   3.961   0.024  0.00  0.00    -0.270 OA
ATOM     15  H   UNL     1       2.989   3.990  -0.005  0.00  0.00    +0.177 HD
BRANCH  13  16
ATOM     16  C   UNL     1       1.248   2.022   0.001  0.00  0.00    +0.326 C 
BRANCH  16  17
ATOM     17  O   UNL     1      -0.016   1.356   0.009  0.00  0.00    -0.479 OA
BRANCH  17  18
ATOM     18  C   UNL     1       0.002  -0.004   0.002  0.00  0.00    +0.163 A 
ATOM     19  C   UNL     1       1.210  -0.682  -0.019  0.00  0.00    +0.049 A 
ATOM     20  C   UNL     1       1.227  -2.064  -0.021  0.00  0.00    +0.004 A 
ATOM     21  C   UNL     1       0.041  -2.773  -0.013  0.00  0.00    +0.004 A 
ATOM     22  C   UNL     1      -1.168  -2.103   0.002  0.00  0.00    +0.049 A 
ATOM     23  C   UNL     1      -1.192  -0.718   0.010  0.00  0.00    +0.162 A 
BRANCH  23  24
ATOM     24  O   UNL     1      -2.381  -0.057   0.024  0.00  0.00    -0.491 OA
ATOM     25  C   UNL     1      -3.567  -0.854   0.031  0.00  0.00    +0.277 C 
ENDBRANCH  23  24
ENDBRANCH  17  18
ENDBRANCH  16  17
ENDBRANCH  13  16
ENDBRANCH   9  12
BRANCH   1  26
ATOM     26  C   UNL     1       6.523   7.382  -0.021  0.00  0.00    +0.039 C 
BRANCH  26  37
ATOM     27  C   UNL     1       9.249   5.208   0.370  0.00  0.00    +0.011 C 
ATOM     28  C   UNL     1       9.765   6.034  -0.826  0.00  0.00    -0.036 C 
ATOM     29  C   UNL     1       9.355   7.478  -0.640  0.00  0.00    -0.009 C 
ATOM     30  C   UNL     1       8.314   8.022  -1.604  0.00  0.00    -0.065 C 
ATOM     31  C   UNL     1       8.705   7.536  -3.029  0.00  0.00    -0.011 C 
ATOM     32  C   UNL     1       8.281   6.046  -2.915  0.00  0.00    -0.048 C 
ATOM     33  C   UNL     1       9.367   5.336  -2.109  0.00  0.00    +0.011 C 
ATOM     34  C   UNL     1       6.996   6.096  -2.054  0.00  0.00    -0.070 C 
ATOM     35  C   UNL     1       8.039   5.400  -4.287  0.00  0.00    +0.009 C 
ATOM     36  C   UNL     1      11.313   5.983  -0.740  0.00  0.00    +0.011 C 
ATOM     37  N   UNL     1       6.966   7.430  -1.455  0.00  0.00    +0.393 N 
ATOM     38  H   UNL     1       6.295   8.009  -1.974  0.00  0.00    -0.079 HD
ENDBRANCH  26  37
ENDBRANCH   1  26
TORSDOF 7
