REMARK  Name = ZINC02506438
REMARK  6 active torsions:
REMARK  status: ('A' for Active; 'I' for Inactive)
REMARK    1  A    between atoms: C_6  and  N_7
REMARK    2  A    between atoms: C_8  and  C_10
REMARK    3  A    between atoms: N_12  and  N_13
REMARK    4  A    between atoms: C_14  and  C_15
REMARK    5  A    between atoms: C_18  and  O_22
REMARK    6  A    between atoms: C_20  and  O_21
REMARK                            x       y       z     vdW  Elec       q    Type
REMARK                         _______ _______ _______ _____ _____    ______ ____
ROOT
ATOM      1  C   UNL     1      -0.018   1.486   0.017  0.00  0.00    +0.318 C 
ATOM      2  O   UNL     1      -1.078   2.079   0.034  0.00  0.00    -0.263 OA
ATOM      3  N   UNL     1       1.139   2.176   0.007  0.00  0.00    -0.199 N 
ATOM      4  H   UNL     1       1.986   1.703  -0.010  0.00  0.00    +0.178 HD
ENDROOT
BRANCH   1   6
ATOM      5  N   UNL     1      -1.156  -0.694   0.009  0.00  0.00    -0.278 N 
ATOM      6  C   UNL     1       0.002  -0.004   0.000  0.00  0.00    +0.305 C 
ATOM      7  O   UNL     1       1.062  -0.596  -0.022  0.00  0.00    -0.265 OA
ATOM      8  H   UNL     1      -2.000  -0.224   0.095  0.00  0.00    +0.155 HD
BRANCH   5  14
ATOM      9  C   UNL     1      -2.156  -2.741  -0.789  0.00  0.00    +0.024 A 
ATOM     10  C   UNL     1      -2.135  -4.117  -0.905  0.00  0.00    +0.017 A 
ATOM     11  C   UNL     1      -1.109  -4.845  -0.328  0.00  0.00    +0.018 A 
ATOM     12  C   UNL     1      -0.099  -4.197   0.361  0.00  0.00    +0.017 A 
ATOM     13  C   UNL     1      -0.112  -2.820   0.474  0.00  0.00    +0.024 A 
ATOM     14  C   UNL     1      -1.140  -2.087  -0.104  0.00  0.00    +0.034 A 
ATOM     15 BR   UNL     1      -1.087  -6.729  -0.482  0.00  0.00    -0.050 Br
ENDBRANCH   5  14
ENDBRANCH   1   6
BRANCH   3  16
ATOM     16  N   UNL     1       1.120   3.577   0.023  0.00  0.00    -0.187 NA
ATOM     17  C   UNL     1       2.237   4.242   0.014  0.00  0.00    +0.142 C 
BRANCH  17  18
ATOM     18  C   UNL     1       2.217   5.714   0.031  0.00  0.00    +0.036 A 
ATOM     19  C   UNL     1       3.416   6.433   0.021  0.00  0.00    +0.016 A 
ATOM     20  C   UNL     1       3.393   7.809   0.037  0.00  0.00    +0.046 A 
ATOM     21  C   UNL     1       2.180   8.489   0.062  0.00  0.00    +0.120 A 
ATOM     22  C   UNL     1       0.984   7.785   0.071  0.00  0.00    +0.091 A 
ATOM     23  C   UNL     1       0.994   6.402   0.051  0.00  0.00    +0.129 A 
BRANCH  23  24
ATOM     24  O   UNL     1      -0.175   5.712   0.054  0.00  0.00    -0.506 OA
ATOM     25  H   UNL     1      -0.505   5.502   0.938  0.00  0.00    +0.292 HD
ENDBRANCH  23  24
BRANCH  21  26
ATOM     26  O   UNL     1       2.166   9.847   0.076  0.00  0.00    -0.507 OA
ATOM     27  H   UNL     1       2.149  10.249  -0.803  0.00  0.00    +0.292 HD
ENDBRANCH  21  26
ENDBRANCH  17  18
ENDBRANCH   3  16
TORSDOF 6
