REMARK  Name = ZINC21263994
REMARK  14 active torsions:
REMARK  status: ('A' for Active; 'I' for Inactive)
REMARK    1  A    between atoms: C_1  and  C_2
REMARK    2  A    between atoms: C_2  and  C_4
REMARK    3  A    between atoms: C_2  and  N_12
REMARK    4  A    between atoms: C_7  and  O_10
REMARK    5  A    between atoms: O_10  and  C_11
REMARK    6  A    between atoms: N_12  and  C_13
REMARK    7  A    between atoms: N_12  and  C_20
REMARK    8  A    between atoms: C_13  and  C_14
REMARK    9  A    between atoms: C_20  and  N_22
REMARK   10  A    between atoms: N_22  and  C_23
REMARK   11  A    between atoms: C_25  and  C_31
REMARK   12  A    between atoms: C_25  and  C_32
REMARK   13  A    between atoms: C_27  and  C_29
REMARK   14  A    between atoms: C_27  and  C_30
REMARK                            x       y       z     vdW  Elec       q    Type
REMARK                         _______ _______ _______ _____ _____    ______ ____
ROOT
ATOM      1  N   UNL     1       2.852   0.749  -1.425  0.00  0.00    -0.302 N 
ENDROOT
BRANCH   1   3
ATOM      2  C   UNL     1       4.095   2.849  -1.264  0.00  0.00    +0.033 C 
ATOM      3  C   UNL     1       3.727   1.666  -2.161  0.00  0.00    +0.103 C 
BRANCH   3   4
ATOM      4  C   UNL     1       4.980   0.940  -2.576  0.00  0.00    -0.027 A 
ATOM      5  C   UNL     1       5.543  -0.002  -1.735  0.00  0.00    +0.009 A 
ATOM      6  C   UNL     1       6.689  -0.673  -2.115  0.00  0.00    +0.046 A 
ATOM      7  C   UNL     1       7.282  -0.392  -3.338  0.00  0.00    +0.120 A 
ATOM      8  C   UNL     1       6.719   0.559  -4.177  0.00  0.00    +0.046 A 
ATOM      9  C   UNL     1       5.569   1.222  -3.795  0.00  0.00    +0.009 A 
BRANCH   7  10
ATOM     10  O   UNL     1       8.414  -1.045  -3.711  0.00  0.00    -0.495 OA
ATOM     11  C   UNL     1       8.937  -2.010  -2.797  0.00  0.00    +0.277 C 
ENDBRANCH   7  10
ENDBRANCH   3   4
ENDBRANCH   1   3
BRANCH   1  12
ATOM     12  C   UNL     1       2.295  -0.303  -2.057  0.00  0.00    +0.134 C 
ATOM     13  S   UNL     1       2.607  -0.567  -3.719  0.00  0.00    -0.019 S 
BRANCH  12  14
ATOM     14  N   UNL     1       1.490  -1.146  -1.380  0.00  0.00    -0.324 N 
ATOM     15  H   UNL     1       1.290  -0.976  -0.312  0.00  0.00    +0.148 HD
BRANCH  14  16
ATOM     16  C   UNL     1       0.883  -2.292  -2.068  0.00  0.00    +0.069 C 
ATOM     17  C   UNL     1      -0.425  -1.849  -2.724  0.00  0.00    +0.009 C 
ATOM     18  C   UNL     1      -1.091  -3.028  -3.430  0.00  0.00    -0.072 C 
ATOM     19  N   UNL     1      -1.187  -4.206  -2.594  0.00  0.00    +0.386 N 
ATOM     20  C   UNL     1      -0.087  -4.581  -1.731  0.00  0.00    -0.072 C 
ATOM     21  C   UNL     1       0.568  -3.384  -1.046  0.00  0.00    +0.009 C 
ATOM     22  C   UNL     1       0.975  -5.376  -2.500  0.00  0.00    -0.010 C 
ATOM     23  C   UNL     1      -0.637  -5.507  -0.623  0.00  0.00    -0.010 C 
ATOM     24  C   UNL     1      -0.342  -3.333  -4.733  0.00  0.00    -0.010 C 
ATOM     25  C   UNL     1      -2.521  -2.592  -3.816  0.00  0.00    -0.010 C 
ATOM     26  H   UNL     1      -2.037  -4.098  -1.905  0.00  0.00    -0.084 HD
ATOM     27  H   UNL     1      -1.339  -5.093  -3.227  0.00  0.00    -0.084 HD
ENDBRANCH  14  16
ENDBRANCH  12  14
ENDBRANCH   1  12
BRANCH   1  28
ATOM     28  C   UNL     1       2.585   0.976  -0.003  0.00  0.00    +0.144 C 
BRANCH  28  29
ATOM     29  C   UNL     1       1.306   1.758   0.150  0.00  0.00    -0.012 A 
ATOM     30  C   UNL     1       0.080   1.111   0.130  0.00  0.00    +0.008 A 
ATOM     31  C   UNL     1      -1.071   1.872   0.269  0.00  0.00    +0.020 A 
ATOM     32  C   UNL     1      -0.957   3.240   0.432  0.00  0.00    +0.111 A 
ATOM     33  N   UNL     1       0.226   3.822   0.446  0.00  0.00    -0.263 NA
ATOM     34  C   UNL     1       1.341   3.130   0.311  0.00  0.00    +0.115 A 
ENDBRANCH  28  29
ENDBRANCH   1  28
TORSDOF 8
