REMARK  Name = ZINC11423398
REMARK  11 active torsions:
REMARK  status: ('A' for Active; 'I' for Inactive)
REMARK    1  A    between atoms: C_3  and  S_27
REMARK    2  A    between atoms: C_6  and  C_7
REMARK    3  A    between atoms: C_7  and  C_8
REMARK    4  A    between atoms: C_8  and  N_9
REMARK    5  A    between atoms: C_10  and  C_12
REMARK    6  A    between atoms: C_12  and  O_13
REMARK    7  A    between atoms: O_13  and  C_14
REMARK    8  A    between atoms: C_14  and  C_16
REMARK    9  A    between atoms: C_16  and  O_17
REMARK   10  A    between atoms: O_17  and  C_18
REMARK   11  A    between atoms: S_27  and  N_30
REMARK                            x       y       z     vdW  Elec       q    Type
REMARK                         _______ _______ _______ _____ _____    ______ ____
ROOT
ATOM      1  N   UNL     1      -0.067   1.120  -2.437  0.00  0.00    -0.312 N 
ATOM      2  C   UNL     1      -0.543   1.446  -3.655  0.00  0.00    +0.251 C 
ATOM      3  O   UNL     1      -1.540   2.130  -3.753  0.00  0.00    -0.272 OA
ATOM      4  H   UNL     1       0.730   0.573  -2.358  0.00  0.00    +0.149 HD
ENDROOT
BRANCH   1   5
ATOM      5  C   UNL     1      -0.753   1.593  -1.232  0.00  0.00    +0.109 C 
BRANCH   5   6
ATOM      6  C   UNL     1      -0.013   1.086   0.008  0.00  0.00    +0.054 C 
BRANCH   6  12
ATOM      7  C   UNL     1      -0.360   2.779   1.819  0.00  0.00    +0.005 A 
ATOM      8  C   UNL     1      -1.010   3.227   2.953  0.00  0.00    +0.029 A 
ATOM      9  C   UNL     1      -2.012   2.463   3.523  0.00  0.00    +0.105 A 
ATOM     10  C   UNL     1      -2.366   1.254   2.955  0.00  0.00    +0.029 A 
ATOM     11  C   UNL     1      -1.719   0.808   1.818  0.00  0.00    +0.005 A 
ATOM     12  C   UNL     1      -0.718   1.572   1.248  0.00  0.00    -0.046 A 
BRANCH   9  13
ATOM     13  S   UNL     1      -2.837   3.032   4.972  0.00  0.00    +0.056 S 
ATOM     14  O   UNL     1      -2.695   4.446   4.992  0.00  0.00    -0.153 OA
ATOM     15  O   UNL     1      -4.107   2.394   4.993  0.00  0.00    -0.153 OA
BRANCH  13  16
ATOM     16  N   UNL     1      -1.995   2.453   6.274  0.00  0.00    -0.204 NA
ATOM     17  H   UNL     1      -1.981   2.954   7.105  0.00  0.00    +0.144 HD
ATOM     18  H   UNL     1      -1.514   1.613   6.207  0.00  0.00    +0.144 HD
ENDBRANCH  13  16
ENDBRANCH   9  13
ENDBRANCH   6  12
ENDBRANCH   5   6
ENDBRANCH   1   5
BRANCH   2  19
ATOM     19  C   UNL     1       0.162   0.960  -4.895  0.00  0.00    +0.327 C 
BRANCH  19  20
ATOM     20  O   UNL     1      -0.540   1.441  -6.071  0.00  0.00    -0.453 OA
BRANCH  20  21
ATOM     21  C   UNL     1      -0.037   1.094  -7.266  0.00  0.00    +0.346 C 
ATOM     22  O   UNL     1       0.958   0.410  -7.327  0.00  0.00    -0.247 OA
BRANCH  21  23
ATOM     23  C   UNL     1      -0.712   1.556  -8.531  0.00  0.00    +0.349 C 
BRANCH  23  24
ATOM     24  O   UNL     1       0.007   1.061  -9.663  0.00  0.00    -0.479 OA
BRANCH  24  25
ATOM     25  C   UNL     1      -0.474   1.390 -10.891  0.00  0.00    +0.141 A 
ATOM     26  C   UNL     1      -1.613   2.172 -11.004  0.00  0.00    +0.068 A 
ATOM     27  C   UNL     1      -2.100   2.506 -12.255  0.00  0.00    +0.063 A 
ATOM     28  C   UNL     1      -1.451   2.059 -13.393  0.00  0.00    +0.061 A 
ATOM     29  C   UNL     1      -0.315   1.279 -13.282  0.00  0.00    +0.045 A 
ATOM     30  C   UNL     1       0.178   0.947 -12.034  0.00  0.00    +0.084 A 
ATOM     31 CL   UNL     1       1.609  -0.027 -11.895  0.00  0.00    -0.080 Cl
ATOM     32 CL   UNL     1      -2.065   2.479 -14.962  0.00  0.00    -0.082 Cl
ATOM     33 CL   UNL     1      -3.526   3.486 -12.397  0.00  0.00    -0.082 Cl
ENDBRANCH  24  25
ENDBRANCH  23  24
ENDBRANCH  21  23
ENDBRANCH  20  21
ENDBRANCH  19  20
ENDBRANCH   2  19
TORSDOF 11
