REMARK  Name = ZINC21248004
REMARK  6 active torsions:
REMARK  status: ('A' for Active; 'I' for Inactive)
REMARK    1  A    between atoms: C_1  and  C_2
REMARK    2  A    between atoms: C_2  and  O_3
REMARK    3  A    between atoms: O_3  and  C_4
REMARK    4  A    between atoms: C_6  and  C_12
REMARK    5  A    between atoms: C_9  and  O_10
REMARK    6  A    between atoms: C_17  and  C_22
REMARK                            x       y       z     vdW  Elec       q    Type
REMARK                         _______ _______ _______ _____ _____    ______ ____
ROOT
ATOM      1  C   UNL     1       3.672   2.193  -0.020  0.00  0.00    +0.136 C 
ATOM      2  C   UNL     1       3.934   2.703   1.378  0.00  0.00    +0.036 C 
ATOM      3  C   UNL     1       3.865   3.979   1.779  0.00  0.00    +0.017 C 
ATOM      4  C   UNL     1       4.110   4.341   3.236  0.00  0.00    +0.059 C 
ATOM      5  C   UNL     1       5.153   3.400   3.836  0.00  0.00    +0.032 C 
ATOM      6  C   UNL     1       4.608   1.971   3.733  0.00  0.00    +0.088 C 
ATOM      7  C   UNL     1       4.288   1.683   2.297  0.00  0.00    +0.163 C 
ATOM      8  O   UNL     1       4.333   0.533   1.907  0.00  0.00    -0.292 OA
ATOM      9  N   UNL     1       3.571   5.036   0.979  0.00  0.00    -0.316 N 
ATOM     10  C   UNL     1       2.514   5.074   0.075  0.00  0.00    +0.052 A 
ATOM     11  C   UNL     1       1.476   5.982   0.187  0.00  0.00    +0.025 A 
ATOM     12  C   UNL     1       0.497   6.018  -0.791  0.00  0.00    +0.002 A 
ATOM     13  C   UNL     1       0.557   5.153  -1.869  0.00  0.00    +0.002 A 
ATOM     14  C   UNL     1       1.583   4.229  -1.970  0.00  0.00    +0.025 A 
ATOM     15  C   UNL     1       2.555   4.178  -0.983  0.00  0.00    +0.049 A 
ATOM     16  N   UNL     1       3.578   3.234  -1.022  0.00  0.00    -0.331 N 
ATOM     17  H   UNL     1       4.188   5.946   1.019  0.00  0.00    +0.152 HD
ATOM     18  H   UNL     1       4.321   3.288  -1.831  0.00  0.00    +0.147 HD
ENDROOT
BRANCH   1  21
ATOM     19  C   UNL     1       1.202  -0.656  -0.261  0.00  0.00    +0.163 A 
ATOM     20  C   UNL     1       2.389   0.059  -0.268  0.00  0.00    +0.055 A 
ATOM     21  C   UNL     1       2.380   1.417  -0.013  0.00  0.00    -0.018 A 
ATOM     22  C   UNL     1       1.187   2.066   0.250  0.00  0.00    +0.025 A 
ATOM     23  C   UNL     1      -0.001   1.359   0.258  0.00  0.00    +0.063 A 
ATOM     24  C   UNL     1       0.002  -0.004   0.003  0.00  0.00    +0.173 A 
ATOM     25 BR   UNL     1      -1.631   2.251   0.611  0.00  0.00    -0.046 Br
BRANCH  24  26
ATOM     26  O   UNL     1      -1.165  -0.702   0.011  0.00  0.00    -0.503 OA
ATOM     27  H   UNL     1      -2.114  -0.185   0.221  0.00  0.00    +0.292 HD
ENDBRANCH  24  26
BRANCH  19  28
ATOM     28  O   UNL     1       1.211  -1.993  -0.512  0.00  0.00    -0.489 OA
BRANCH  28  30
ATOM     29  C   UNL     1       2.289  -4.092  -1.032  0.00  0.00    +0.048 C 
ATOM     30  C   UNL     1       2.479  -2.596  -0.775  0.00  0.00    +0.226 C 
ENDBRANCH  28  30
ENDBRANCH  19  28
ENDBRANCH   1  21
BRANCH   5  31
ATOM     31  C   UNL     1       5.389   3.754   5.282  0.00  0.00    -0.043 A 
ATOM     32  C   UNL     1       4.342   3.709   6.183  0.00  0.00    +0.007 A 
ATOM     33  C   UNL     1       4.558   4.029   7.510  0.00  0.00    +0.038 A 
ATOM     34  C   UNL     1       5.821   4.404   7.935  0.00  0.00    +0.123 A 
ATOM     35  C   UNL     1       6.868   4.454   7.030  0.00  0.00    +0.038 A 
ATOM     36  C   UNL     1       6.651   4.128   5.705  0.00  0.00    +0.007 A 
ATOM     37  F   UNL     1       6.032   4.721   9.231  0.00  0.00    -0.205 F 
ENDBRANCH   5  31
TORSDOF 5
