REMARK  Name = ZINC26510149
REMARK  7 active torsions:
REMARK  status: ('A' for Active; 'I' for Inactive)
REMARK    1  A    between atoms: C_1  and  C_2
REMARK    2  A    between atoms: C_2  and  C_3
REMARK    3  A    between atoms: C_2  and  C_4
REMARK    4  A    between atoms: C_2  and  C_5
REMARK    5  A    between atoms: C_13  and  N_18
REMARK    6  A    between atoms: N_18  and  S_19
REMARK    7  A    between atoms: S_19  and  C_22
REMARK                            x       y       z     vdW  Elec       q    Type
REMARK                         _______ _______ _______ _____ _____    ______ ____
ROOT
ATOM      1  C   UNL     1      -1.346   1.606  -0.952  0.00  0.00    -0.001 C 
ATOM      2  C   UNL     1      -2.835   1.375  -0.674  0.00  0.00    +0.012 C 
ATOM      3  C   UNL     1      -3.298   2.319   0.441  0.00  0.00    +0.075 C 
ATOM      4  C   UNL     1      -2.341   2.199   1.603  0.00  0.00    +0.109 A 
ATOM      5  C   UNL     1      -1.108   1.653   1.506  0.00  0.00    +0.002 A 
ATOM      6  C   UNL     1      -0.522   1.729   2.827  0.00  0.00    +0.025 A 
ATOM      7  C   UNL     1       0.713   1.331   3.343  0.00  0.00    +0.036 A 
ATOM      8  C   UNL     1       0.933   1.572   4.694  0.00  0.00    +0.049 A 
ATOM      9  C   UNL     1      -0.030   2.179   5.492  0.00  0.00    +0.028 A 
ATOM     10  C   UNL     1      -1.258   2.578   4.993  0.00  0.00    +0.049 A 
ATOM     11  C   UNL     1      -1.502   2.347   3.642  0.00  0.00    +0.136 A 
ATOM     12  O   UNL     1      -2.561   2.606   2.868  0.00  0.00    -0.459 OA
ATOM     13  C   UNL     1      -0.524   1.092   0.236  0.00  0.00    +0.043 C 
ENDROOT
BRANCH   1  15
ATOM     14  C   UNL     1      -1.201  -0.645  -2.027  0.00  0.00    +0.011 C 
ATOM     15  C   UNL     1      -0.940   0.851  -2.219  0.00  0.00    -0.035 C 
ATOM     16  C   UNL     1      -1.760   1.364  -3.404  0.00  0.00    +0.011 C 
ATOM     17  C   UNL     1       0.548   1.077  -2.492  0.00  0.00    +0.011 C 
ENDBRANCH   1  15
BRANCH   8  18
ATOM     18  N   UNL     1       2.153   1.195   5.265  0.00  0.00    -0.216 N 
ATOM     19  H   UNL     1       2.571   0.198   5.060  0.00  0.00    +0.174 HD
BRANCH  18  20
ATOM     20  S   UNL     1       2.969   2.248   6.248  0.00  0.00    +0.073 S 
ATOM     21  O   UNL     1       2.047   2.671   7.244  0.00  0.00    -0.150 OA
ATOM     22  O   UNL     1       4.206   1.629   6.570  0.00  0.00    -0.150 OA
BRANCH  20  23
ATOM     23  C   UNL     1       3.354   3.671   5.282  0.00  0.00    +0.116 A 
ATOM     24  C   UNL     1       2.818   4.881   5.602  0.00  0.00    +0.029 A 
ATOM     25  C   UNL     1       3.114   6.018   4.853  0.00  0.00    +0.003 A 
ATOM     26  C   UNL     1       3.941   5.949   3.773  0.00  0.00    +0.008 A 
ATOM     27  C   UNL     1       4.509   4.717   3.409  0.00  0.00    -0.016 A 
ATOM     28  C   UNL     1       4.211   3.561   4.174  0.00  0.00    +0.009 A 
ATOM     29  C   UNL     1       4.779   2.329   3.810  0.00  0.00    +0.010 A 
ATOM     30  C   UNL     1       5.606   2.261   2.731  0.00  0.00    +0.001 A 
ATOM     31  C   UNL     1       5.899   3.397   1.979  0.00  0.00    +0.001 A 
ATOM     32  C   UNL     1       5.367   4.608   2.302  0.00  0.00    +0.008 A 
ENDBRANCH  20  23
ENDBRANCH  18  20
ENDBRANCH   8  18
TORSDOF 4
