REMARK  Name = ZINC36581976
REMARK  20 active torsions:
REMARK  status: ('A' for Active; 'I' for Inactive)
REMARK    1  A    between atoms: C_1  and  C_2
REMARK    2  A    between atoms: C_2  and  C_3
REMARK    3  A    between atoms: C_3  and  C_4
REMARK    4  A    between atoms: C_4  and  C_5
REMARK    5  A    between atoms: C_5  and  C_6
REMARK    6  A    between atoms: C_7  and  C_8
REMARK    7  A    between atoms: N_10  and  C_11
REMARK    8  A    between atoms: N_10  and  C_29
REMARK    9  A    between atoms: C_11  and  C_13
REMARK   10  A    between atoms: C_11  and  C_22
REMARK   11  A    between atoms: C_14  and  O_21
REMARK   12  A    between atoms: C_16  and  O_20
REMARK   13  A    between atoms: C_18  and  O_19
REMARK   14  A    between atoms: N_24  and  C_25
REMARK   15  A    between atoms: C_25  and  C_26
REMARK   16  A    between atoms: C_25  and  C_27
REMARK   17  A    between atoms: C_25  and  C_28
REMARK   18  A    between atoms: C_29  and  C_30
REMARK   19  A    between atoms: C_29  and  C_31
REMARK   20  A    between atoms: C_29  and  C_32
REMARK                            x       y       z     vdW  Elec       q    Type
REMARK                         _______ _______ _______ _____ _____    ______ ____
ROOT
ATOM      1  C   UNL     1       6.633  -3.654   2.850  0.00  0.00    +0.200 C 
ENDROOT
BRANCH   1   2
ATOM      2  C   UNL     1       6.256  -2.500   3.743  0.00  0.00    +0.065 A 
ATOM      3  C   UNL     1       5.016  -1.895   3.607  0.00  0.00    +0.129 A 
ATOM      4  C   UNL     1       4.668  -0.833   4.428  0.00  0.00    +0.091 A 
ATOM      5  C   UNL     1       5.561  -0.376   5.386  0.00  0.00    +0.124 A 
ATOM      6  C   UNL     1       6.802  -0.981   5.522  0.00  0.00    +0.091 A 
ATOM      7  C   UNL     1       7.147  -2.046   4.704  0.00  0.00    +0.129 A 
BRANCH   7   8
ATOM      8  O   UNL     1       8.361  -2.643   4.840  0.00  0.00    -0.506 OA
ATOM      9  H   UNL     1       9.056  -2.250   4.294  0.00  0.00    +0.292 HD
ENDBRANCH   7   8
BRANCH   5  10
ATOM     10  O   UNL     1       5.222   0.665   6.190  0.00  0.00    -0.507 OA
ATOM     11  H   UNL     1       4.783   0.402   7.010  0.00  0.00    +0.292 HD
ENDBRANCH   5  10
BRANCH   3  12
ATOM     12  O   UNL     1       4.140  -2.343   2.669  0.00  0.00    -0.506 OA
ATOM     13  H   UNL     1       3.520  -3.009   2.996  0.00  0.00    +0.292 HD
ENDBRANCH   3  12
ENDBRANCH   1   2
BRANCH   1  14
ATOM     14  C   UNL     1       6.504  -3.237   1.408  0.00  0.00    +0.239 C 
ATOM     15  O   UNL     1       5.559  -3.617   0.749  0.00  0.00    -0.273 OA
ATOM     16  N   UNL     1       7.438  -2.441   0.850  0.00  0.00    -0.309 N 
ATOM     17  H   UNL     1       8.193  -2.137   1.377  0.00  0.00    +0.149 HD
BRANCH  16  18
ATOM     18  C   UNL     1       7.312  -2.035  -0.552  0.00  0.00    +0.026 C 
ATOM     19  C   UNL     1       6.006  -1.263  -0.744  0.00  0.00    +0.031 C 
ATOM     20  C   UNL     1       8.494  -1.142  -0.932  0.00  0.00    +0.031 C 
ATOM     21  C   UNL     1       7.306  -3.279  -1.444  0.00  0.00    +0.031 C 
ENDBRANCH  16  18
ENDBRANCH   1  14
BRANCH   1  24
ATOM     22  C   UNL     1       4.756  -4.670   4.025  0.00  0.00    +0.240 C 
ATOM     23  O   UNL     1       4.670  -3.664   4.702  0.00  0.00    -0.271 OA
ATOM     24  N   UNL     1       5.741  -4.786   3.113  0.00  0.00    -0.277 N 
BRANCH  24  25
ATOM     25  C   UNL     1       5.921  -6.044   2.384  0.00  0.00    +0.030 C 
ATOM     26  C   UNL     1       4.678  -6.324   1.536  0.00  0.00    +0.031 C 
ATOM     27  C   UNL     1       7.146  -5.936   1.474  0.00  0.00    +0.031 C 
ATOM     28  C   UNL     1       6.126  -7.187   3.381  0.00  0.00    +0.031 C 
ENDBRANCH  24  25
BRANCH  22  30
ATOM     29  C   UNL     1       2.744  -5.600   5.013  0.00  0.00    -0.022 C 
ATOM     30  C   UNL     1       3.785  -5.761   4.201  0.00  0.00    +0.063 C 
BRANCH  29  31
ATOM     31  C   UNL     1       2.358  -4.220   5.479  0.00  0.00    +0.027 C 
BRANCH  31  32
ATOM     32  C   UNL     1       0.863  -4.000   5.238  0.00  0.00    +0.004 C 
BRANCH  32  33
ATOM     33  C   UNL     1       0.472  -2.598   5.711  0.00  0.00    +0.000 C 
BRANCH  33  35
ATOM     34  C   UNL     1      -1.415  -0.977   5.943  0.00  0.00    +0.004 C 
ATOM     35  C   UNL     1      -1.023  -2.378   5.470  0.00  0.00    -0.003 C 
ENDBRANCH  33  35
ENDBRANCH  32  33
ENDBRANCH  31  32
ENDBRANCH  29  31
ENDBRANCH  22  30
ENDBRANCH   1  24
TORSDOF 13
