REMARK  Name = ZINC39672153
REMARK  5 active torsions:
REMARK  status: ('A' for Active; 'I' for Inactive)
REMARK    1  A    between atoms: C_1  and  N_2
REMARK    2  A    between atoms: C_10  and  C_12
REMARK    3  A    between atoms: C_12  and  N_13
REMARK    4  A    between atoms: C_14  and  C_16
REMARK    5  A    between atoms: C_27  and  C_29
REMARK                            x       y       z     vdW  Elec       q    Type
REMARK                         _______ _______ _______ _____ _____    ______ ____
ROOT
ATOM      1  C   UNL     1       7.156  -3.745   2.452  0.00  0.00    +0.100 C 
ATOM      2  C   UNL     1       6.299  -4.652   3.364  0.00  0.00    +0.121 C 
ATOM      3  N   UNL     1       6.921  -5.992   3.250  0.00  0.00    -0.296 N 
ATOM      4  C   UNL     1       8.379  -5.721   3.223  0.00  0.00    +0.115 C 
ATOM      5  C   UNL     1       8.521  -4.448   2.366  0.00  0.00    -0.004 C 
ATOM      6  C   UNL     1       9.615  -3.549   2.932  0.00  0.00    -0.010 C 
ATOM      7  C   UNL     1      10.971  -4.245   2.781  0.00  0.00    -0.082 C 
ATOM      8  N   UNL     1      11.224  -4.525   1.363  0.00  0.00    +0.379 N 
ATOM      9  C   UNL     1      10.220  -5.464   0.850  0.00  0.00    -0.082 C 
ATOM     10  C   UNL     1       8.833  -4.819   0.919  0.00  0.00    -0.010 C 
ATOM     11  C   UNL     1       6.302  -7.188   3.184  0.00  0.00    +0.247 C 
ATOM     12  O   UNL     1       5.090  -7.241   3.110  0.00  0.00    -0.270 OA
ATOM     13  H   UNL     1      11.177  -3.664   0.838  0.00  0.00    -0.086 HD
ATOM     14  H   UNL     1      12.144  -4.928   1.260  0.00  0.00    -0.086 HD
ENDROOT
BRANCH  11  15
ATOM     15  C   UNL     1       7.097  -8.433   3.204  0.00  0.00    +0.037 A 
ATOM     16  C   UNL     1       8.372  -8.439   3.797  0.00  0.00    +0.013 A 
ATOM     17  C   UNL     1       9.121  -9.570   3.827  0.00  0.00    +0.009 A 
ATOM     18  C   UNL     1       8.624 -10.758   3.260  0.00  0.00    -0.018 A 
ATOM     19  C   UNL     1       9.381 -11.942   3.279  0.00  0.00    +0.008 A 
ATOM     20  C   UNL     1       8.874 -13.076   2.722  0.00  0.00    +0.001 A 
ATOM     21  C   UNL     1       7.612 -13.084   2.131  0.00  0.00    +0.001 A 
ATOM     22  C   UNL     1       6.850 -11.957   2.093  0.00  0.00    +0.008 A 
ATOM     23  C   UNL     1       7.340 -10.766   2.658  0.00  0.00    -0.017 A 
ATOM     24  C   UNL     1       6.578  -9.588   2.642  0.00  0.00    +0.021 A 
ENDBRANCH  11  15
BRANCH   1  26
ATOM     25  N   UNL     1       6.853  -2.607   0.277  0.00  0.00    -0.311 N 
ATOM     26  C   UNL     1       6.533  -3.638   1.084  0.00  0.00    +0.218 C 
ATOM     27  O   UNL     1       5.743  -4.479   0.710  0.00  0.00    -0.275 OA
ATOM     28  H   UNL     1       7.484  -1.935   0.576  0.00  0.00    +0.149 HD
BRANCH  25  29
ATOM     29  C   UNL     1       6.247  -2.503  -1.053  0.00  0.00    +0.139 C 
BRANCH  29  39
ATOM     30  C   UNL     1       9.572   2.118  -4.241  0.00  0.00    +0.129 C 
ATOM     31  N   UNL     1       8.225   2.126  -3.667  0.00  0.00    -0.333 N 
ATOM     32  C   UNL     1       7.377   3.321  -3.768  0.00  0.00    +0.105 C 
ATOM     33  C   UNL     1       6.731   3.555  -2.396  0.00  0.00    +0.024 C 
ATOM     34  C   UNL     1       5.829   2.367  -2.066  0.00  0.00    +0.038 C 
ATOM     35  C   UNL     1       6.580   1.072  -2.234  0.00  0.00    -0.026 A 
ATOM     36  C   UNL     1       7.722   0.993  -3.018  0.00  0.00    +0.033 A 
ATOM     37  C   UNL     1       8.386  -0.220  -3.161  0.00  0.00    +0.024 A 
ATOM     38  C   UNL     1       7.908  -1.349  -2.526  0.00  0.00    +0.007 A 
ATOM     39  C   UNL     1       6.768  -1.272  -1.747  0.00  0.00    -0.030 A 
ATOM     40  C   UNL     1       6.110  -0.062  -1.595  0.00  0.00    +0.010 A 
ENDBRANCH  29  39
ENDBRANCH  25  29
ENDBRANCH   1  26
TORSDOF 4
