REMARK  Name = ZINC35664192
REMARK  13 active torsions:
REMARK  status: ('A' for Active; 'I' for Inactive)
REMARK    1  A    between atoms: C_1  and  C_2
REMARK    2  A    between atoms: C_2  and  N_3
REMARK    3  A    between atoms: C_4  and  C_23
REMARK    4  A    between atoms: C_5  and  C_18
REMARK    5  A    between atoms: C_6  and  C_11
REMARK    6  A    between atoms: C_14  and  C_17
REMARK    7  A    between atoms: C_18  and  O_20
REMARK    8  A    between atoms: O_20  and  C_21
REMARK    9  A    between atoms: C_21  and  C_22
REMARK   10  A    between atoms: C_23  and  N_24
REMARK   11  A    between atoms: C_31  and  C_33
REMARK   12  A    between atoms: C_36  and  O_39
REMARK   13  A    between atoms: O_39  and  C_40
REMARK                            x       y       z     vdW  Elec       q    Type
REMARK                         _______ _______ _______ _____ _____    ______ ____
ROOT
ATOM      1  N   UNL     1       1.099  -0.315  -1.608  0.00  0.00    -0.261 N 
ATOM      2  C   UNL     1       0.248  -0.767  -2.576  0.00  0.00    +0.010 C 
ATOM      3  C   UNL     1       0.710  -1.436  -3.654  0.00  0.00    +0.076 C 
ATOM      4  C   UNL     1       2.204  -1.668  -3.753  0.00  0.00    +0.143 C 
ATOM      5  N   UNL     1       3.035  -1.140  -2.657  0.00  0.00    -0.288 N 
ATOM      6  C   UNL     1       2.426  -0.488  -1.647  0.00  0.00    +0.307 C 
ATOM      7  O   UNL     1       3.103  -0.045  -0.740  0.00  0.00    -0.252 OA
ATOM      8  H   UNL     1       3.998  -1.257  -2.663  0.00  0.00    +0.151 HD
ENDROOT
BRANCH   4   9
ATOM      9  C   UNL     1       2.439  -3.154  -3.839  0.00  0.00    -0.022 A 
ATOM     10  C   UNL     1       2.405  -3.927  -2.694  0.00  0.00    +0.006 A 
ATOM     11  C   UNL     1       2.621  -5.290  -2.773  0.00  0.00    +0.004 A 
ATOM     12  C   UNL     1       2.870  -5.880  -3.998  0.00  0.00    -0.050 A 
ATOM     13  C   UNL     1       2.903  -5.107  -5.144  0.00  0.00    +0.004 A 
ATOM     14  C   UNL     1       2.683  -3.745  -5.065  0.00  0.00    +0.006 A 
ATOM     15  C   UNL     1       3.106  -7.366  -4.084  0.00  0.00    +0.044 C 
ENDBRANCH   4   9
BRANCH   1  17
ATOM     16  C   UNL     1       0.584   1.909  -0.732  0.00  0.00    +0.025 C 
ATOM     17  C   UNL     1       0.528   0.403  -0.466  0.00  0.00    +0.111 C 
ENDBRANCH   1  17
BRANCH   3  18
ATOM     18  C   UNL     1      -0.170  -1.905  -4.657  0.00  0.00    +0.339 C 
ATOM     19  O   UNL     1      -1.357  -1.645  -4.595  0.00  0.00    -0.245 OA
BRANCH  18  20
ATOM     20  O   UNL     1       0.306  -2.640  -5.683  0.00  0.00    -0.462 OA
BRANCH  20  21
ATOM     21  C   UNL     1      -0.639  -3.081  -6.660  0.00  0.00    +0.229 C 
ATOM     22  C   UNL     1       0.081  -3.894  -7.737  0.00  0.00    +0.048 C 
ENDBRANCH  20  21
ENDBRANCH  18  20
ENDBRANCH   3  18
BRANCH   2  23
ATOM     23  C   UNL     1      -1.232  -0.515  -2.439  0.00  0.00    -0.026 C 
BRANCH  23  24
ATOM     24  N   UNL     1      -1.887  -1.720  -1.913  0.00  0.00    +0.384 N 
ATOM     25  C   UNL     1      -3.334  -1.534  -2.003  0.00  0.00    -0.077 C 
ATOM     26  C   UNL     1      -4.000  -2.881  -2.178  0.00  0.00    +0.000 C 
ATOM     27  C   UNL     1      -4.411  -3.432  -0.800  0.00  0.00    +0.106 C 
ATOM     28  N   UNL     1      -3.374  -3.154   0.214  0.00  0.00    -0.299 N 
ATOM     29  C   UNL     1      -1.959  -3.294  -0.065  0.00  0.00    +0.089 C 
ATOM     30  C   UNL     1      -1.398  -1.960  -0.610  0.00  0.00    -0.059 C 
ATOM     31  C   UNL     1      -3.757  -2.756   1.443  0.00  0.00    +0.247 C 
ATOM     32  O   UNL     1      -2.923  -2.419   2.261  0.00  0.00    -0.270 OA
ATOM     33  H   UNL     1      -1.631  -2.501  -2.498  0.00  0.00    -0.081 HD
BRANCH  31  34
ATOM     34  C   UNL     1      -5.190  -2.729   1.796  0.00  0.00    +0.037 A 
ATOM     35  C   UNL     1      -6.052  -3.711   1.302  0.00  0.00    +0.016 A 
ATOM     36  C   UNL     1      -7.388  -3.683   1.635  0.00  0.00    +0.046 A 
ATOM     37  C   UNL     1      -7.879  -2.679   2.461  0.00  0.00    +0.120 A 
ATOM     38  C   UNL     1      -7.025  -1.700   2.955  0.00  0.00    +0.046 A 
ATOM     39  C   UNL     1      -5.687  -1.725   2.631  0.00  0.00    +0.016 A 
BRANCH  37  40
ATOM     40  O   UNL     1      -9.197  -2.655   2.785  0.00  0.00    -0.495 OA
ATOM     41  C   UNL     1      -9.635  -1.595   3.638  0.00  0.00    +0.277 C 
ENDBRANCH  37  40
ENDBRANCH  31  34
ENDBRANCH  23  24
ENDBRANCH   2  23
TORSDOF 9
