REMARK  Name = ZINC12300933
REMARK  8 active torsions:
REMARK  status: ('A' for Active; 'I' for Inactive)
REMARK    1  A    between atoms: C_1  and  C_2
REMARK    2  A    between atoms: C_2  and  C_34
REMARK    3  A    between atoms: C_9  and  C_11
REMARK    4  A    between atoms: C_11  and  C_12
REMARK    5  A    between atoms: N_19  and  C_20
REMARK    6  A    between atoms: C_20  and  C_21
REMARK    7  A    between atoms: C_21  and  C_22
REMARK    8  A    between atoms: C_21  and  C_28
REMARK                            x       y       z     vdW  Elec       q    Type
REMARK                         _______ _______ _______ _____ _____    ______ ____
ROOT
ATOM      1  C   UNL     1       4.225   0.740   4.310  0.00  0.00    +0.028 C 
ATOM      2  C   UNL     1       5.330   0.345   5.248  0.00  0.00    +0.200 C 
ATOM      3  O   UNL     1       5.062  -0.357   6.200  0.00  0.00    -0.278 OA
ATOM      4  N   UNL     1       6.598   0.738   5.076  0.00  0.00    -0.318 N 
ATOM      5  C   UNL     1       7.021   1.560   3.946  0.00  0.00    +0.085 C 
ATOM      6  C   UNL     1       5.803   2.229   3.304  0.00  0.00    -0.059 C 
ATOM      7  N   UNL     1       4.788   1.199   3.034  0.00  0.00    +0.389 N 
ATOM      8  H   UNL     1       7.262   0.465   5.728  0.00  0.00    +0.149 HD
ATOM      9  H   UNL     1       5.214   0.421   2.553  0.00  0.00    -0.081 HD
ENDROOT
BRANCH   1  10
ATOM     10  C   UNL     1       3.318  -0.466   4.059  0.00  0.00    +0.090 C 
BRANCH  10  19
ATOM     11  C   UNL     1       5.722  -3.485   2.331  0.00  0.00    +0.041 C 
ATOM     12  C   UNL     1       4.331  -3.943   2.773  0.00  0.00    +0.108 C 
ATOM     13  C   UNL     1       3.625  -4.597   1.617  0.00  0.00    +0.236 C 
ATOM     14  O   UNL     1       4.225  -5.427   0.967  0.00  0.00    -0.273 OA
ATOM     15  N   UNL     1       2.369  -4.306   1.273  0.00  0.00    -0.312 N 
ATOM     16  C   UNL     1       1.559  -3.272   1.901  0.00  0.00    +0.123 C 
ATOM     17  C   UNL     1       2.086  -2.943   3.299  0.00  0.00    +0.127 C 
ATOM     18  N   UNL     1       3.546  -2.780   3.213  0.00  0.00    -0.286 N 
ATOM     19  C   UNL     1       4.141  -1.611   3.526  0.00  0.00    +0.215 C 
ATOM     20  O   UNL     1       5.337  -1.480   3.377  0.00  0.00    -0.276 OA
ATOM     21  C   UNL     1       4.461  -4.939   3.927  0.00  0.00    +0.041 C 
ATOM     22  H   UNL     1       1.968  -4.820   0.555  0.00  0.00    +0.149 HD
ENDBRANCH  10  19
ENDBRANCH   1  10
BRANCH   7  23
ATOM     23  C   UNL     1       3.721   1.771   2.202  0.00  0.00    -0.065 C 
BRANCH  23  24
ATOM     24  C   UNL     1       4.276   2.100   0.815  0.00  0.00    +0.032 C 
BRANCH  24  25
ATOM     25  C   UNL     1       4.683   0.825   0.122  0.00  0.00    -0.042 A 
ATOM     26  C   UNL     1       5.956   0.699  -0.402  0.00  0.00    +0.004 A 
ATOM     27  C   UNL     1       6.329  -0.470  -1.038  0.00  0.00    +0.000 A 
ATOM     28  C   UNL     1       5.429  -1.514  -1.150  0.00  0.00    +0.000 A 
ATOM     29  C   UNL     1       4.157  -1.388  -0.626  0.00  0.00    +0.000 A 
ATOM     30  C   UNL     1       3.785  -0.220   0.014  0.00  0.00    +0.004 A 
ENDBRANCH  24  25
BRANCH  24  31
ATOM     31  C   UNL     1       3.216   2.797   0.002  0.00  0.00    -0.042 A 
ATOM     32  C   UNL     1       1.958   2.239  -0.117  0.00  0.00    +0.004 A 
ATOM     33  C   UNL     1       0.985   2.879  -0.863  0.00  0.00    +0.000 A 
ATOM     34  C   UNL     1       1.272   4.078  -1.488  0.00  0.00    +0.000 A 
ATOM     35  C   UNL     1       2.530   4.637  -1.368  0.00  0.00    +0.000 A 
ATOM     36  C   UNL     1       3.501   3.999  -0.619  0.00  0.00    +0.004 A 
ENDBRANCH  24  31
ENDBRANCH  23  24
ENDBRANCH   7  23
TORSDOF 6
