REMARK  Name = ZINC08750555
REMARK  7 active torsions:
REMARK  status: ('A' for Active; 'I' for Inactive)
REMARK    1  A    between atoms: C_1  and  C_2
REMARK    2  A    between atoms: C_2  and  C_23
REMARK    3  A    between atoms: N_5  and  C_9
REMARK    4  A    between atoms: C_9  and  C_10
REMARK    5  A    between atoms: N_12  and  C_13
REMARK    6  A    between atoms: C_16  and  S_19
REMARK    7  A    between atoms: S_19  and  C_22
REMARK                            x       y       z     vdW  Elec       q    Type
REMARK                         _______ _______ _______ _____ _____    ______ ____
ROOT
ATOM      1  C   UNL     1       5.304   8.844   0.531  0.00  0.00    +0.050 C 
ATOM      2  C   UNL     1       4.189   7.858   0.176  0.00  0.00    +0.168 C 
ATOM      3  C   UNL     1       4.491   6.484   0.741  0.00  0.00    +0.254 C 
ATOM      4  O   UNL     1       4.625   6.186   1.908  0.00  0.00    -0.272 OA
ATOM      5  N   UNL     1       4.580   5.664  -0.325  0.00  0.00    -0.215 N 
ATOM      6  C   UNL     1       4.382   6.323  -1.473  0.00  0.00    +0.310 C 
ATOM      7  O   UNL     1       4.417   5.797  -2.568  0.00  0.00    -0.252 OA
ATOM      8  N   UNL     1       4.137   7.631  -1.279  0.00  0.00    -0.279 N 
ATOM      9  H   UNL     1       3.964   8.296  -1.963  0.00  0.00    +0.152 HD
ENDROOT
BRANCH   2  10
ATOM     10  C   UNL     1       2.860   8.359   0.682  0.00  0.00    +0.138 A 
ATOM     11  C   UNL     1       2.048   9.188   0.013  0.00  0.00    +0.056 A 
ATOM     12  C   UNL     1       0.880   9.401   0.876  0.00  0.00    +0.020 A 
ATOM     13  C   UNL     1      -0.296  10.141   0.760  0.00  0.00    +0.011 A 
ATOM     14  C   UNL     1      -1.207  10.130   1.780  0.00  0.00    +0.001 A 
ATOM     15  C   UNL     1      -0.969   9.386   2.927  0.00  0.00    +0.004 A 
ATOM     16  C   UNL     1       0.188   8.649   3.059  0.00  0.00    +0.047 A 
ATOM     17  C   UNL     1       1.127   8.646   2.035  0.00  0.00    +0.135 A 
ATOM     18  O   UNL     1       2.321   8.042   1.872  0.00  0.00    -0.457 OA
ENDBRANCH   2  10
BRANCH   5  19
ATOM     19  C   UNL     1       4.863   4.229  -0.238  0.00  0.00    +0.214 C 
BRANCH  19  20
ATOM     20  C   UNL     1       3.569   3.468  -0.116  0.00  0.00    +0.235 C 
ATOM     21  O   UNL     1       2.513   4.065  -0.103  0.00  0.00    -0.274 OA
ATOM     22  N   UNL     1       3.584   2.123  -0.021  0.00  0.00    -0.284 N 
ATOM     23  H   UNL     1       4.429   1.652   0.046  0.00  0.00    +0.155 HD
BRANCH  22  24
ATOM     24  C   UNL     1       2.381   1.409  -0.019  0.00  0.00    +0.034 A 
ATOM     25  C   UNL     1       2.269   0.238   0.719  0.00  0.00    +0.025 A 
ATOM     26  C   UNL     1       1.080  -0.466   0.719  0.00  0.00    +0.029 A 
ATOM     27  C   UNL     1       0.003  -0.005  -0.016  0.00  0.00    +0.088 A 
ATOM     28  C   UNL     1       0.112   1.159  -0.753  0.00  0.00    +0.029 A 
ATOM     29  C   UNL     1       1.298   1.868  -0.757  0.00  0.00    +0.025 A 
BRANCH  27  30
ATOM     30  S   UNL     1      -1.512  -0.906  -0.014  0.00  0.00    -0.006 S 
ATOM     31  O   UNL     1      -2.134  -0.573  -1.247  0.00  0.00    -0.170 OA
ATOM     32  O   UNL     1      -1.136  -2.247   0.269  0.00  0.00    -0.170 OA
ATOM     33  C   UNL     1      -2.461  -0.218   1.371  0.00  0.00    +0.200 C 
ENDBRANCH  27  30
ENDBRANCH  22  24
ENDBRANCH  19  20
ENDBRANCH   5  19
TORSDOF 5
