REMARK  Name = ZINC59159779
REMARK  8 active torsions:
REMARK  status: ('A' for Active; 'I' for Inactive)
REMARK    1  A    between atoms: C_1  and  C_2
REMARK    2  A    between atoms: C_2  and  C_3
REMARK    3  A    between atoms: C_3  and  N_4
REMARK    4  A    between atoms: C_5  and  C_7
REMARK    5  A    between atoms: C_7  and  N_8
REMARK    6  A    between atoms: N_16  and  N_17
REMARK    7  A    between atoms: C_18  and  C_20
REMARK    8  A    between atoms: C_29  and  O_30
REMARK                            x       y       z     vdW  Elec       q    Type
REMARK                         _______ _______ _______ _____ _____    ______ ____
ROOT
ATOM      1  N   UNL     1       2.118  -4.553   3.441  0.00  0.00    -0.257 N 
ATOM      2  C   UNL     1       3.413  -5.057   3.409  0.00  0.00    +0.047 A 
ATOM      3  C   UNL     1       4.361  -5.107   2.392  0.00  0.00    +0.024 A 
ATOM      4  C   UNL     1       5.598  -5.674   2.624  0.00  0.00    +0.002 A 
ATOM      5  C   UNL     1       5.910  -6.199   3.867  0.00  0.00    +0.001 A 
ATOM      6  C   UNL     1       4.983  -6.159   4.888  0.00  0.00    +0.012 A 
ATOM      7  C   UNL     1       3.734  -5.589   4.664  0.00  0.00    +0.028 A 
ATOM      8  C   UNL     1       2.542  -5.391   5.520  0.00  0.00    +0.153 C 
ATOM      9  N   UNL     1       2.394  -5.736   6.776  0.00  0.00    -0.174 NA
ATOM     10  C   UNL     1       1.558  -4.714   4.652  0.00  0.00    +0.272 C 
ATOM     11  O   UNL     1       0.437  -4.367   4.974  0.00  0.00    -0.268 OA
ENDROOT
BRANCH   9  12
ATOM     12  N   UNL     1       3.482  -6.248   7.495  0.00  0.00    -0.202 N 
ATOM     13  C   UNL     1       3.303  -6.716   8.746  0.00  0.00    +0.267 C 
ATOM     14  O   UNL     1       2.198  -6.695   9.251  0.00  0.00    -0.268 OA
ATOM     15  H   UNL     1       4.364  -6.265   7.092  0.00  0.00    +0.178 HD
BRANCH  13  16
ATOM     16  C   UNL     1       4.449  -7.254   9.503  0.00  0.00    +0.080 A 
ATOM     17  C   UNL     1       5.709  -7.271   8.925  0.00  0.00    +0.025 A 
ATOM     18  C   UNL     1       6.794  -7.784   9.649  0.00  0.00    -0.017 A 
ATOM     19  C   UNL     1       8.087  -7.816   9.094  0.00  0.00    +0.008 A 
ATOM     20  C   UNL     1       9.120  -8.320   9.822  0.00  0.00    +0.001 A 
ATOM     21  C   UNL     1       8.918  -8.807  11.113  0.00  0.00    +0.001 A 
ATOM     22  C   UNL     1       7.683  -8.792  11.683  0.00  0.00    +0.008 A 
ATOM     23  C   UNL     1       6.589  -8.279  10.963  0.00  0.00    -0.014 A 
ATOM     24  C   UNL     1       5.302  -8.251  11.526  0.00  0.00    +0.054 A 
ATOM     25  C   UNL     1       4.257  -7.744  10.812  0.00  0.00    +0.130 A 
BRANCH  25  26
ATOM     26  O   UNL     1       3.018  -7.714  11.365  0.00  0.00    -0.506 OA
ATOM     27  H   UNL     1       2.495  -8.511  11.201  0.00  0.00    +0.292 HD
ENDBRANCH  25  26
ENDBRANCH  13  16
ENDBRANCH   9  12
BRANCH   1  28
ATOM     28  C   UNL     1       1.451  -3.920   2.300  0.00  0.00    +0.209 C 
BRANCH  28  30
ATOM     29  N   UNL     1       1.215  -1.648   1.352  0.00  0.00    -0.314 N 
ATOM     30  C   UNL     1       1.730  -2.439   2.314  0.00  0.00    +0.231 C 
ATOM     31  O   UNL     1       2.419  -1.960   3.189  0.00  0.00    -0.274 OA
ATOM     32  H   UNL     1       0.664  -2.031   0.652  0.00  0.00    +0.149 HD
BRANCH  29  33
ATOM     33  C   UNL     1       1.486  -0.208   1.365  0.00  0.00    +0.104 C 
BRANCH  33  35
ATOM     34  C   UNL     1       1.073   1.956   0.188  0.00  0.00    +0.005 C 
ATOM     35  C   UNL     1       0.789   0.453   0.174  0.00  0.00    +0.015 C 
ENDBRANCH  33  35
ENDBRANCH  29  33
ENDBRANCH  28  30
ENDBRANCH   1  28
TORSDOF 7
