REMARK  Name = ZINC12309791
REMARK  13 active torsions:
REMARK  status: ('A' for Active; 'I' for Inactive)
REMARK    1  A    between atoms: C_1  and  C_2
REMARK    2  A    between atoms: C_2  and  C_3
REMARK    3  A    between atoms: C_3  and  C_4
REMARK    4  A    between atoms: C_4  and  C_5
REMARK    5  A    between atoms: C_11  and  N_12
REMARK    6  A    between atoms: N_12  and  O_13
REMARK    7  A    between atoms: O_13  and  C_14
REMARK    8  A    between atoms: C_14  and  C_15
REMARK    9  A    between atoms: N_17  and  C_18
REMARK   10  A    between atoms: C_22  and  N_24
REMARK   11  A    between atoms: C_25  and  C_27
REMARK   12  A    between atoms: N_30  and  C_35
REMARK   13  A    between atoms: N_33  and  C_34
REMARK                            x       y       z     vdW  Elec       q    Type
REMARK                         _______ _______ _______ _____ _____    ______ ____
ROOT
ATOM      1  C   UNL     1      -9.539   2.988   0.497  0.00  0.00    -0.005 A 
ATOM      2  C   UNL     1     -10.577   2.153   0.319  0.00  0.00    +0.090 A 
ATOM      3  N   UNL     1     -10.399   0.810   0.120  0.00  0.00    -0.347 N 
ATOM      4  H   UNL     1     -11.232   0.193  -0.246  0.00  0.00    +0.167 HD
ATOM      5  C   UNL     1      -9.210   0.196   0.362  0.00  0.00    +0.129 A 
ATOM      6  C   UNL     1      -8.059   0.959   0.539  0.00  0.00    +0.106 A 
ATOM      7  C   UNL     1      -8.173   2.428   0.468  0.00  0.00    +0.082 A 
ATOM      8  C   UNL     1      -6.825   0.312   0.779  0.00  0.00    +0.268 A 
ATOM      9  O   UNL     1      -5.805   0.959   0.934  0.00  0.00    -0.267 OA
ATOM     10  N   UNL     1      -6.799  -1.038   0.834  0.00  0.00    -0.263 N 
ATOM     11  C   UNL     1      -7.923  -1.754   0.665  0.00  0.00    +0.333 A 
ATOM     12  O   UNL     1      -7.864  -2.967   0.723  0.00  0.00    -0.246 OA
ATOM     13  N   UNL     1      -9.113  -1.170   0.432  0.00  0.00    -0.282 N 
ATOM     14  C   UNL     1     -10.309  -1.996   0.254  0.00  0.00    +0.155 C 
ATOM     15  C   UNL     1      -5.531  -1.728   1.081  0.00  0.00    +0.157 C 
ENDROOT
BRANCH   7  16
ATOM     16  N   UNL     1      -7.112   3.199   0.390  0.00  0.00    -0.264 N 
ATOM     17  H   UNL     1      -7.171   4.250   0.709  0.00  0.00    +0.194 HD
BRANCH  16  18
ATOM     18  O   UNL     1      -5.893   2.678  -0.106  0.00  0.00    -0.265 OA
BRANCH  18  19
ATOM     19  C   UNL     1      -4.824   3.626  -0.136  0.00  0.00    +0.288 C 
BRANCH  19  20
ATOM     20  C   UNL     1      -3.582   2.967  -0.677  0.00  0.00    +0.246 C 
ATOM     21  O   UNL     1      -3.609   1.799  -1.006  0.00  0.00    -0.273 OA
ATOM     22  N   UNL     1      -2.441   3.674  -0.797  0.00  0.00    -0.283 N 
ATOM     23  H   UNL     1      -2.435   4.750  -0.570  0.00  0.00    +0.155 HD
BRANCH  22  24
ATOM     24  C   UNL     1      -1.265   3.040  -1.211  0.00  0.00    +0.035 A 
ATOM     25  C   UNL     1      -0.040   3.434  -0.686  0.00  0.00    +0.023 A 
ATOM     26  C   UNL     1       1.122   2.812  -1.098  0.00  0.00    +0.004 A 
ATOM     27  C   UNL     1       1.071   1.789  -2.025  0.00  0.00    +0.023 A 
ATOM     28  C   UNL     1      -0.151   1.386  -2.550  0.00  0.00    +0.035 A 
ATOM     29  C   UNL     1      -1.320   2.013  -2.142  0.00  0.00    +0.046 A 
BRANCH  28  30
ATOM     30  N   UNL     1      -0.203   0.350  -3.488  0.00  0.00    -0.286 N 
ATOM     31  C   UNL     1       0.756  -0.598  -3.499  0.00  0.00    +0.214 C 
ATOM     32  O   UNL     1       1.608  -0.608  -2.636  0.00  0.00    -0.276 OA
ATOM     33  C   UNL     1       0.768  -1.645  -4.583  0.00  0.00    +0.109 C 
ATOM     34  H   UNL     1      -1.025   0.308  -4.217  0.00  0.00    +0.155 HD
ENDBRANCH  28  30
ENDBRANCH  22  24
ENDBRANCH  19  20
ENDBRANCH  18  19
ENDBRANCH  16  18
ENDBRANCH   7  16
BRANCH   1  35
ATOM     35  C   UNL     1      -9.762   4.462   0.715  0.00  0.00    +0.039 C 
BRANCH  35  36
ATOM     36  C   UNL     1      -9.778   5.181  -0.635  0.00  0.00    +0.004 C 
BRANCH  36  38
ATOM     37  C   UNL     1     -10.020   7.397  -1.765  0.00  0.00    +0.004 C 
ATOM     38  C   UNL     1     -10.005   6.678  -0.414  0.00  0.00    -0.003 C 
ENDBRANCH  36  38
ENDBRANCH  35  36
ENDBRANCH   1  35
TORSDOF 9
