REMARK  Name = ZINC63883819
REMARK  8 active torsions:
REMARK  status: ('A' for Active; 'I' for Inactive)
REMARK    1  A    between atoms: C_1  and  C_2
REMARK    2  A    between atoms: C_4  and  C_17
REMARK    3  A    between atoms: N_8  and  C_9
REMARK    4  A    between atoms: C_17  and  C_19
REMARK    5  A    between atoms: C_17  and  N_20
REMARK    6  A    between atoms: N_20  and  C_21
REMARK    7  A    between atoms: C_21  and  C_22
REMARK    8  A    between atoms: C_27  and  C_28
REMARK                            x       y       z     vdW  Elec       q    Type
REMARK                         _______ _______ _______ _____ _____    ______ ____
ROOT
ATOM      1  C   UNL     1       0.974   0.459  -2.462  0.00  0.00    -0.069 C 
ATOM      2  C   UNL     1       1.988   1.548  -2.107  0.00  0.00    -0.013 C 
ENDROOT
BRANCH   1   5
ATOM      3  C   UNL     1      -1.266  -0.989  -2.568  0.00  0.00    +0.030 C 
ATOM      4  C   UNL     1      -0.281  -1.544  -1.538  0.00  0.00    +0.091 C 
ATOM      5  C   UNL     1       0.876  -0.541  -1.308  0.00  0.00    +0.012 C 
ATOM      6  C   UNL     1       0.413   0.157  -0.001  0.00  0.00    +0.106 C 
ATOM      7  N   UNL     1      -0.265  -0.955   0.714  0.00  0.00    -0.240 NA
ATOM      8  N   UNL     1      -0.940  -1.690  -0.230  0.00  0.00    -0.261 N 
ATOM      9  H   UNL     1       0.402  -1.528   1.207  0.00  0.00    +0.144 HD
BRANCH   8  10
ATOM     10  C   UNL     1      -2.083  -2.460   0.014  0.00  0.00    +0.080 A 
ATOM     11  C   UNL     1      -2.100  -3.806  -0.325  0.00  0.00    +0.030 A 
ATOM     12  C   UNL     1      -3.229  -4.565  -0.084  0.00  0.00    +0.040 A 
ATOM     13  C   UNL     1      -4.345  -3.984   0.495  0.00  0.00    +0.126 A 
ATOM     14  C   UNL     1      -4.332  -2.642   0.834  0.00  0.00    +0.078 A 
ATOM     15  C   UNL     1      -3.202  -1.880   0.601  0.00  0.00    +0.148 A 
ATOM     16  F   UNL     1      -3.188  -0.571   0.937  0.00  0.00    -0.203 F 
ATOM     17  F   UNL     1      -5.447  -4.729   0.729  0.00  0.00    -0.205 F 
ENDBRANCH   8  10
ENDBRANCH   1   5
BRANCH   1  18
ATOM     18  N   UNL     1       1.410  -0.239  -3.679  0.00  0.00    +0.382 N 
ATOM     19  H   UNL     1       2.364  -0.548  -3.566  0.00  0.00    -0.085 HD
ATOM     20  H   UNL     1       0.815  -1.037  -3.841  0.00  0.00    -0.085 HD
BRANCH  18  21
ATOM     21  C   UNL     1       1.325   0.676  -4.825  0.00  0.00    -0.067 C 
BRANCH  21  22
ATOM     22  C   UNL     1       1.780  -0.050  -6.093  0.00  0.00    +0.066 C 
ATOM     23  C   UNL     1       3.267  -0.340  -6.038  0.00  0.00    +0.115 C 
ATOM     24  N   UNL     1       3.793   0.294  -7.035  0.00  0.00    -0.161 NA
ATOM     25  N   UNL     1       2.849   0.993  -7.779  0.00  0.00    -0.153 NA
ATOM     26  C   UNL     1       1.638   0.850  -7.304  0.00  0.00    +0.077 C 
BRANCH  26  27
ATOM     27  C   UNL     1       0.397   1.439  -7.832  0.00  0.00    +0.001 A 
ATOM     28  C   UNL     1      -0.824   1.190  -7.198  0.00  0.00    +0.010 A 
ATOM     29  C   UNL     1      -1.983   1.746  -7.697  0.00  0.00    +0.003 A 
ATOM     30  C   UNL     1      -1.941   2.547  -8.825  0.00  0.00    +0.038 A 
ATOM     31  C   UNL     1      -0.735   2.799  -9.460  0.00  0.00    +0.124 A 
ATOM     32  C   UNL     1       0.434   2.254  -8.968  0.00  0.00    +0.048 A 
ATOM     33  F   UNL     1      -0.704   3.582 -10.560  0.00  0.00    -0.205 F 
ENDBRANCH  26  27
ENDBRANCH  21  22
ENDBRANCH  18  21
ENDBRANCH   1  18
TORSDOF 6
