REMARK  Name = ZINC16685455
REMARK  12 active torsions:
REMARK  status: ('A' for Active; 'I' for Inactive)
REMARK    1  A    between atoms: C_1  and  C_2
REMARK    2  A    between atoms: C_6  and  N_9
REMARK    3  A    between atoms: C_7  and  C_8
REMARK    4  A    between atoms: C_13  and  C_15
REMARK    5  A    between atoms: C_15  and  S_16
REMARK    6  A    between atoms: S_16  and  C_17
REMARK    7  A    between atoms: C_20  and  C_29
REMARK    8  A    between atoms: N_21  and  C_22
REMARK    9  A    between atoms: C_29  and  C_31
REMARK   10  A    between atoms: C_29  and  N_60
REMARK   11  A    between atoms: C_32  and  N_60
REMARK   12  A    between atoms: C_33  and  N_60
REMARK                            x       y       z     vdW  Elec       q    Type
REMARK                         _______ _______ _______ _____ _____    ______ ____
ROOT
ATOM      1  S   UNL     1      -4.654   5.425  -1.584  0.00  0.00    -0.076 S 
ENDROOT
BRANCH   1   2
ATOM      2  C   UNL     1      -3.323   4.392  -1.069  0.00  0.00    +0.197 A 
ATOM      3  N   UNL     1      -2.665   3.535  -1.816  0.00  0.00    -0.122 NA
ATOM      4  N   UNL     1      -1.755   2.954  -1.118  0.00  0.00    -0.135 NA
ATOM      5  C   UNL     1      -1.781   3.395   0.108  0.00  0.00    +0.125 A 
ATOM      6  N   UNL     1      -2.779   4.330   0.184  0.00  0.00    -0.275 N 
BRANCH   6   7
ATOM      7  C   UNL     1      -3.163   5.070   1.313  0.00  0.00    +0.050 A 
ATOM      8  C   UNL     1      -3.710   4.425   2.413  0.00  0.00    +0.028 A 
ATOM      9  C   UNL     1      -4.082   5.155   3.526  0.00  0.00    +0.022 A 
ATOM     10  C   UNL     1      -3.921   6.529   3.538  0.00  0.00    +0.041 A 
ATOM     11  C   UNL     1      -3.381   7.175   2.439  0.00  0.00    +0.022 A 
ATOM     12  C   UNL     1      -3.002   6.448   1.327  0.00  0.00    +0.028 A 
ATOM     13 CL   UNL     1      -4.396   7.445   4.934  0.00  0.00    -0.084 Cl
ENDBRANCH   6   7
BRANCH   5  14
ATOM     14  C   UNL     1      -0.876   2.961   1.233  0.00  0.00    -0.003 C 
ATOM     15  C   UNL     1       0.512   3.575   1.036  0.00  0.00    -0.005 C 
BRANCH  14  18
ATOM     16  C   UNL     1      -0.080   1.016   0.029  0.00  0.00    -0.096 C 
ATOM     17  C   UNL     1      -0.091   1.021   2.450  0.00  0.00    -0.096 C 
ATOM     18  N   UNL     1      -0.794   1.485   1.236  0.00  0.00    +0.382 N 
ATOM     19  H   UNL     1      -1.745   1.098   1.232  0.00  0.00    -0.082 HD
ENDBRANCH  14  18
ENDBRANCH   5  14
ENDBRANCH   1   2
BRANCH   1  20
ATOM     20  C   UNL     1      -4.776   4.936  -3.323  0.00  0.00    +0.173 C 
BRANCH  20  25
ATOM     21  N   UNL     1      -7.425   6.010  -7.188  0.00  0.00    -0.269 N 
ATOM     22  C   UNL     1      -7.149   6.210  -5.884  0.00  0.00    +0.310 C 
ATOM     23  O   UNL     1      -7.793   7.017  -5.243  0.00  0.00    -0.252 OA
ATOM     24  N   UNL     1      -6.159   5.514  -5.291  0.00  0.00    -0.239 N 
ATOM     25  C   UNL     1      -5.883   5.714  -3.986  0.00  0.00    +0.231 C 
ATOM     26  O   UNL     1      -6.526   6.519  -3.347  0.00  0.00    -0.274 OA
ATOM     27  H   UNL     1      -6.860   5.428  -7.720  0.00  0.00    +0.156 HD
ATOM     28  H   UNL     1      -5.645   4.870  -5.802  0.00  0.00    +0.159 HD
BRANCH  21  34
ATOM     29  C   UNL     1      -9.653   7.763 -11.205  0.00  0.00    +0.044 C 
ATOM     30  C   UNL     1      -9.632   7.506  -9.720  0.00  0.00    -0.046 A 
ATOM     31  C   UNL     1     -10.703   7.896  -8.937  0.00  0.00    +0.004 A 
ATOM     32  C   UNL     1     -10.688   7.661  -7.574  0.00  0.00    +0.002 A 
ATOM     33  C   UNL     1      -9.602   7.036  -6.991  0.00  0.00    +0.023 A 
ATOM     34  C   UNL     1      -8.526   6.643  -7.775  0.00  0.00    +0.038 A 
ATOM     35  C   UNL     1      -8.542   6.885  -9.143  0.00  0.00    -0.026 A 
ATOM     36  C   UNL     1      -7.373   6.466  -9.997  0.00  0.00    +0.046 C 
ENDBRANCH  21  34
ENDBRANCH  20  25
ENDBRANCH   1  20
TORSDOF 7
