REMARK  Name = ZINC15957299
REMARK  7 active torsions:
REMARK  status: ('A' for Active; 'I' for Inactive)
REMARK    1  A    between atoms: C_1  and  O_2
REMARK    2  A    between atoms: O_2  and  C_3
REMARK    3  A    between atoms: C_6  and  C_9
REMARK    4  A    between atoms: C_9  and  N_10
REMARK    5  A    between atoms: C_15  and  C_33
REMARK    6  A    between atoms: C_33  and  C_34
REMARK    7  A    between atoms: C_34  and  C_35
REMARK                            x       y       z     vdW  Elec       q    Type
REMARK                         _______ _______ _______ _____ _____    ______ ____
ROOT
ATOM      1  N   UNL     1       3.923  -2.713  -4.080  0.00  0.00    -0.237 N 
ATOM      2  C   UNL     1       4.865  -1.806  -4.362  0.00  0.00    +0.227 C 
ATOM      3  O   UNL     1       4.667  -0.731  -4.885  0.00  0.00    -0.275 OA
ATOM      4  C   UNL     1       6.215  -2.331  -3.927  0.00  0.00    +0.107 C 
ATOM      5  C   UNL     1       7.073  -2.618  -5.178  0.00  0.00    +0.068 C 
ATOM      6  N   UNL     1       7.668  -3.958  -4.933  0.00  0.00    -0.295 NA
ATOM      7  C   UNL     1       6.588  -4.720  -4.280  0.00  0.00    +0.136 C 
ATOM      8  C   UNL     1       5.880  -3.725  -3.327  0.00  0.00    +0.122 C 
ATOM      9  C   UNL     1       4.381  -3.826  -3.494  0.00  0.00    +0.229 C 
ATOM     10  O   UNL     1       3.700  -4.769  -3.153  0.00  0.00    -0.275 OA
ATOM     11  C   UNL     1       7.127  -5.904  -3.529  0.00  0.00    +0.005 A 
ATOM     12  C   UNL     1       8.027  -6.042  -2.495  0.00  0.00    +0.008 A 
ATOM     13  C   UNL     1       8.331  -7.299  -2.004  0.00  0.00    +0.002 A 
ATOM     14  C   UNL     1       7.728  -8.417  -2.553  0.00  0.00    +0.022 A 
ATOM     15  C   UNL     1       6.826  -8.284  -3.589  0.00  0.00    +0.062 A 
ATOM     16  C   UNL     1       6.514  -7.021  -4.090  0.00  0.00    +0.057 A 
ATOM     17  N   UNL     1       5.648  -6.633  -5.115  0.00  0.00    -0.282 N 
ATOM     18  C   UNL     1       5.635  -5.298  -5.290  0.00  0.00    +0.243 C 
ATOM     19  O   UNL     1       4.980  -4.680  -6.104  0.00  0.00    -0.273 OA
ATOM     20 CL   UNL     1       6.078  -9.694  -4.271  0.00  0.00    -0.082 Cl
ATOM     21  H   UNL     1       7.945  -4.394  -5.800  0.00  0.00    +0.123 HD
ATOM     22  H   UNL     1       5.118  -7.253  -5.639  0.00  0.00    +0.155 HD
ENDROOT
BRANCH   1  23
ATOM     23  C   UNL     1       2.505  -2.503  -4.381  0.00  0.00    +0.151 C 
BRANCH  23  27
ATOM     24  C   UNL     1       0.606  -0.607  -1.056  0.00  0.00    +0.120 A 
ATOM     25  C   UNL     1       1.173   0.161  -2.062  0.00  0.00    +0.046 A 
ATOM     26  C   UNL     1       1.786  -0.455  -3.136  0.00  0.00    +0.009 A 
ATOM     27  C   UNL     1       1.835  -1.835  -3.209  0.00  0.00    -0.029 A 
ATOM     28  C   UNL     1       1.270  -2.602  -2.207  0.00  0.00    +0.009 A 
ATOM     29  C   UNL     1       0.661  -1.992  -1.128  0.00  0.00    +0.046 A 
BRANCH  24  31
ATOM     30  C   UNL     1      -0.017   1.425   0.010  0.00  0.00    +0.277 C 
ATOM     31  O   UNL     1       0.002  -0.004   0.002  0.00  0.00    -0.495 OA
ENDBRANCH  24  31
ENDBRANCH  23  27
ENDBRANCH   1  23
BRANCH   5  32
ATOM     32  C   UNL     1       8.171  -1.563  -5.323  0.00  0.00    +0.028 C 
BRANCH  32  33
ATOM     33  C   UNL     1       8.929  -1.792  -6.632  0.00  0.00    +0.097 C 
BRANCH  33  34
ATOM     34  C   UNL     1      10.011  -0.753  -6.775  0.00  0.00    +0.211 C 
ATOM     35  O   UNL     1      10.162   0.088  -5.915  0.00  0.00    -0.276 OA
ATOM     36  N   UNL     1      10.812  -0.759  -7.859  0.00  0.00    -0.329 N 
ATOM     37  H   UNL     1      10.692  -1.432  -8.547  0.00  0.00    +0.145 HD
ATOM     38  H   UNL     1      11.509  -0.091  -7.951  0.00  0.00    +0.145 HD
ENDBRANCH  33  34
ENDBRANCH  32  33
ENDBRANCH   5  32
TORSDOF 6
