REMARK  Name = ZINC32637416
REMARK  6 active torsions:
REMARK  status: ('A' for Active; 'I' for Inactive)
REMARK    1  A    between atoms: C_3  and  O_20
REMARK    2  A    between atoms: C_6  and  N_7
REMARK    3  A    between atoms: C_8  and  C_10
REMARK    4  A    between atoms: C_12  and  N_17
REMARK    5  A    between atoms: O_20  and  C_21
REMARK    6  A    between atoms: C_21  and  C_22
REMARK                            x       y       z     vdW  Elec       q    Type
REMARK                         _______ _______ _______ _____ _____    ______ ____
ROOT
ATOM      1  N   UNL     1      -1.201  -0.721   0.010  0.00  0.00    -0.281 N 
ATOM      2  C   UNL     1      -2.326  -0.155  -0.469  0.00  0.00    +0.249 C 
ATOM      3  O   UNL     1      -2.280   0.942  -0.991  0.00  0.00    -0.270 OA
ATOM      4  H   UNL     1      -1.223  -1.627   0.357  0.00  0.00    +0.155 HD
ENDROOT
BRANCH   2   5
ATOM      5  C   UNL     1      -3.616  -0.867  -0.360  0.00  0.00    +0.052 A 
ATOM      6  C   UNL     1      -3.674  -2.125   0.244  0.00  0.00    +0.046 A 
ATOM      7  C   UNL     1      -4.881  -2.784   0.343  0.00  0.00    +0.127 A 
ATOM      8  C   UNL     1      -6.034  -2.203  -0.155  0.00  0.00    +0.034 A 
ATOM      9  C   UNL     1      -5.985  -0.957  -0.755  0.00  0.00    +0.017 A 
ATOM     10  C   UNL     1      -4.784  -0.284  -0.855  0.00  0.00    +0.026 A 
ATOM     11  I   UNL     1      -4.713   1.607  -1.756  0.00  0.00    -0.043 I 
BRANCH   7  12
ATOM     12  N   UNL     1      -4.944  -4.118   0.983  0.00  0.00    +0.056 N 
ATOM     13  O   UNL     1      -3.937  -4.627   1.417  0.00  0.00    -0.126 OA
ATOM     14  O   UNL     1      -6.001  -4.697   1.070  0.00  0.00    -0.126 OA
ENDBRANCH   7  12
ENDBRANCH   2   5
BRANCH   1  20
ATOM     15  C   UNL     1      -0.013   1.374   0.194  0.00  0.00    +0.027 A 
ATOM     16  C   UNL     1       1.173   2.082   0.192  0.00  0.00    +0.047 A 
ATOM     17  C   UNL     1       2.377   1.420   0.003  0.00  0.00    +0.121 A 
ATOM     18  C   UNL     1       2.391   0.045  -0.184  0.00  0.00    +0.047 A 
ATOM     19  C   UNL     1       1.206  -0.664  -0.182  0.00  0.00    +0.027 A 
ATOM     20  C   UNL     1       0.001  -0.002   0.007  0.00  0.00    +0.034 A 
BRANCH  17  21
ATOM     21  O   UNL     1       3.543   2.118  -0.000  0.00  0.00    -0.483 OA
BRANCH  21  22
ATOM     22  C   UNL     1       4.746   1.372  -0.200  0.00  0.00    +0.324 C 
BRANCH  22  23
ATOM     23  C   UNL     1       5.927   2.307  -0.173  0.00  0.00    +0.248 C 
ATOM     24  O   UNL     1       5.757   3.495   0.001  0.00  0.00    -0.272 OA
ATOM     25  N   UNL     1       7.174   1.822  -0.341  0.00  0.00    -0.327 N 
ATOM     26  H   UNL     1       7.310   0.872  -0.480  0.00  0.00    +0.145 HD
ATOM     27  H   UNL     1       7.934   2.424  -0.324  0.00  0.00    +0.145 HD
ENDBRANCH  22  23
ENDBRANCH  21  22
ENDBRANCH  17  21
ENDBRANCH   1  20
TORSDOF 6
