REMARK  Name = ZINC08595692
REMARK  13 active torsions:
REMARK  status: ('A' for Active; 'I' for Inactive)
REMARK    1  A    between atoms: C_1  and  C_2
REMARK    2  A    between atoms: C_2  and  N_3
REMARK    3  A    between atoms: N_3  and  C_4
REMARK    4  A    between atoms: N_3  and  C_6
REMARK    5  A    between atoms: C_4  and  C_5
REMARK    6  A    between atoms: C_6  and  C_7
REMARK    7  A    between atoms: C_7  and  O_8
REMARK    8  A    between atoms: O_8  and  C_9
REMARK    9  A    between atoms: C_9  and  C_11
REMARK   10  A    between atoms: C_14  and  N_17
REMARK   11  A    between atoms: C_18  and  C_20
REMARK   12  A    between atoms: C_20  and  N_21
REMARK   13  A    between atoms: C_30  and  C_36
REMARK                            x       y       z     vdW  Elec       q    Type
REMARK                         _______ _______ _______ _____ _____    ______ ____
ROOT
ATOM      1  N   UNL     1      -3.693   0.582   8.835  0.00  0.00    -0.284 N 
ATOM      2  C   UNL     1      -5.039   0.661   8.844  0.00  0.00    +0.239 C 
ATOM      3  O   UNL     1      -5.683   0.147   7.954  0.00  0.00    -0.273 OA
ATOM      4  H   UNL     1      -3.182   0.927   9.584  0.00  0.00    +0.155 HD
ENDROOT
BRANCH   1   8
ATOM      5  C   UNL     1      -1.730  -1.140   5.590  0.00  0.00    +0.059 A 
ATOM      6  C   UNL     1      -2.903  -0.406   5.390  0.00  0.00    +0.017 A 
ATOM      7  C   UNL     1      -3.550   0.161   6.465  0.00  0.00    +0.024 A 
ATOM      8  C   UNL     1      -3.037   0.006   7.748  0.00  0.00    +0.033 A 
ATOM      9  C   UNL     1      -1.869  -0.724   7.951  0.00  0.00    +0.024 A 
ATOM     10  C   UNL     1      -1.221  -1.299   6.882  0.00  0.00    +0.017 A 
BRANCH   5  11
ATOM     11  C   UNL     1      -1.035  -1.750   4.441  0.00  0.00    +0.339 C 
ATOM     12  O   UNL     1      -0.018  -2.392   4.617  0.00  0.00    -0.245 OA
BRANCH  11  13
ATOM     13  O   UNL     1      -1.528  -1.596   3.196  0.00  0.00    -0.463 OA
BRANCH  13  14
ATOM     14  C   UNL     1      -0.803  -2.214   2.131  0.00  0.00    +0.214 C 
BRANCH  14  15
ATOM     15  C   UNL     1      -1.509  -1.931   0.803  0.00  0.00    -0.037 C 
BRANCH  15  16
ATOM     16  N   UNL     1      -1.462  -0.490   0.520  0.00  0.00    +0.382 N 
ATOM     17  H   UNL     1      -1.852   0.018   1.300  0.00  0.00    -0.082 HD
BRANCH  16  19
ATOM     18  C   UNL     1      -0.004   1.444   0.162  0.00  0.00    -0.017 C 
ATOM     19  C   UNL     1      -0.068  -0.077   0.315  0.00  0.00    -0.082 C 
ENDBRANCH  16  19
BRANCH  16  20
ATOM     20  C   UNL     1      -2.241  -0.203  -0.691  0.00  0.00    -0.082 C 
ATOM     21  C   UNL     1      -3.720  -0.499  -0.429  0.00  0.00    -0.017 C 
ENDBRANCH  16  20
ENDBRANCH  15  16
ENDBRANCH  14  15
ENDBRANCH  13  14
ENDBRANCH  11  13
ENDBRANCH   5  11
ENDBRANCH   1   8
BRANCH   2  22
ATOM     22  C   UNL     1      -5.744   1.388   9.960  0.00  0.00    +0.243 C 
BRANCH  22  23
ATOM     23  N   UNL     1      -7.191   1.332   9.742  0.00  0.00    -0.219 N 
ATOM     24  C   UNL     1      -7.903   0.313  10.263  0.00  0.00    +0.292 A 
ATOM     25  O   UNL     1      -7.348  -0.558  10.912  0.00  0.00    -0.264 OA
ATOM     26  C   UNL     1      -9.301   0.264  10.049  0.00  0.00    +0.116 A 
ATOM     27  C   UNL     1      -9.897   1.279   9.302  0.00  0.00    +0.032 A 
ATOM     28  C   UNL     1      -9.101   2.321   8.782  0.00  0.00    +0.143 A 
ATOM     29  N   UNL     1      -7.816   2.340   9.001  0.00  0.00    -0.175 NA
ATOM     30  C   UNL     1     -11.333   0.969   9.246  0.00  0.00    +0.009 A 
ATOM     31  C   UNL     1     -12.432   1.595   8.657  0.00  0.00    +0.014 A 
ATOM     32  C   UNL     1     -13.677   1.046   8.785  0.00  0.00    -0.050 A 
ATOM     33  C   UNL     1     -13.857  -0.131   9.498  0.00  0.00    +0.005 A 
ATOM     34  C   UNL     1     -12.786  -0.764  10.088  0.00  0.00    +0.026 A 
ATOM     35  C   UNL     1     -11.508  -0.223   9.970  0.00  0.00    +0.048 A 
ATOM     36  N   UNL     1     -10.277  -0.626  10.441  0.00  0.00    -0.350 N 
ATOM     37  H   UNL     1     -10.121  -1.422  10.973  0.00  0.00    +0.166 HD
ATOM     38  C   UNL     1     -14.862   1.724   8.148  0.00  0.00    +0.044 C 
ENDBRANCH  22  23
ENDBRANCH   2  22
TORSDOF 10
