REMARK  Name = ZINC36545060
REMARK  11 active torsions:
REMARK  status: ('A' for Active; 'I' for Inactive)
REMARK    1  A    between atoms: C_1  and  C_2
REMARK    2  A    between atoms: C_2  and  C_3
REMARK    3  A    between atoms: C_2  and  C_4
REMARK    4  A    between atoms: C_2  and  N_5
REMARK    5  A    between atoms: C_6  and  C_8
REMARK    6  A    between atoms: C_8  and  C_10
REMARK    7  A    between atoms: C_8  and  N_19
REMARK    8  A    between atoms: C_13  and  N_16
REMARK    9  A    between atoms: N_19  and  C_20
REMARK   10  A    between atoms: C_27  and  C_29
REMARK   11  A    between atoms: C_32  and  O_35
REMARK                            x       y       z     vdW  Elec       q    Type
REMARK                         _______ _______ _______ _____ _____    ______ ____
ROOT
ATOM      1  C   UNL     1       3.014  -0.191  -2.363  0.00  0.00    +0.198 C 
ENDROOT
BRANCH   1   2
ATOM      2  C   UNL     1       2.471   0.801  -3.359  0.00  0.00    -0.018 A 
ATOM      3  C   UNL     1       1.396   0.461  -4.158  0.00  0.00    +0.008 A 
ATOM      4  C   UNL     1       0.898   1.372  -5.072  0.00  0.00    +0.033 A 
ATOM      5  C   UNL     1       1.476   2.622  -5.186  0.00  0.00    +0.126 A 
ATOM      6  C   UNL     1       2.551   2.963  -4.386  0.00  0.00    +0.033 A 
ATOM      7  C   UNL     1       3.046   2.054  -3.469  0.00  0.00    +0.008 A 
BRANCH   5   8
ATOM      8  N   UNL     1       0.944   3.597  -6.164  0.00  0.00    +0.056 N 
ATOM      9  O   UNL     1       0.004   3.299  -6.864  0.00  0.00    -0.126 OA
ATOM     10  O   UNL     1       1.449   4.691  -6.264  0.00  0.00    -0.126 OA
ENDBRANCH   5   8
ENDBRANCH   1   2
BRANCH   1  12
ATOM     11  N   UNL     1       1.508   0.544  -0.543  0.00  0.00    -0.309 N 
ATOM     12  C   UNL     1       2.768   0.314  -0.965  0.00  0.00    +0.239 C 
ATOM     13  O   UNL     1       3.703   0.515  -0.220  0.00  0.00    -0.273 OA
ATOM     14  H   UNL     1       0.760   0.384  -1.139  0.00  0.00    +0.149 HD
BRANCH  11  16
ATOM     15  C   UNL     1       1.973   2.381   1.003  0.00  0.00    +0.031 C 
ATOM     16  C   UNL     1       1.270   1.036   0.816  0.00  0.00    +0.026 C 
ATOM     17  C   UNL     1       1.820   0.028   1.827  0.00  0.00    +0.031 C 
ATOM     18  C   UNL     1      -0.234   1.211   1.038  0.00  0.00    +0.031 C 
ENDBRANCH  11  16
ENDBRANCH   1  12
BRANCH   1  19
ATOM     19  N   UNL     1       4.453  -0.359  -2.576  0.00  0.00    -0.250 N 
ATOM     20  C   UNL     1       5.128  -1.311  -1.900  0.00  0.00    +0.252 C 
ATOM     21  O   UNL     1       4.558  -1.977  -1.058  0.00  0.00    -0.270 OA
BRANCH  19  22
ATOM     22  C   UNL     1       5.128   0.468  -3.480  0.00  0.00    +0.056 A 
ATOM     23  C   UNL     1       4.920   0.323  -4.845  0.00  0.00    +0.025 A 
ATOM     24  C   UNL     1       5.588   1.141  -5.735  0.00  0.00    +0.002 A 
ATOM     25  C   UNL     1       6.463   2.105  -5.268  0.00  0.00    +0.002 A 
ATOM     26  C   UNL     1       6.673   2.253  -3.909  0.00  0.00    +0.022 A 
ATOM     27  C   UNL     1       6.004   1.441  -3.013  0.00  0.00    +0.062 A 
ATOM     28 CL   UNL     1       6.262   1.632  -1.307  0.00  0.00    -0.082 Cl
ENDBRANCH  19  22
BRANCH  20  29
ATOM     29  C   UNL     1       6.557  -1.544  -2.184  0.00  0.00    +0.037 A 
ATOM     30  C   UNL     1       7.413  -1.968  -1.164  0.00  0.00    +0.016 A 
ATOM     31  C   UNL     1       8.746  -2.185  -1.433  0.00  0.00    +0.046 A 
ATOM     32  C   UNL     1       9.241  -1.983  -2.716  0.00  0.00    +0.117 A 
ATOM     33  C   UNL     1       8.392  -1.561  -3.733  0.00  0.00    +0.046 A 
ATOM     34  C   UNL     1       7.057  -1.347  -3.474  0.00  0.00    +0.016 A 
BRANCH  32  35
ATOM     35  O   UNL     1      10.555  -2.198  -2.977  0.00  0.00    -0.507 OA
ATOM     36  H   UNL     1      10.758  -3.102  -3.253  0.00  0.00    +0.292 HD
ENDBRANCH  32  35
ENDBRANCH  20  29
ENDBRANCH   1  19
TORSDOF 8
