REMARK  Name = ZINC20709664
REMARK  8 active torsions:
REMARK  status: ('A' for Active; 'I' for Inactive)
REMARK    1  A    between atoms: C_1  and  C_2
REMARK    2  A    between atoms: C_2  and  O_3
REMARK    3  A    between atoms: O_3  and  C_4
REMARK    4  A    between atoms: C_7  and  N_10
REMARK    5  A    between atoms: C_11  and  C_13
REMARK    6  A    between atoms: C_20  and  C_29
REMARK    7  A    between atoms: C_31  and  N_36
REMARK    8  A    between atoms: C_34  and  O_35
REMARK                            x       y       z     vdW  Elec       q    Type
REMARK                         _______ _______ _______ _____ _____    ______ ____
ROOT
ATOM      1  C   UNL     1       2.914  -0.200   3.304  0.00  0.00    +0.058 A 
ATOM      2  C   UNL     1       3.259   1.047   3.826  0.00  0.00    +0.015 A 
ATOM      3  C   UNL     1       3.298   2.145   2.996  0.00  0.00    +0.001 A 
ATOM      4  C   UNL     1       2.998   2.014   1.652  0.00  0.00    +0.006 A 
ATOM      5  C   UNL     1       2.653   0.782   1.115  0.00  0.00    -0.019 A 
ATOM      6  C   UNL     1       2.610  -0.330   1.935  0.00  0.00    +0.044 A 
ATOM      7  N   UNL     1       2.272  -1.588   1.460  0.00  0.00    -0.336 N 
ATOM      8  C   UNL     1       2.615  -1.743   0.045  0.00  0.00    +0.108 C 
ATOM      9  C   UNL     1       1.893  -0.689  -0.780  0.00  0.00    +0.029 C 
ATOM     10  C   UNL     1       2.341   0.726  -0.358  0.00  0.00    +0.049 C 
ATOM     11  C   UNL     1       1.102   1.571  -0.606  0.00  0.00    -0.023 C 
ATOM     12  C   UNL     1       0.030   0.820  -0.623  0.00  0.00    -0.030 C 
ATOM     13  C   UNL     1       0.395  -0.634  -0.389  0.00  0.00    +0.033 C 
ATOM     14  H   UNL     1       1.805  -2.421   2.007  0.00  0.00    +0.147 HD
ENDROOT
BRANCH   8  15
ATOM     15  C   UNL     1       4.103  -1.582  -0.128  0.00  0.00    +0.017 A 
ATOM     16  C   UNL     1       4.598  -0.752  -1.116  0.00  0.00    +0.041 A 
ATOM     17  C   UNL     1       5.963  -0.604  -1.275  0.00  0.00    +0.127 A 
ATOM     18  C   UNL     1       6.837  -1.285  -0.447  0.00  0.00    +0.036 A 
ATOM     19  C   UNL     1       6.347  -2.115   0.542  0.00  0.00    +0.048 A 
ATOM     20  C   UNL     1       4.977  -2.262   0.708  0.00  0.00    +0.122 A 
BRANCH  17  21
ATOM     21  N   UNL     1       6.491   0.285  -2.334  0.00  0.00    +0.056 N 
ATOM     22  O   UNL     1       5.723   0.886  -3.064  0.00  0.00    -0.126 OA
ATOM     23  O   UNL     1       7.694   0.417  -2.476  0.00  0.00    -0.126 OA
ENDBRANCH  17  21
BRANCH  20  24
ATOM     24  O   UNL     1       4.492  -3.074   1.683  0.00  0.00    -0.506 OA
ATOM     25  H   UNL     1       5.186  -3.613   2.345  0.00  0.00    +0.292 HD
ENDBRANCH  20  24
ENDBRANCH   8  15
BRANCH   1  27
ATOM     26  N   UNL     1       3.307  -1.291   5.457  0.00  0.00    -0.281 N 
ATOM     27  C   UNL     1       2.870  -1.382   4.185  0.00  0.00    +0.250 C 
ATOM     28  O   UNL     1       2.440  -2.438   3.764  0.00  0.00    -0.270 OA
ATOM     29  H   UNL     1       3.610  -0.316   5.866  0.00  0.00    +0.155 HD
BRANCH  26  33
ATOM     30  C   UNL     1       3.508  -4.705   7.841  0.00  0.00    +0.121 A 
ATOM     31  C   UNL     1       4.449  -3.697   7.993  0.00  0.00    +0.047 A 
ATOM     32  C   UNL     1       4.383  -2.566   7.203  0.00  0.00    +0.027 A 
ATOM     33  C   UNL     1       3.374  -2.438   6.258  0.00  0.00    +0.034 A 
ATOM     34  C   UNL     1       2.429  -3.444   6.111  0.00  0.00    +0.027 A 
ATOM     35  C   UNL     1       2.499  -4.577   6.897  0.00  0.00    +0.047 A 
BRANCH  30  36
ATOM     36  O   UNL     1       3.573  -5.819   8.618  0.00  0.00    -0.492 OA
BRANCH  36  38
ATOM     37  C   UNL     1       2.807  -7.985   9.368  0.00  0.00    +0.048 C 
ATOM     38  C   UNL     1       2.572  -6.816   8.409  0.00  0.00    +0.225 C 
ENDBRANCH  36  38
ENDBRANCH  30  36
ENDBRANCH  26  33
ENDBRANCH   1  27
TORSDOF 7
