REMARK  Name = ZINC12498323
REMARK  15 active torsions:
REMARK  status: ('A' for Active; 'I' for Inactive)
REMARK    1  A    between atoms: C_1  and  C_2
REMARK    2  A    between atoms: C_2  and  C_4
REMARK    3  A    between atoms: C_8  and  N_10
REMARK    4  A    between atoms: C_15  and  C_30
REMARK    5  A    between atoms: C_17  and  C_22
REMARK    6  A    between atoms: C_17  and  C_26
REMARK    7  A    between atoms: C_22  and  C_23
REMARK    8  A    between atoms: C_23  and  S_24
REMARK    9  A    between atoms: S_24  and  C_25
REMARK   10  A    between atoms: C_26  and  O_28
REMARK   11  A    between atoms: O_28  and  C_29
REMARK   12  A    between atoms: C_33  and  O_38
REMARK   13  A    between atoms: C_35  and  O_36
REMARK   14  A    between atoms: O_36  and  C_37
REMARK   15  A    between atoms: O_38  and  C_39
REMARK                            x       y       z     vdW  Elec       q    Type
REMARK                         _______ _______ _______ _____ _____    ______ ____
ROOT
ATOM      1  N   UNL     1      -3.489   0.931  -3.530  0.00  0.00    -0.210 N 
ATOM      2  C   UNL     1      -3.269   1.790  -2.481  0.00  0.00    +0.229 C 
ATOM      3  O   UNL     1      -3.238   3.001  -2.508  0.00  0.00    -0.275 OA
ATOM      4  C   UNL     1      -3.084   0.925  -1.336  0.00  0.00    +0.077 C 
ATOM      5  C   UNL     1      -2.513   0.976   0.019  0.00  0.00    -0.023 C 
ATOM      6  C   UNL     1      -2.577  -1.282  -0.845  0.00  0.00    +0.044 C 
ATOM      7  C   UNL     1      -2.321  -0.296  -1.991  0.00  0.00    +0.086 C 
ATOM      8  C   UNL     1      -3.175  -0.363  -3.227  0.00  0.00    +0.229 C 
ATOM      9  O   UNL     1      -3.514  -1.359  -3.830  0.00  0.00    -0.275 OA
ATOM     10  N   UNL     1      -2.269  -0.456   0.358  0.00  0.00    +0.395 N 
ATOM     11  H   UNL     1      -2.877  -0.737   1.137  0.00  0.00    -0.083 HD
ATOM     12  H   UNL     1      -1.287  -0.587   0.626  0.00  0.00    -0.083 HD
ENDROOT
BRANCH   1  17
ATOM     13  C   UNL     1      -4.769   3.076  -6.247  0.00  0.00    +0.019 A 
ATOM     14  C   UNL     1      -4.960   2.126  -7.256  0.00  0.00    +0.011 A 
ATOM     15  C   UNL     1      -4.664   0.801  -7.019  0.00  0.00    +0.003 A 
ATOM     16  C   UNL     1      -4.172   0.406  -5.788  0.00  0.00    +0.024 A 
ATOM     17  C   UNL     1      -3.983   1.339  -4.777  0.00  0.00    +0.045 A 
ATOM     18  C   UNL     1      -4.277   2.674  -5.002  0.00  0.00    +0.035 A 
BRANCH  13  20
ATOM     19  C   UNL     1      -5.614   4.922  -7.839  0.00  0.00    +0.091 C 
ATOM     20  C   UNL     1      -5.084   4.492  -6.495  0.00  0.00    +0.160 C 
ATOM     21  O   UNL     1      -4.917   5.313  -5.619  0.00  0.00    -0.292 OA
ENDBRANCH  13  20
ENDBRANCH   1  17
BRANCH   5  22
ATOM     22  C   UNL     1      -1.219   1.749   0.017  0.00  0.00    -0.019 A 
ATOM     23  C   UNL     1      -0.019   1.086  -0.150  0.00  0.00    +0.009 A 
ATOM     24  C   UNL     1       1.169   1.792  -0.158  0.00  0.00    +0.046 A 
ATOM     25  C   UNL     1       1.159   3.170   0.008  0.00  0.00    +0.124 A 
ATOM     26  C   UNL     1      -0.044   3.837   0.183  0.00  0.00    +0.091 A 
ATOM     27  C   UNL     1      -1.234   3.126   0.190  0.00  0.00    +0.125 A 
BRANCH  27  28
ATOM     28  O   UNL     1      -2.415   3.777   0.361  0.00  0.00    -0.495 OA
ATOM     29  C   UNL     1      -2.355   5.195   0.527  0.00  0.00    +0.277 C 
ENDBRANCH  27  28
BRANCH  25  30
ATOM     30  O   UNL     1       2.327   3.864   0.001  0.00  0.00    -0.495 OA
ATOM     31  C   UNL     1       3.527   3.112  -0.182  0.00  0.00    +0.277 C 
ENDBRANCH  25  30
ENDBRANCH   5  22
BRANCH   6  32
ATOM     32  C   UNL     1      -4.017  -1.726  -0.834  0.00  0.00    +0.297 C 
ATOM     33  O   UNL     1      -4.667  -1.695  -1.853  0.00  0.00    -0.252 OA
BRANCH  32  34
ATOM     34  O   UNL     1      -4.578  -2.157   0.307  0.00  0.00    -0.469 OA
ATOM     35  C   UNL     1      -5.969  -2.569   0.242  0.00  0.00    +0.280 C 
ENDBRANCH  32  34
ENDBRANCH   6  32
BRANCH   6  36
ATOM     36  C   UNL     1      -1.637  -2.485  -0.944  0.00  0.00    +0.010 C 
BRANCH  36  37
ATOM     37  C   UNL     1      -1.918  -3.448   0.212  0.00  0.00    +0.068 C 
BRANCH  37  38
ATOM     38  S   UNL     1      -0.804  -4.875   0.095  0.00  0.00    -0.164 S 
ATOM     39  C   UNL     1      -1.259  -5.905   1.516  0.00  0.00    +0.084 C 
ENDBRANCH  37  38
ENDBRANCH  36  37
ENDBRANCH   6  36
TORSDOF 10
