REMARK  Name = ZINC47317913
REMARK  4 active torsions:
REMARK  status: ('A' for Active; 'I' for Inactive)
REMARK    1  A    between atoms: C_3  and  S_9
REMARK    2  A    between atoms: S_9  and  N_12
REMARK    3  A    between atoms: N_12  and  C_13
REMARK    4  A    between atoms: C_15  and  C_21
REMARK                            x       y       z     vdW  Elec       q    Type
REMARK                         _______ _______ _______ _____ _____    ______ ____
ROOT
ATOM      1  N   UNL     1       4.667   1.988   1.401  0.00  0.00    -0.095 NA
ENDROOT
BRANCH   1   2
ATOM      2  C   UNL     1       5.909   2.574   1.673  0.00  0.00    +0.110 A 
ATOM      3  C   UNL     1       6.561   2.293   2.860  0.00  0.00    +0.047 A 
ATOM      4  C   UNL     1       7.801   2.880   3.128  0.00  0.00    +0.100 A 
ATOM      5  C   UNL     1       8.376   3.749   2.192  0.00  0.00    +0.140 A 
ATOM      6  C   UNL     1       7.716   4.023   1.009  0.00  0.00    +0.079 A 
ATOM      7  C   UNL     1       6.491   3.435   0.744  0.00  0.00    +0.151 A 
ATOM      8  F   UNL     1       5.854   3.702  -0.417  0.00  0.00    -0.203 F 
ATOM      9  F   UNL     1       9.574   4.320   2.446  0.00  0.00    -0.205 F 
BRANCH   4  10
ATOM     10  C   UNL     1       8.501   2.587   4.390  0.00  0.00    +0.389 C 
ATOM     11  O   UNL     1       7.997   1.827   5.206  0.00  0.00    -0.240 OA
ATOM     12  O   UNL     1       9.586   3.102   4.622  0.00  0.00    -0.240 OA
ENDBRANCH   4  10
ENDBRANCH   1   2
BRANCH   1  13
ATOM     13  S   UNL     1       3.890   2.318  -0.024  0.00  0.00    +0.094 S 
ATOM     14  O   UNL     1       4.688   1.763  -1.060  0.00  0.00    -0.148 OA
ATOM     15  O   UNL     1       3.541   3.695   0.014  0.00  0.00    -0.148 OA
BRANCH  13  18
ATOM     16  C   UNL     1      -0.017   1.379   0.010  0.00  0.00    +0.022 A 
ATOM     17  C   UNL     1       1.171   2.087   0.002  0.00  0.00    +0.033 A 
ATOM     18  C   UNL     1       2.377   1.415  -0.013  0.00  0.00    +0.145 A 
ATOM     19  C   UNL     1       2.398   0.030  -0.022  0.00  0.00    +0.151 A 
ATOM     20  C   UNL     1       1.209  -0.679  -0.014  0.00  0.00    +0.060 A 
ATOM     21  C   UNL     1       0.002  -0.004   0.002  0.00  0.00    +0.044 A 
ATOM     22 CL   UNL     1      -1.489  -0.892   0.012  0.00  0.00    -0.083 Cl
ATOM     23  F   UNL     1       3.578  -0.628  -0.038  0.00  0.00    -0.203 F 
ENDBRANCH  13  18
ENDBRANCH   1  13
TORSDOF 4
