REMARK  Name = ZINC13075062
REMARK  6 active torsions:
REMARK  status: ('A' for Active; 'I' for Inactive)
REMARK    1  A    between atoms: C_3  and  O_31
REMARK    2  A    between atoms: C_4  and  C_28
REMARK    3  A    between atoms: C_6  and  C_7
REMARK    4  A    between atoms: N_11  and  C_12
REMARK    5  A    between atoms: N_20  and  C_21
REMARK    6  A    between atoms: C_21  and  C_22
REMARK                            x       y       z     vdW  Elec       q    Type
REMARK                         _______ _______ _______ _____ _____    ______ ____
ROOT
ATOM      1  C   UNL     1      -2.008   0.819  -3.803  0.00  0.00    +0.058 A 
ATOM      2  C   UNL     1      -1.847   1.365  -5.026  0.00  0.00    +0.075 A 
ATOM      3  S   UNL     1      -3.297   2.397  -5.170  0.00  0.00    -0.057 S 
ATOM      4  C   UNL     1      -4.026   2.024  -3.583  0.00  0.00    +0.174 A 
ATOM      5  N   UNL     1      -5.148   2.473  -3.054  0.00  0.00    -0.222 NA
ATOM      6  N   UNL     1      -3.108   1.145  -3.056  0.00  0.00    -0.317 N 
ENDROOT
BRANCH   5   7
ATOM      7  C   UNL     1      -5.982   3.267  -3.792  0.00  0.00    +0.085 A 
ATOM      8  C   UNL     1      -6.921   2.691  -4.651  0.00  0.00    +0.031 A 
ATOM      9  C   UNL     1      -7.760   3.497  -5.392  0.00  0.00    +0.022 A 
ATOM     10  C   UNL     1      -7.672   4.875  -5.288  0.00  0.00    +0.042 A 
ATOM     11  C   UNL     1      -6.743   5.454  -4.439  0.00  0.00    +0.042 A 
ATOM     12  C   UNL     1      -5.902   4.659  -3.687  0.00  0.00    +0.068 A 
ATOM     13 CL   UNL     1      -4.743   5.385  -2.618  0.00  0.00    -0.081 Cl
ATOM     14 CL   UNL     1      -8.730   5.882  -6.225  0.00  0.00    -0.083 Cl
ENDBRANCH   5   7
BRANCH   1  20
ATOM     15  C   UNL     1       0.345   0.241  -3.223  0.00  0.00    +0.013 A 
ATOM     16  C   UNL     1       1.286  -0.635  -2.724  0.00  0.00    +0.047 A 
ATOM     17  C   UNL     1       0.903  -1.892  -2.278  0.00  0.00    +0.129 A 
ATOM     18  C   UNL     1      -0.445  -2.273  -2.328  0.00  0.00    +0.078 A 
ATOM     19  C   UNL     1      -1.397  -1.385  -2.827  0.00  0.00    +0.026 A 
ATOM     20  C   UNL     1      -1.002  -0.127  -3.272  0.00  0.00    -0.000 A 
BRANCH  18  21
ATOM     21  C   UNL     1      -0.855  -3.609  -1.854  0.00  0.00    +0.245 C 
ATOM     22  O   UNL     1      -0.023  -4.382  -1.419  0.00  0.00    -0.270 OA
ATOM     23  N   UNL     1      -2.152  -3.973  -1.904  0.00  0.00    -0.325 N 
ATOM     24  H   UNL     1      -2.816  -3.357  -2.251  0.00  0.00    +0.145 HD
ATOM     25  H   UNL     1      -2.421  -4.852  -1.593  0.00  0.00    +0.145 HD
ENDBRANCH  18  21
BRANCH  17  26
ATOM     26  O   UNL     1       1.834  -2.752  -1.793  0.00  0.00    -0.506 OA
ATOM     27  H   UNL     1       2.226  -3.326  -2.465  0.00  0.00    +0.292 HD
ENDBRANCH  17  26
ENDBRANCH   1  20
BRANCH   6  28
ATOM     28  C   UNL     1      -3.306   0.565  -1.725  0.00  0.00    +0.156 C 
BRANCH  28  29
ATOM     29  C   UNL     1      -2.762   1.525  -0.665  0.00  0.00    +0.138 C 
ATOM     30  C   UNL     1      -3.070   0.979   0.746  0.00  0.00    +0.035 C 
ATOM     31  C   UNL     1      -1.771   1.328   1.527  0.00  0.00    +0.031 C 
ATOM     32  C   UNL     1      -0.707   1.158   0.413  0.00  0.00    +0.160 C 
ATOM     33  O   UNL     1      -1.339   1.630  -0.788  0.00  0.00    -0.375 OA
ENDBRANCH  28  29
ENDBRANCH   6  28
TORSDOF 6
