REMARK  Name = ZINC13757028
REMARK  4 active torsions:
REMARK  status: ('A' for Active; 'I' for Inactive)
REMARK    1  A    between atoms: C_10  and  C_11
REMARK    2  A    between atoms: C_11  and  N_12
REMARK    3  A    between atoms: N_20  and  N_21
REMARK    4  A    between atoms: C_22  and  C_24
REMARK                            x       y       z     vdW  Elec       q    Type
REMARK                         _______ _______ _______ _____ _____    ______ ____
ROOT
ATOM      1  N   UNL     1       5.394   0.557   1.304  0.00  0.00    -0.261 N 
ATOM      2  C   UNL     1       4.752   1.543   2.046  0.00  0.00    +0.046 A 
ATOM      3  C   UNL     1       3.785   2.479   1.696  0.00  0.00    +0.024 A 
ATOM      4  C   UNL     1       3.304   3.364   2.640  0.00  0.00    +0.002 A 
ATOM      5  C   UNL     1       3.775   3.331   3.942  0.00  0.00    +0.001 A 
ATOM      6  C   UNL     1       4.734   2.409   4.307  0.00  0.00    +0.012 A 
ATOM      7  C   UNL     1       5.225   1.513   3.364  0.00  0.00    +0.028 A 
ATOM      8  C   UNL     1       6.231   0.427   3.423  0.00  0.00    +0.153 C 
ATOM      9  N   UNL     1       6.931   0.043   4.462  0.00  0.00    -0.174 NA
ATOM     10  C   UNL     1       6.268  -0.133   2.057  0.00  0.00    +0.272 C 
ATOM     11  O   UNL     1       6.967  -1.055   1.679  0.00  0.00    -0.268 OA
ENDROOT
BRANCH   9  12
ATOM     12  N   UNL     1       6.861   0.766   5.660  0.00  0.00    -0.203 N 
ATOM     13  C   UNL     1       7.481   0.304   6.764  0.00  0.00    +0.276 C 
ATOM     14  O   UNL     1       8.100  -0.738   6.720  0.00  0.00    -0.270 OA
ATOM     15  H   UNL     1       6.365   1.599   5.695  0.00  0.00    +0.177 HD
BRANCH  13  16
ATOM     16  C   UNL     1       7.405   1.081   8.052  0.00  0.00    +0.297 C 
ATOM     17  C   UNL     1       8.132   2.423   7.890  0.00  0.00    +0.283 C 
ATOM     18  O   UNL     1       8.044   3.134   9.129  0.00  0.00    -0.484 OA
ATOM     19  C   UNL     1       8.326   2.429  10.261  0.00  0.00    +0.163 A 
ATOM     20  C   UNL     1       8.610   3.114  11.409  0.00  0.00    +0.058 A 
ATOM     21  C   UNL     1       8.901   2.411  12.589  0.00  0.00    -0.014 A 
ATOM     22  C   UNL     1       9.199   3.087  13.785  0.00  0.00    +0.008 A 
ATOM     23  C   UNL     1       9.477   2.374  14.911  0.00  0.00    +0.001 A 
ATOM     24  C   UNL     1       9.471   0.981  14.897  0.00  0.00    +0.001 A 
ATOM     25  C   UNL     1       9.187   0.292  13.758  0.00  0.00    +0.008 A 
ATOM     26  C   UNL     1       8.895   0.994  12.575  0.00  0.00    -0.014 A 
ATOM     27  C   UNL     1       8.600   0.317  11.381  0.00  0.00    +0.058 A 
ATOM     28  C   UNL     1       8.323   1.026  10.246  0.00  0.00    +0.164 A 
ATOM     29  O   UNL     1       8.048   0.346   9.098  0.00  0.00    -0.472 OA
ENDBRANCH  13  16
ENDBRANCH   9  12
BRANCH   1  30
ATOM     30  C   UNL     1       5.145   0.300  -0.117  0.00  0.00    +0.149 C 
BRANCH  30  40
ATOM     31  C   UNL     1       6.281   0.577  -5.100  0.00  0.00    +0.001 A 
ATOM     32  C   UNL     1       5.316  -0.093  -4.350  0.00  0.00    +0.001 A 
ATOM     33  C   UNL     1       5.266   0.036  -2.996  0.00  0.00    +0.009 A 
ATOM     34  C   UNL     1       6.200   0.858  -2.341  0.00  0.00    -0.013 A 
ATOM     35  C   UNL     1       7.182   1.539  -3.104  0.00  0.00    -0.018 A 
ATOM     36  C   UNL     1       7.201   1.381  -4.500  0.00  0.00    +0.008 A 
ATOM     37  C   UNL     1       8.116   2.359  -2.449  0.00  0.00    +0.008 A 
ATOM     38  C   UNL     1       8.066   2.489  -1.095  0.00  0.00    +0.001 A 
ATOM     39  C   UNL     1       7.102   1.818  -0.345  0.00  0.00    +0.006 A 
ATOM     40  C   UNL     1       6.181   1.016  -0.945  0.00  0.00    -0.022 A 
ENDBRANCH  30  40
ENDBRANCH   1  30
TORSDOF 4
