REMARK  Name = ZINC06822059
REMARK  11 active torsions:
REMARK  status: ('A' for Active; 'I' for Inactive)
REMARK    1  A    between atoms: C_1  and  C_2
REMARK    2  A    between atoms: C_2  and  C_3
REMARK    3  A    between atoms: C_6  and  N_9
REMARK    4  A    between atoms: N_9  and  C_10
REMARK    5  A    between atoms: C_10  and  C_12
REMARK    6  A    between atoms: C_10  and  C_18
REMARK    7  A    between atoms: C_15  and  C_17
REMARK    8  A    between atoms: N_20  and  C_21
REMARK    9  A    between atoms: C_27  and  C_29
REMARK   10  A    between atoms: C_30  and  N_37
REMARK   11  A    between atoms: C_31  and  C_34
REMARK                            x       y       z     vdW  Elec       q    Type
REMARK                         _______ _______ _______ _____ _____    ______ ____
ROOT
ATOM      1  N   UNL     1      -2.402   2.891   4.628  0.00  0.00    -0.248 N 
ATOM      2  C   UNL     1      -3.604   2.308   4.810  0.00  0.00    +0.262 C 
ATOM      3  O   UNL     1      -4.413   2.806   5.571  0.00  0.00    -0.269 OA
ENDROOT
BRANCH   1   7
ATOM      4  C   UNL     1       0.264   1.339   1.829  0.00  0.00    -0.048 A 
ATOM      5  C   UNL     1       0.378   0.985   3.160  0.00  0.00    +0.005 A 
ATOM      6  C   UNL     1      -0.501   1.502   4.092  0.00  0.00    +0.024 A 
ATOM      7  C   UNL     1      -1.507   2.370   3.688  0.00  0.00    +0.038 A 
ATOM      8  C   UNL     1      -1.623   2.720   2.349  0.00  0.00    +0.024 A 
ATOM      9  C   UNL     1      -0.737   2.203   1.423  0.00  0.00    +0.005 A 
BRANCH   4  11
ATOM     10  C   UNL     1       2.435   1.709   0.689  0.00  0.00    +0.009 C 
ATOM     11  C   UNL     1       1.228   0.777   0.816  0.00  0.00    +0.032 C 
ENDBRANCH   4  11
ENDBRANCH   1   7
BRANCH   2  12
ATOM     12  C   UNL     1      -3.936   1.077   4.091  0.00  0.00    +0.116 A 
ATOM     13  C   UNL     1      -5.074   0.275   4.189  0.00  0.00    +0.076 A 
ATOM     14  C   UNL     1      -5.027  -0.827   3.335  0.00  0.00    +0.155 A 
ATOM     15  N   UNL     1      -3.976  -0.998   2.563  0.00  0.00    -0.203 NA
ATOM     16  S   UNL     1      -2.999   0.205   2.853  0.00  0.00    +0.019 S 
BRANCH  14  17
ATOM     17  C   UNL     1      -6.142  -1.790   3.299  0.00  0.00    +0.262 C 
ATOM     18  O   UNL     1      -7.111  -1.627   4.016  0.00  0.00    -0.269 OA
ATOM     19  N   UNL     1      -6.089  -2.853   2.470  0.00  0.00    -0.324 N 
ATOM     20  H   UNL     1      -5.316  -2.983   1.899  0.00  0.00    +0.145 HD
ATOM     21  H   UNL     1      -6.823  -3.486   2.447  0.00  0.00    +0.145 HD
ENDBRANCH  14  17
BRANCH  13  22
ATOM     22  N   UNL     1      -6.136   0.543   5.043  0.00  0.00    -0.355 N 
ATOM     23  H   UNL     1      -6.112   1.327   5.615  0.00  0.00    +0.142 HD
ATOM     24  H   UNL     1      -6.902  -0.052   5.067  0.00  0.00    +0.142 HD
ENDBRANCH  13  22
ENDBRANCH   2  12
BRANCH   1  25
ATOM     25  C   UNL     1      -2.034   4.071   5.415  0.00  0.00    +0.233 C 
BRANCH  25  26
ATOM     26  C   UNL     1      -0.711   3.827   6.096  0.00  0.00    +0.135 A 
ATOM     27  C   UNL     1      -0.391   4.200   7.348  0.00  0.00    +0.047 A 
ATOM     28  C   UNL     1       0.937   3.771   7.576  0.00  0.00    +0.045 A 
ATOM     29  C   UNL     1       1.351   3.169   6.446  0.00  0.00    +0.102 A 
ATOM     30  O   UNL     1       0.349   3.206   5.553  0.00  0.00    -0.462 OA
ATOM     31  C   UNL     1       2.710   2.558   6.221  0.00  0.00    +0.086 C 
ENDBRANCH  25  26
BRANCH  25  32
ATOM     32  C   UNL     1      -1.917   5.266   4.505  0.00  0.00    +0.242 C 
ATOM     33  O   UNL     1      -2.190   5.160   3.328  0.00  0.00    -0.273 OA
ATOM     34  N   UNL     1      -1.510   6.452   4.999  0.00  0.00    -0.311 N 
ATOM     35  H   UNL     1      -1.293   6.536   5.940  0.00  0.00    +0.149 HD
BRANCH  34  36
ATOM     36  C   UNL     1      -1.397   7.614   4.114  0.00  0.00    +0.073 C 
ATOM     37  C   UNL     1      -0.032   7.599   3.424  0.00  0.00    +0.022 C 
ATOM     38  C   UNL     1       0.086   8.812   2.500  0.00  0.00    +0.002 C 
ATOM     39  C   UNL     1      -0.056  10.095   3.322  0.00  0.00    +0.000 C 
ATOM     40  C   UNL     1      -1.421  10.110   4.011  0.00  0.00    +0.002 C 
ATOM     41  C   UNL     1      -1.540   8.897   4.936  0.00  0.00    +0.022 C 
ENDBRANCH  34  36
ENDBRANCH  25  32
ENDBRANCH   1  25
TORSDOF 9
