REMARK  Name = ZINC12247769
REMARK  10 active torsions:
REMARK  status: ('A' for Active; 'I' for Inactive)
REMARK    1  A    between atoms: C_1  and  C_2
REMARK    2  A    between atoms: C_5  and  C_11
REMARK    3  A    between atoms: C_11  and  C_12
REMARK    4  A    between atoms: C_17  and  C_20
REMARK    5  A    between atoms: C_20  and  C_22
REMARK    6  A    between atoms: C_20  and  N_71
REMARK    7  A    between atoms: C_22  and  C_23
REMARK    8  A    between atoms: C_29  and  N_71
REMARK    9  A    between atoms: C_30  and  C_31
REMARK   10  A    between atoms: C_30  and  N_71
REMARK                            x       y       z     vdW  Elec       q    Type
REMARK                         _______ _______ _______ _____ _____    ______ ____
ROOT
ATOM      1  C   UNL     1      -1.568   1.474  -3.690  0.00  0.00    +0.217 C 
ATOM      2  O   UNL     1      -2.518   2.226  -3.643  0.00  0.00    -0.276 OA
ATOM      3  N   UNL     1      -1.002   1.176  -4.876  0.00  0.00    -0.301 N 
ATOM      4  C   UNL     1       0.154   0.271  -4.947  0.00  0.00    +0.108 C 
ATOM      5  C   UNL     1      -0.166  -0.852  -5.945  0.00  0.00    +0.021 C 
ATOM      6  C   UNL     1      -0.566  -0.235  -7.288  0.00  0.00    -0.021 C 
ATOM      7  C   UNL     1      -1.822   0.619  -7.105  0.00  0.00    +0.021 C 
ATOM      8  C   UNL     1      -1.524   1.754  -6.121  0.00  0.00    +0.108 C 
ENDROOT
BRANCH   1   9
ATOM      9  C   UNL     1      -1.020   0.873  -2.421  0.00  0.00    +0.118 C 
BRANCH   9  13
ATOM     10  C   UNL     1      -2.131   2.798   1.357  0.00  0.00    +0.028 C 
ATOM     11  C   UNL     1      -2.100   1.272   1.248  0.00  0.00    +0.071 C 
ATOM     12  C   UNL     1      -1.207   0.860   0.073  0.00  0.00    +0.044 C 
ATOM     13  C   UNL     1      -1.838   1.370  -1.227  0.00  0.00    +0.082 C 
ATOM     14  N   UNL     1      -3.208   0.864  -1.327  0.00  0.00    -0.323 N 
ATOM     15  C   UNL     1      -3.936   0.601  -0.232  0.00  0.00    +0.131 C 
ATOM     16  S   UNL     1      -5.536   0.024  -0.427  0.00  0.00    -0.019 S 
ATOM     17  N   UNL     1      -3.459   0.770   1.011  0.00  0.00    -0.324 N 
ATOM     18  H   UNL     1      -3.597   0.716  -2.203  0.00  0.00    +0.148 HD
ATOM     19  H   UNL     1      -4.024   0.556   1.770  0.00  0.00    +0.148 HD
ENDBRANCH   9  13
ENDBRANCH   1   9
BRANCH   6  20
ATOM     20  C   UNL     1      -0.849  -1.351  -8.296  0.00  0.00    -0.061 C 
BRANCH  20  22
ATOM     21  C   UNL     1       0.341  -2.734  -9.888  0.00  0.00    -0.095 C 
ATOM     22  N   UNL     1       0.392  -2.114  -8.547  0.00  0.00    +0.383 N 
ATOM     23  H   UNL     1       0.477  -2.853  -7.840  0.00  0.00    -0.081 HD
BRANCH  22  24
ATOM     24  C   UNL     1       1.564  -1.218  -8.448  0.00  0.00    -0.043 C 
BRANCH  24  25
ATOM     25  C   UNL     1       2.818  -2.035  -8.624  0.00  0.00    -0.061 A 
ATOM     26  C   UNL     1       3.444  -2.618  -7.532  0.00  0.00    +0.021 A 
ATOM     27  C   UNL     1       4.590  -3.363  -7.732  0.00  0.00    +0.111 A 
ATOM     28  N   UNL     1       5.094  -3.516  -8.942  0.00  0.00    -0.263 NA
ATOM     29  C   UNL     1       4.527  -2.973 -10.002  0.00  0.00    +0.111 A 
ATOM     30  C   UNL     1       3.376  -2.217  -9.880  0.00  0.00    +0.021 A 
ENDBRANCH  24  25
ENDBRANCH  22  24
ENDBRANCH  20  22
BRANCH  20  31
ATOM     31  C   UNL     1      -1.899  -2.303  -7.722  0.00  0.00    +0.020 C 
BRANCH  31  32
ATOM     32  C   UNL     1      -2.283  -3.318  -8.768  0.00  0.00    -0.049 A 
ATOM     33  C   UNL     1      -3.197  -2.987  -9.750  0.00  0.00    +0.003 A 
ATOM     34  C   UNL     1      -3.545  -3.917 -10.712  0.00  0.00    +0.000 A 
ATOM     35  C   UNL     1      -2.986  -5.181 -10.686  0.00  0.00    +0.000 A 
ATOM     36  C   UNL     1      -2.076  -5.514  -9.700  0.00  0.00    +0.000 A 
ATOM     37  C   UNL     1      -1.724  -4.582  -8.741  0.00  0.00    +0.003 A 
ENDBRANCH  31  32
ENDBRANCH  20  31
ENDBRANCH   6  20
TORSDOF 8
