REMARK  Name = ZINC63363091
REMARK  9 active torsions:
REMARK  status: ('A' for Active; 'I' for Inactive)
REMARK    1  A    between atoms: C_1  and  C_2
REMARK    2  A    between atoms: C_2  and  C_3
REMARK    3  A    between atoms: C_3  and  C_4
REMARK    4  A    between atoms: C_4  and  N_5
REMARK    5  A    between atoms: C_6  and  C_8
REMARK    6  A    between atoms: C_13  and  N_14
REMARK    7  A    between atoms: C_30  and  C_35
REMARK    8  A    between atoms: C_39  and  O_41
REMARK    9  A    between atoms: O_41  and  C_42
REMARK                            x       y       z     vdW  Elec       q    Type
REMARK                         _______ _______ _______ _____ _____    ______ ____
ROOT
ATOM      1  N   UNL     1      -3.147  -6.707   0.510  0.00  0.00    -0.192 N 
ATOM      2  C   UNL     1      -2.349  -7.220   1.470  0.00  0.00    +0.248 C 
ATOM      3  O   UNL     1      -2.376  -6.968   2.656  0.00  0.00    -0.273 OA
ATOM      4  C   UNL     1      -1.416  -8.174   0.759  0.00  0.00    +0.169 C 
ATOM      5  C   UNL     1       0.046  -7.748   0.988  0.00  0.00    +0.065 C 
ATOM      6  C   UNL     1       0.840  -8.320  -0.163  0.00  0.00    -0.034 C 
ATOM      7  C   UNL     1       1.920  -9.094  -0.169  0.00  0.00    -0.001 A 
ATOM      8  C   UNL     1       2.777  -9.585   0.922  0.00  0.00    +0.010 A 
ATOM      9  C   UNL     1       3.810 -10.391   0.556  0.00  0.00    +0.001 A 
ATOM     10  C   UNL     1       4.072 -10.751  -0.770  0.00  0.00    +0.002 A 
ATOM     11  C   UNL     1       3.341 -10.338  -1.836  0.00  0.00    +0.026 A 
ATOM     12  C   UNL     1       2.232  -9.480  -1.578  0.00  0.00    +0.043 A 
ATOM     13  N   UNL     1       1.387  -8.929  -2.398  0.00  0.00    -0.375 N 
ATOM     14  C   UNL     1       0.475  -8.087  -1.623  0.00  0.00    +0.131 C 
ATOM     15  C   UNL     1      -0.986  -8.530  -1.795  0.00  0.00    +0.135 C 
ATOM     16  N   UNL     1      -1.754  -7.981  -0.665  0.00  0.00    -0.264 N 
ATOM     17  C   UNL     1      -2.822  -7.174  -0.703  0.00  0.00    +0.317 C 
ATOM     18  O   UNL     1      -3.425  -6.895  -1.721  0.00  0.00    -0.252 OA
ATOM     19  H   UNL     1       1.365  -9.055  -3.360  0.00  0.00    +0.160 HD
ENDROOT
BRANCH   1  25
ATOM     20  C   UNL     1      -3.942  -4.426   0.724  0.00  0.00    +0.059 A 
ATOM     21  C   UNL     1      -4.991  -3.535   0.962  0.00  0.00    +0.015 A 
ATOM     22  C   UNL     1      -6.255  -4.016   1.228  0.00  0.00    +0.001 A 
ATOM     23  C   UNL     1      -6.491  -5.380   1.261  0.00  0.00    +0.002 A 
ATOM     24  C   UNL     1      -5.463  -6.273   1.027  0.00  0.00    +0.025 A 
ATOM     25  C   UNL     1      -4.186  -5.806   0.752  0.00  0.00    +0.058 A 
BRANCH  20  27
ATOM     26  N   UNL     1      -2.356  -2.590   0.412  0.00  0.00    -0.311 N 
ATOM     27  C   UNL     1      -2.586  -3.917   0.438  0.00  0.00    +0.246 C 
ATOM     28  O   UNL     1      -1.677  -4.696   0.226  0.00  0.00    -0.270 OA
ATOM     29  H   UNL     1      -3.082  -1.968   0.581  0.00  0.00    +0.149 HD
BRANCH  26  30
ATOM     30  C   UNL     1      -1.011  -2.085   0.128  0.00  0.00    +0.104 C 
BRANCH  30  31
ATOM     31  C   UNL     1      -1.023  -0.555   0.158  0.00  0.00    +0.018 C 
BRANCH  31  33
ATOM     32  C   UNL     1       0.370   1.501  -0.108  0.00  0.00    +0.004 C 
ATOM     33  C   UNL     1       0.383  -0.028  -0.138  0.00  0.00    -0.002 C 
ENDBRANCH  31  33
ENDBRANCH  30  31
ENDBRANCH  26  30
ENDBRANCH  20  27
ENDBRANCH   1  25
BRANCH  15  34
ATOM     34  C   UNL     1      -1.073 -10.034  -1.773  0.00  0.00    -0.021 A 
ATOM     35  C   UNL     1      -0.786 -10.726  -0.610  0.00  0.00    +0.006 A 
ATOM     36  C   UNL     1      -0.865 -12.106  -0.586  0.00  0.00    +0.004 A 
ATOM     37  C   UNL     1      -1.231 -12.797  -1.725  0.00  0.00    +0.045 A 
ATOM     38  C   UNL     1      -1.520 -12.106  -2.893  0.00  0.00    +0.120 A 
ATOM     39  C   UNL     1      -1.445 -10.721  -2.912  0.00  0.00    +0.051 A 
BRANCH  38  40
ATOM     40  O   UNL     1      -1.880 -12.784  -4.014  0.00  0.00    -0.495 OA
ATOM     41  C   UNL     1      -1.941 -14.209  -3.919  0.00  0.00    +0.277 C 
ENDBRANCH  38  40
ENDBRANCH  15  34
TORSDOF 7
