REMARK  Name = ZINC39364098
REMARK  10 active torsions:
REMARK  status: ('A' for Active; 'I' for Inactive)
REMARK    1  A    between atoms: C_1  and  C_2
REMARK    2  A    between atoms: C_4  and  C_12
REMARK    3  A    between atoms: C_12  and  C_14
REMARK    4  A    between atoms: N_16  and  C_17
REMARK    5  A    between atoms: C_17  and  C_18
REMARK    6  A    between atoms: C_18  and  C_19
REMARK    7  A    between atoms: C_22  and  O_33
REMARK    8  A    between atoms: C_25  and  O_31
REMARK    9  A    between atoms: O_31  and  C_32
REMARK   10  A    between atoms: O_33  and  C_34
REMARK                            x       y       z     vdW  Elec       q    Type
REMARK                         _______ _______ _______ _____ _____    ______ ____
ROOT
ATOM      1  C   UNL     1       2.077  -1.349  -6.026  0.00  0.00    +0.109 C 
ENDROOT
BRANCH   1   4
ATOM      2  C   UNL     1       1.404  -0.953  -3.717  0.00  0.00    +0.284 C 
ATOM      3  O   UNL     1       2.224  -1.778  -3.368  0.00  0.00    -0.267 OA
ATOM      4  N   UNL     1       1.253  -0.665  -5.025  0.00  0.00    -0.308 N 
ATOM      5  H   UNL     1       0.599  -0.006  -5.304  0.00  0.00    +0.149 HD
BRANCH   2   6
ATOM      6  C   UNL     1       0.567  -0.259  -2.700  0.00  0.00    +0.246 C 
ATOM      7  O   UNL     1      -0.186   0.635  -3.040  0.00  0.00    -0.282 OA
BRANCH   6  10
ATOM      8  C   UNL     1       0.924  -3.116  -1.346  0.00  0.00    +0.035 C 
ATOM      9  C   UNL     1       1.426  -1.795  -0.759  0.00  0.00    +0.111 C 
ATOM     10  C   UNL     1       0.646  -0.637  -1.343  0.00  0.00    +0.035 C 
ATOM     11  C   UNL     1       0.026  -0.026  -0.263  0.00  0.00    +0.007 A 
ATOM     12  C   UNL     1      -0.828   1.093  -0.153  0.00  0.00    +0.010 A 
ATOM     13  C   UNL     1      -1.297   1.478   1.057  0.00  0.00    +0.001 A 
ATOM     14  C   UNL     1      -0.967   0.802   2.242  0.00  0.00    +0.002 A 
ATOM     15  C   UNL     1      -0.158  -0.280   2.246  0.00  0.00    +0.026 A 
ATOM     16  C   UNL     1       0.395  -0.764   0.969  0.00  0.00    +0.043 A 
ATOM     17  N   UNL     1       1.185  -1.761   0.686  0.00  0.00    -0.377 N 
ATOM     18  H   UNL     1       1.556  -2.384   1.331  0.00  0.00    +0.160 HD
ENDBRANCH   6  10
ENDBRANCH   2   6
ENDBRANCH   1   4
BRANCH   1  19
ATOM     19  C   UNL     1       1.709  -0.842  -7.422  0.00  0.00    +0.059 C 
BRANCH  19  20
ATOM     20  C   UNL     1       2.556  -1.545  -8.451  0.00  0.00    +0.019 A 
ATOM     21  C   UNL     1       2.078  -2.647  -9.083  0.00  0.00    +0.022 A 
ATOM     22  C   UNL     1       2.924  -3.306 -10.076  0.00  0.00    +0.044 A 
ATOM     23  C   UNL     1       2.483  -4.449 -10.762  0.00  0.00    +0.129 A 
ATOM     24  C   UNL     1       3.309  -5.046 -11.694  0.00  0.00    +0.050 A 
ATOM     25  C   UNL     1       4.567  -4.524 -11.954  0.00  0.00    +0.051 A 
ATOM     26  C   UNL     1       5.017  -3.399 -11.287  0.00  0.00    +0.144 A 
ATOM     27  C   UNL     1       4.201  -2.779 -10.342  0.00  0.00    +0.095 A 
ATOM     28  N   UNL     1       4.629  -1.654  -9.665  0.00  0.00    -0.319 N 
ATOM     29  H   UNL     1       5.510  -1.291  -9.850  0.00  0.00    +0.169 HD
ATOM     30  C   UNL     1       3.841  -1.052  -8.758  0.00  0.00    +0.252 A 
ATOM     31  O   UNL     1       4.250  -0.058  -8.182  0.00  0.00    -0.268 OA
BRANCH  26  32
ATOM     32  O   UNL     1       6.254  -2.899 -11.552  0.00  0.00    -0.493 OA
ATOM     33  C   UNL     1       7.035  -3.586 -12.532  0.00  0.00    +0.277 C 
ENDBRANCH  26  32
BRANCH  23  34
ATOM     34  O   UNL     1       1.252  -4.965 -10.510  0.00  0.00    -0.494 OA
ATOM     35  C   UNL     1       0.873  -6.128 -11.247  0.00  0.00    +0.277 C 
ENDBRANCH  23  34
ENDBRANCH  19  20
ENDBRANCH   1  19
TORSDOF 7
