REMARK  Name = ZINC59118013
REMARK  11 active torsions:
REMARK  status: ('A' for Active; 'I' for Inactive)
REMARK    1  A    between atoms: C_1  and  C_2
REMARK    2  A    between atoms: C_5  and  S_8
REMARK    3  A    between atoms: S_8  and  N_11
REMARK    4  A    between atoms: N_11  and  C_12
REMARK    5  A    between atoms: C_12  and  C_14
REMARK    6  A    between atoms: C_12  and  C_18
REMARK    7  A    between atoms: C_14  and  C_15
REMARK    8  A    between atoms: C_15  and  C_16
REMARK    9  A    between atoms: C_15  and  C_17
REMARK   10  A    between atoms: N_20  and  C_21
REMARK   11  A    between atoms: C_21  and  C_22
REMARK                            x       y       z     vdW  Elec       q    Type
REMARK                         _______ _______ _______ _____ _____    ______ ____
ROOT
ATOM      1  C   UNL     1       4.055  -4.154   0.698  0.00  0.00    +0.232 C 
ATOM      2  O   UNL     1       4.176  -4.165  -0.509  0.00  0.00    -0.274 OA
ATOM      3  N   UNL     1       5.102  -3.816   1.477  0.00  0.00    -0.310 N 
ATOM      4  H   UNL     1       5.005  -3.807   2.442  0.00  0.00    +0.149 HD
ENDROOT
BRANCH   1   5
ATOM      5  C   UNL     1       2.734  -4.517   1.326  0.00  0.00    +0.162 C 
BRANCH   5   6
ATOM      6  N   UNL     1       1.767  -4.842   0.275  0.00  0.00    -0.178 NA
ATOM      7  H   UNL     1       1.753  -5.731  -0.114  0.00  0.00    +0.149 HD
BRANCH   6   8
ATOM      8  S   UNL     1       0.697  -3.693  -0.250  0.00  0.00    +0.059 S 
ATOM      9  O   UNL     1       0.087  -3.145   0.911  0.00  0.00    -0.153 OA
ATOM     10  O   UNL     1      -0.056  -4.287  -1.298  0.00  0.00    -0.153 OA
BRANCH   8  15
ATOM     11  C   UNL     1       3.929   0.745  -2.755  0.00  0.00    +0.044 C 
ATOM     12  C   UNL     1       3.122  -0.364  -2.129  0.00  0.00    -0.050 A 
ATOM     13  C   UNL     1       2.683  -1.421  -2.904  0.00  0.00    +0.005 A 
ATOM     14  C   UNL     1       1.943  -2.438  -2.330  0.00  0.00    +0.029 A 
ATOM     15  C   UNL     1       1.642  -2.397  -0.981  0.00  0.00    +0.105 A 
ATOM     16  C   UNL     1       2.081  -1.340  -0.207  0.00  0.00    +0.029 A 
ATOM     17  C   UNL     1       2.825  -0.325  -0.780  0.00  0.00    +0.005 A 
ENDBRANCH   8  15
ENDBRANCH   6   8
ENDBRANCH   5   6
BRANCH   5  18
ATOM     18  C   UNL     1       2.921  -5.730   2.240  0.00  0.00    +0.032 C 
BRANCH  18  19
ATOM     19  C   UNL     1       1.604  -6.037   2.955  0.00  0.00    -0.015 C 
ATOM     20  C   UNL     1       1.747  -7.335   3.752  0.00  0.00    +0.007 C 
ATOM     21  C   UNL     1       1.261  -4.889   3.907  0.00  0.00    +0.007 C 
ENDBRANCH  18  19
ENDBRANCH   5  18
ENDBRANCH   1   5
BRANCH   3  22
ATOM     22  C   UNL     1       6.386  -3.462   0.867  0.00  0.00    +0.141 C 
BRANCH  22  23
ATOM     23  C   UNL     1       7.381  -3.128   1.948  0.00  0.00    -0.014 A 
ATOM     24  C   UNL     1       7.502  -1.824   2.411  0.00  0.00    +0.010 A 
ATOM     25  C   UNL     1       8.428  -1.560   3.404  0.00  0.00    +0.042 A 
ATOM     26  C   UNL     1       9.201  -2.603   3.903  0.00  0.00    +0.099 A 
ATOM     27  N   UNL     1       9.056  -3.833   3.436  0.00  0.00    -0.349 N 
ATOM     28  C   UNL     1       8.177  -4.116   2.493  0.00  0.00    +0.089 A 
ATOM     29  N   UNL     1      10.135  -2.352   4.901  0.00  0.00    -0.317 N 
ATOM     30  C   UNL     1      10.174  -1.035   5.498  0.00  0.00    +0.106 C 
ATOM     31  C   UNL     1      11.137  -0.128   4.693  0.00  0.00    +0.019 C 
ATOM     32  C   UNL     1      12.531  -0.539   4.913  0.00  0.00    +0.002 C 
ATOM     33  C   UNL     1      12.854  -1.951   4.433  0.00  0.00    +0.002 C 
ATOM     34  C   UNL     1      12.489  -2.942   5.512  0.00  0.00    +0.019 C 
ATOM     35  C   UNL     1      11.043  -3.441   5.312  0.00  0.00    +0.106 C 
ATOM     36  H   UNL     1       9.606  -4.545   3.798  0.00  0.00    +0.167 HD
ENDBRANCH  22  23
ENDBRANCH   3  22
TORSDOF 8
