REMARK  Name = ZINC02109907
REMARK  11 active torsions:
REMARK  status: ('A' for Active; 'I' for Inactive)
REMARK    1  A    between atoms: C_1  and  C_2
REMARK    2  A    between atoms: C_6  and  C_12
REMARK    3  A    between atoms: C_7  and  C_11
REMARK    4  A    between atoms: C_13  and  O_15
REMARK    5  A    between atoms: O_15  and  C_16
REMARK    6  A    between atoms: C_16  and  C_17
REMARK    7  A    between atoms: N_19  and  C_20
REMARK    8  A    between atoms: C_20  and  C_21
REMARK    9  A    between atoms: N_23  and  C_24
REMARK   10  A    between atoms: C_24  and  C_25
REMARK   11  A    between atoms: C_30  and  O_38
REMARK                            x       y       z     vdW  Elec       q    Type
REMARK                         _______ _______ _______ _____ _____    ______ ____
ROOT
ATOM      1  C   UNL     1       0.442   6.547  -8.119  0.00  0.00    +0.251 C 
ATOM      2  O   UNL     1       1.655   6.566  -8.109  0.00  0.00    -0.272 OA
ATOM      3  N   UNL     1      -0.233   6.061  -7.059  0.00  0.00    -0.304 N 
ATOM      4  H   UNL     1      -1.203   6.045  -7.068  0.00  0.00    +0.149 HD
ENDROOT
BRANCH   1   5
ATOM      5  C   UNL     1      -0.309   7.066  -9.318  0.00  0.00    +0.324 C 
BRANCH   5   6
ATOM      6  O   UNL     1       0.621   7.524 -10.302  0.00  0.00    -0.482 OA
BRANCH   6  19
ATOM      7  C   UNL     1      -3.289   8.646 -12.992  0.00  0.00    +0.044 C 
ATOM      8  C   UNL     1      -1.794   8.594 -12.808  0.00  0.00    -0.043 A 
ATOM      9  C   UNL     1      -0.966   9.059 -13.811  0.00  0.00    +0.050 A 
ATOM     10  C   UNL     1       0.411   9.016 -13.652  0.00  0.00    +0.143 A 
ATOM     11  C   UNL     1       0.955   8.500 -12.462  0.00  0.00    +0.062 A 
ATOM     12  C   UNL     1       2.410   8.456 -12.306  0.00  0.00    -0.027 A 
ATOM     13  C   UNL     1       3.179   8.926 -13.323  0.00  0.00    +0.038 A 
ATOM     14  C   UNL     1       2.567   9.433 -14.487  0.00  0.00    +0.340 A 
ATOM     15  O   UNL     1       3.267   9.852 -15.391  0.00  0.00    -0.245 OA
ATOM     16  O   UNL     1       1.232   9.467 -14.625  0.00  0.00    -0.422 OA
ATOM     17  C   UNL     1       4.681   8.905 -13.206  0.00  0.00    +0.051 C 
ATOM     18  C   UNL     1       3.037   7.907 -11.050  0.00  0.00    +0.045 C 
ATOM     19  C   UNL     1       0.104   8.026 -11.451  0.00  0.00    +0.132 A 
ATOM     20  C   UNL     1      -1.266   8.081 -11.635  0.00  0.00    +0.050 A 
ENDBRANCH   6  19
ENDBRANCH   5   6
ENDBRANCH   1   5
BRANCH   3  21
ATOM     21  C   UNL     1       0.497   5.555  -5.894  0.00  0.00    +0.200 C 
BRANCH  21  22
ATOM     22  C   UNL     1      -0.483   5.073  -4.857  0.00  0.00    +0.231 C 
ATOM     23  O   UNL     1      -1.675   5.144  -5.070  0.00  0.00    -0.274 OA
ATOM     24  N   UNL     1      -0.036   4.562  -3.692  0.00  0.00    -0.305 N 
ATOM     25  H   UNL     1       0.917   4.505  -3.522  0.00  0.00    +0.149 HD
BRANCH  24  26
ATOM     26  C   UNL     1      -0.990   4.094  -2.684  0.00  0.00    +0.200 C 
BRANCH  26  27
ATOM     27  C   UNL     1      -0.238   3.574  -1.485  0.00  0.00    +0.233 C 
ATOM     28  O   UNL     1       0.974   3.593  -1.475  0.00  0.00    -0.274 OA
ATOM     29  N   UNL     1      -0.914   3.088  -0.425  0.00  0.00    -0.300 N 
ATOM     30  C   UNL     1      -2.383   3.057  -0.423  0.00  0.00    +0.110 C 
ATOM     31  C   UNL     1      -2.888   3.765   0.838  0.00  0.00    +0.054 C 
ATOM     32  C   UNL     1      -2.247   3.124   2.071  0.00  0.00    +0.072 C 
ATOM     33  C   UNL     1      -2.769   3.820   3.331  0.00  0.00    +0.035 C 
ATOM     34  C   UNL     1      -2.413   5.308   3.276  0.00  0.00    +0.003 C 
ATOM     35  C   UNL     1      -0.894   5.473   3.193  0.00  0.00    +0.001 C 
ATOM     36  C   UNL     1      -0.372   4.772   1.937  0.00  0.00    +0.008 C 
ATOM     37  C   UNL     1      -0.724   3.284   2.002  0.00  0.00    +0.038 C 
ATOM     38  C   UNL     1      -0.196   2.578   0.751  0.00  0.00    +0.114 C 
BRANCH  32  39
ATOM     39  O   UNL     1      -2.579   1.735   2.115  0.00  0.00    -0.388 OA
ATOM     40  H   UNL     1      -3.529   1.559   2.163  0.00  0.00    +0.210 HD
ENDBRANCH  32  39
ENDBRANCH  26  27
ENDBRANCH  24  26
ENDBRANCH  21  22
ENDBRANCH   3  21
TORSDOF 8
