REMARK  Name = ZINC39678222
REMARK  8 active torsions:
REMARK  status: ('A' for Active; 'I' for Inactive)
REMARK    1  A    between atoms: C_1  and  C_2
REMARK    2  A    between atoms: C_2  and  C_3
REMARK    3  A    between atoms: C_3  and  C_4
REMARK    4  A    between atoms: C_4  and  C_5
REMARK    5  A    between atoms: C_9  and  C_18
REMARK    6  A    between atoms: N_20  and  C_21
REMARK    7  A    between atoms: C_21  and  C_22
REMARK    8  A    between atoms: C_27  and  N_28
REMARK                            x       y       z     vdW  Elec       q    Type
REMARK                         _______ _______ _______ _____ _____    ______ ____
ROOT
ATOM      1  C   UNL     1       1.879  -2.690   3.208  0.00  0.00    +0.216 C 
ATOM      2  O   UNL     1       2.620  -2.017   3.892  0.00  0.00    -0.276 OA
ATOM      3  N   UNL     1       2.045  -4.027   3.149  0.00  0.00    -0.300 N 
ATOM      4  C   UNL     1       1.252  -5.007   2.371  0.00  0.00    +0.121 C 
ATOM      5  C   UNL     1       2.293  -6.018   1.840  0.00  0.00    +0.100 C 
ATOM      6  C   UNL     1       3.477  -5.910   2.815  0.00  0.00    -0.004 C 
ATOM      7  C   UNL     1       3.066  -4.847   3.844  0.00  0.00    +0.115 C 
ATOM      8  C   UNL     1       4.732  -5.460   2.074  0.00  0.00    -0.010 C 
ATOM      9  C   UNL     1       5.909  -5.415   3.053  0.00  0.00    -0.082 C 
ATOM     10  N   UNL     1       6.112  -6.746   3.638  0.00  0.00    +0.379 N 
ATOM     11  C   UNL     1       4.935  -7.132   4.426  0.00  0.00    -0.082 C 
ATOM     12  C   UNL     1       3.718  -7.249   3.505  0.00  0.00    -0.010 C 
ATOM     13  H   UNL     1       6.255  -7.418   2.899  0.00  0.00    -0.086 HD
ATOM     14  H   UNL     1       6.925  -6.729   4.236  0.00  0.00    -0.086 HD
ENDROOT
BRANCH   5  15
ATOM     15  C   UNL     1       1.724  -7.413   1.854  0.00  0.00    +0.218 C 
ATOM     16  O   UNL     1       1.067  -7.790   2.801  0.00  0.00    -0.275 OA
ATOM     17  N   UNL     1       1.945  -8.242   0.815  0.00  0.00    -0.311 N 
ATOM     18  H   UNL     1       2.471  -7.940   0.058  0.00  0.00    +0.149 HD
BRANCH  17  19
ATOM     19  C   UNL     1       1.392  -9.598   0.829  0.00  0.00    +0.141 C 
BRANCH  19  20
ATOM     20  C   UNL     1       1.782 -10.313  -0.440  0.00  0.00    -0.009 A 
ATOM     21  C   UNL     1       0.881 -10.411  -1.482  0.00  0.00    +0.007 A 
ATOM     22  C   UNL     1       1.238 -11.067  -2.646  0.00  0.00    +0.000 A 
ATOM     23  C   UNL     1       2.497 -11.626  -2.771  0.00  0.00    +0.002 A 
ATOM     24  C   UNL     1       3.402 -11.531  -1.732  0.00  0.00    +0.023 A 
ATOM     25  C   UNL     1       3.049 -10.868  -0.564  0.00  0.00    +0.034 A 
BRANCH  25  26
ATOM     26  N   UNL     1       3.964 -10.766   0.487  0.00  0.00    -0.330 N 
ATOM     27  C   UNL     1       4.028 -11.802   1.527  0.00  0.00    +0.105 C 
ATOM     28  C   UNL     1       5.472 -12.301   1.636  0.00  0.00    +0.019 C 
ATOM     29  C   UNL     1       6.403 -11.110   1.877  0.00  0.00    +0.003 C 
ATOM     30  C   UNL     1       6.314 -10.145   0.693  0.00  0.00    +0.019 C 
ATOM     31  C   UNL     1       4.884  -9.624   0.569  0.00  0.00    +0.105 C 
ENDBRANCH  25  26
ENDBRANCH  19  20
ENDBRANCH  17  19
ENDBRANCH   5  15
BRANCH   1  32
ATOM     32  C   UNL     1       0.774  -2.033   2.422  0.00  0.00    +0.096 C 
BRANCH  32  33
ATOM     33  C   UNL     1       0.806  -0.522   2.663  0.00  0.00    +0.009 C 
BRANCH  33  35
ATOM     34  C   UNL     1      -0.285   1.656   2.106  0.00  0.00    +0.004 C 
ATOM     35  C   UNL     1      -0.317   0.145   1.865  0.00  0.00    -0.003 C 
ENDBRANCH  33  35
ENDBRANCH  32  33
ENDBRANCH   1  32
TORSDOF 7
