REMARK  Name = ZINC39667105
REMARK  9 active torsions:
REMARK  status: ('A' for Active; 'I' for Inactive)
REMARK    1  A    between atoms: C_1  and  C_2
REMARK    2  A    between atoms: C_5  and  C_9
REMARK    3  A    between atoms: C_6  and  C_8
REMARK    4  A    between atoms: C_9  and  C_10
REMARK    5  A    between atoms: C_10  and  N_11
REMARK    6  A    between atoms: C_12  and  C_14
REMARK    7  A    between atoms: C_25  and  C_27
REMARK    8  A    between atoms: C_29  and  O_34
REMARK    9  A    between atoms: O_34  and  C_35
REMARK                            x       y       z     vdW  Elec       q    Type
REMARK                         _______ _______ _______ _____ _____    ______ ____
ROOT
ATOM      1  C   UNL     1      -2.837  -7.933   0.356  0.00  0.00    +0.100 C 
ATOM      2  C   UNL     1      -1.826  -8.581   1.328  0.00  0.00    +0.121 C 
ATOM      3  N   UNL     1      -2.653  -9.072   2.456  0.00  0.00    -0.296 N 
ATOM      4  C   UNL     1      -3.876  -9.607   1.810  0.00  0.00    +0.115 C 
ATOM      5  C   UNL     1      -4.180  -8.611   0.673  0.00  0.00    -0.004 C 
ATOM      6  C   UNL     1      -5.199  -7.575   1.139  0.00  0.00    -0.010 C 
ATOM      7  C   UNL     1      -6.542  -8.264   1.393  0.00  0.00    -0.082 C 
ATOM      8  N   UNL     1      -7.003  -8.913   0.160  0.00  0.00    +0.379 N 
ATOM      9  C   UNL     1      -6.064  -9.972  -0.231  0.00  0.00    -0.082 C 
ATOM     10  C   UNL     1      -4.700  -9.354  -0.554  0.00  0.00    -0.010 C 
ATOM     11  C   UNL     1      -2.360  -9.040   3.771  0.00  0.00    +0.248 C 
ATOM     12  O   UNL     1      -3.103  -9.573   4.572  0.00  0.00    -0.270 OA
ATOM     13  H   UNL     1      -7.916  -9.314   0.313  0.00  0.00    -0.086 HD
ATOM     14  H   UNL     1      -7.060  -8.227  -0.578  0.00  0.00    -0.086 HD
ENDROOT
BRANCH  11  15
ATOM     15  C   UNL     1      -1.135  -8.357   4.238  0.00  0.00    +0.054 A 
ATOM     16  C   UNL     1       0.029  -8.405   3.471  0.00  0.00    +0.059 A 
ATOM     17  C   UNL     1       1.173  -7.763   3.915  0.00  0.00    +0.121 A 
ATOM     18  C   UNL     1       1.159  -7.074   5.121  0.00  0.00    +0.047 A 
ATOM     19  C   UNL     1       0.008  -7.026   5.883  0.00  0.00    +0.019 A 
ATOM     20  C   UNL     1      -1.141  -7.658   5.447  0.00  0.00    +0.030 A 
ATOM     21 BR   UNL     1      -2.716  -7.583   6.490  0.00  0.00    -0.050 Br
BRANCH  17  22
ATOM     22  O   UNL     1       2.309  -7.807   3.170  0.00  0.00    -0.495 OA
ATOM     23  C   UNL     1       3.451  -7.122   3.689  0.00  0.00    +0.277 C 
ENDBRANCH  17  22
ENDBRANCH  11  15
BRANCH   1  25
ATOM     24  N   UNL     1      -3.277  -5.619  -0.398  0.00  0.00    -0.315 N 
ATOM     25  C   UNL     1      -2.927  -6.449   0.604  0.00  0.00    +0.218 C 
ATOM     26  O   UNL     1      -2.684  -6.003   1.705  0.00  0.00    -0.275 OA
ATOM     27  H   UNL     1      -3.472  -5.976  -1.279  0.00  0.00    +0.149 HD
BRANCH  24  28
ATOM     28  C   UNL     1      -3.364  -4.176  -0.157  0.00  0.00    +0.109 C 
BRANCH  28  29
ATOM     29  C   UNL     1      -3.778  -3.467  -1.448  0.00  0.00    +0.054 C 
BRANCH  29  34
ATOM     30  C   UNL     1      -4.122   2.222  -0.494  0.00  0.00    +0.044 C 
ATOM     31  C   UNL     1      -4.032   0.738  -0.743  0.00  0.00    -0.050 A 
ATOM     32  C   UNL     1      -5.167  -0.047  -0.655  0.00  0.00    +0.003 A 
ATOM     33  C   UNL     1      -5.085  -1.408  -0.884  0.00  0.00    +0.004 A 
ATOM     34  C   UNL     1      -3.868  -1.984  -1.200  0.00  0.00    -0.043 A 
ATOM     35  C   UNL     1      -2.734  -1.198  -1.288  0.00  0.00    -0.047 A 
ATOM     36  C   UNL     1      -2.817   0.163  -1.064  0.00  0.00    +0.007 A 
ATOM     37  C   UNL     1      -1.408  -1.826  -1.633  0.00  0.00    +0.044 C 
ENDBRANCH  29  34
ENDBRANCH  28  29
ENDBRANCH  24  28
ENDBRANCH   1  25
TORSDOF 6
