REMARK  Name = ZINC39631947
REMARK  11 active torsions:
REMARK  status: ('A' for Active; 'I' for Inactive)
REMARK    1  A    between atoms: C_1  and  C_2
REMARK    2  A    between atoms: C_2  and  C_4
REMARK    3  A    between atoms: C_2  and  N_11
REMARK    4  A    between atoms: C_4  and  C_5
REMARK    5  A    between atoms: C_5  and  C_6
REMARK    6  A    between atoms: C_6  and  C_7
REMARK    7  A    between atoms: C_7  and  C_8
REMARK    8  A    between atoms: C_7  and  C_9
REMARK    9  A    between atoms: C_7  and  O_10
REMARK   10  A    between atoms: C_12  and  C_14
REMARK   11  A    between atoms: C_25  and  C_27
REMARK                            x       y       z     vdW  Elec       q    Type
REMARK                         _______ _______ _______ _____ _____    ______ ____
ROOT
ATOM      1  C   UNL     1       0.836  -1.807  -3.890  0.00  0.00    +0.100 C 
ATOM      2  C   UNL     1       1.778  -0.608  -4.143  0.00  0.00    +0.121 C 
ATOM      3  N   UNL     1       1.677  -0.353  -5.599  0.00  0.00    -0.296 N 
ATOM      4  C   UNL     1       0.242  -0.558  -5.911  0.00  0.00    +0.115 C 
ATOM      5  C   UNL     1      -0.171  -1.770  -5.052  0.00  0.00    -0.004 C 
ATOM      6  C   UNL     1      -1.587  -1.580  -4.518  0.00  0.00    -0.010 C 
ATOM      7  C   UNL     1      -2.576  -1.605  -5.686  0.00  0.00    -0.082 C 
ATOM      8  N   UNL     1      -2.467  -2.886  -6.395  0.00  0.00    +0.379 N 
ATOM      9  C   UNL     1      -1.129  -3.019  -6.985  0.00  0.00    -0.082 C 
ATOM     10  C   UNL     1      -0.079  -3.054  -5.872  0.00  0.00    -0.010 C 
ATOM     11  C   UNL     1       2.666  -0.012  -6.449  0.00  0.00    +0.248 C 
ATOM     12  O   UNL     1       2.409   0.244  -7.610  0.00  0.00    -0.270 OA
ATOM     13  H   UNL     1      -2.623  -3.643  -5.746  0.00  0.00    -0.086 HD
ATOM     14  H   UNL     1      -3.161  -2.925  -7.126  0.00  0.00    -0.086 HD
ENDROOT
BRANCH  11  15
ATOM     15  C   UNL     1       4.053   0.050  -5.973  0.00  0.00    +0.052 A 
ATOM     16  C   UNL     1       4.348   0.518  -4.732  0.00  0.00    +0.059 A 
ATOM     17  S   UNL     1       6.017   0.416  -4.602  0.00  0.00    -0.096 S 
ATOM     18  C   UNL     1       6.415  -0.256  -6.192  0.00  0.00    +0.020 A 
ATOM     19  C   UNL     1       5.163  -0.397  -6.819  0.00  0.00    +0.001 A 
ATOM     20  C   UNL     1       5.150  -0.925  -8.124  0.00  0.00    +0.010 A 
ATOM     21  C   UNL     1       6.323  -1.285  -8.739  0.00  0.00    +0.001 A 
ATOM     22  C   UNL     1       7.545  -1.140  -8.098  0.00  0.00    +0.001 A 
ATOM     23  C   UNL     1       7.588  -0.615  -6.821  0.00  0.00    +0.015 A 
ENDBRANCH  11  15
BRANCH   1  25
ATOM     24  N   UNL     1      -0.247  -2.734  -1.869  0.00  0.00    -0.312 N 
ATOM     25  C   UNL     1       0.123  -1.646  -2.572  0.00  0.00    +0.218 C 
ATOM     26  O   UNL     1      -0.118  -0.536  -2.145  0.00  0.00    -0.275 OA
ATOM     27  H   UNL     1      -0.054  -3.621  -2.211  0.00  0.00    +0.149 HD
BRANCH  24  29
ATOM     28  C   UNL     1       0.089  -2.386   0.529  0.00  0.00    +0.028 C 
ATOM     29  C   UNL     1      -0.940  -2.577  -0.588  0.00  0.00    +0.070 C 
BRANCH  29  30
ATOM     30  C   UNL     1      -1.775  -3.828  -0.303  0.00  0.00    +0.022 C 
BRANCH  30  31
ATOM     31  C   UNL     1      -2.883  -3.950  -1.351  0.00  0.00    +0.005 C 
BRANCH  31  32
ATOM     32  C   UNL     1      -3.718  -5.200  -1.066  0.00  0.00    +0.034 C 
BRANCH  32  33
ATOM     33  C   UNL     1      -4.826  -5.322  -2.114  0.00  0.00    +0.061 C 
ATOM     34  C   UNL     1      -4.202  -5.432  -3.506  0.00  0.00    +0.041 C 
ATOM     35  C   UNL     1      -5.661  -6.572  -1.829  0.00  0.00    +0.041 C 
BRANCH  33  36
ATOM     36  O   UNL     1      -5.665  -4.167  -2.057  0.00  0.00    -0.389 OA
ATOM     37  H   UNL     1      -6.095  -4.034  -1.201  0.00  0.00    +0.210 HD
ENDBRANCH  33  36
ENDBRANCH  32  33
ENDBRANCH  31  32
ENDBRANCH  30  31
ENDBRANCH  29  30
ENDBRANCH  24  29
ENDBRANCH   1  25
TORSDOF 8
