REMARK  Name = ZINC40687236
REMARK  5 active torsions:
REMARK  status: ('A' for Active; 'I' for Inactive)
REMARK    1  A    between atoms: C_2  and  C_24
REMARK    2  A    between atoms: C_10  and  N_23
REMARK    3  A    between atoms: C_11  and  N_15
REMARK    4  A    between atoms: N_15  and  C_16
REMARK    5  A    between atoms: C_16  and  C_17
REMARK                            x       y       z     vdW  Elec       q    Type
REMARK                         _______ _______ _______ _____ _____    ______ ____
ROOT
ATOM      1  C   UNL     1      -0.017   1.380   0.010  0.00  0.00    +0.037 A 
ATOM      2  C   UNL     1       1.195   2.059   0.002  0.00  0.00    +0.074 A 
ATOM      3  C   UNL     1       2.373   1.340  -0.013  0.00  0.00    +0.125 A 
ATOM      4  N   UNL     1       2.361   0.020  -0.020  0.00  0.00    -0.238 NA
ATOM      5  C   UNL     1       1.228  -0.664  -0.013  0.00  0.00    +0.142 A 
ATOM      6  C   UNL     1       0.002  -0.004   0.002  0.00  0.00    +0.081 A 
ATOM      7 CL   UNL     1      -1.482  -0.904   0.012  0.00  0.00    -0.080 Cl
ATOM      8  N   UNL     1       1.262  -2.055  -0.021  0.00  0.00    -0.282 N 
ATOM      9  C   UNL     1       2.484  -2.721  -0.037  0.00  0.00    +0.150 A 
ATOM     10  C   UNL     1       2.530  -4.116  -0.051  0.00  0.00    +0.105 A 
ATOM     11  C   UNL     1       3.783  -4.734  -0.067  0.00  0.00    +0.145 A 
ATOM     12  N   UNL     1       4.876  -3.974  -0.067  0.00  0.00    -0.219 NA
ATOM     13  C   UNL     1       4.787  -2.660  -0.054  0.00  0.00    +0.225 A 
ATOM     14  N   UNL     1       3.626  -2.038  -0.044  0.00  0.00    -0.219 NA
ATOM     15  H   UNL     1       0.434  -2.561  -0.016  0.00  0.00    +0.155 HD
ENDROOT
BRANCH   2  16
ATOM     16  C   UNL     1       1.223   3.566   0.009  0.00  0.00    +0.419 C 
ATOM     17  F   UNL     1       1.244   4.025   1.330  0.00  0.00    -0.166 F 
ATOM     18  F   UNL     1       2.367   4.014  -0.659  0.00  0.00    -0.166 F 
ATOM     19  F   UNL     1       0.083   4.056  -0.637  0.00  0.00    -0.166 F 
ENDBRANCH   2  16
BRANCH  10  20
ATOM     20  N   UNL     1       1.351  -4.878  -0.050  0.00  0.00    -0.353 N 
ATOM     21  H   UNL     1       0.488  -4.435  -0.039  0.00  0.00    +0.143 HD
ATOM     22  H   UNL     1       1.399  -5.846  -0.060  0.00  0.00    +0.143 HD
ENDBRANCH  10  20
BRANCH  11  23
ATOM     23  N   UNL     1       3.886  -6.119  -0.081  0.00  0.00    -0.325 N 
ATOM     24  H   UNL     1       3.084  -6.665  -0.080  0.00  0.00    +0.148 HD
BRANCH  23  25
ATOM     25  C   UNL     1       5.206  -6.755  -0.097  0.00  0.00    +0.134 C 
BRANCH  25  26
ATOM     26  C   UNL     1       5.039  -8.276  -0.110  0.00  0.00    +0.135 C 
ATOM     27  C   UNL     1       6.424  -8.969  -0.092  0.00  0.00    +0.035 C 
ATOM     28  C   UNL     1       6.058 -10.345   0.528  0.00  0.00    +0.031 C 
ATOM     29  C   UNL     1       4.931  -9.970   1.515  0.00  0.00    +0.160 C 
ATOM     30  O   UNL     1       4.381  -8.716   1.089  0.00  0.00    -0.375 OA
ENDBRANCH  25  26
ENDBRANCH  23  25
ENDBRANCH  11  23
TORSDOF 5
