REMARK  Name = ZINC38660100
REMARK  15 active torsions:
REMARK  status: ('A' for Active; 'I' for Inactive)
REMARK    1  A    between atoms: C_1  and  C_2
REMARK    2  A    between atoms: C_2  and  C_3
REMARK    3  A    between atoms: C_3  and  C_4
REMARK    4  A    between atoms: C_4  and  O_5
REMARK    5  A    between atoms: O_5  and  C_6
REMARK    6  A    between atoms: C_9  and  C_14
REMARK    7  A    between atoms: C_11  and  O_12
REMARK    8  A    between atoms: O_12  and  C_13
REMARK    9  A    between atoms: C_19  and  O_28
REMARK   10  A    between atoms: C_23  and  N_27
REMARK   11  A    between atoms: C_24  and  C_25
REMARK   12  A    between atoms: O_28  and  C_29
REMARK   13  A    between atoms: C_29  and  C_31
REMARK   14  A    between atoms: C_32  and  C_33
REMARK   15  A    between atoms: C_36  and  C_39
REMARK                            x       y       z     vdW  Elec       q    Type
REMARK                         _______ _______ _______ _____ _____    ______ ____
ROOT
ATOM      1  C   UNL     1      -3.443  -8.112   0.029  0.00  0.00    +0.098 C 
ATOM      2  C   UNL     1      -2.787  -8.707   1.247  0.00  0.00    +0.008 A 
ATOM      3  C   UNL     1      -3.368  -8.525   2.489  0.00  0.00    +0.012 A 
ATOM      4  C   UNL     1      -2.781  -9.063   3.617  0.00  0.00    +0.047 A 
ATOM      5  C   UNL     1      -1.604  -9.790   3.507  0.00  0.00    +0.135 A 
ATOM      6  C   UNL     1      -1.020  -9.974   2.265  0.00  0.00    +0.093 A 
ATOM      7  C   UNL     1      -1.611  -9.432   1.131  0.00  0.00    +0.138 A 
ATOM      8  O   UNL     1      -1.027  -9.620  -0.078  0.00  0.00    -0.441 OA
ATOM      9  C   UNL     1      -1.745  -9.458  -1.202  0.00  0.00    +0.199 C 
ATOM     10  C   UNL     1      -2.897  -8.754  -1.216  0.00  0.00    +0.098 C 
ENDROOT
BRANCH   1  14
ATOM     11  C   UNL     1      -2.661  -3.909  -0.088  0.00  0.00    +0.162 A 
ATOM     12  C   UNL     1      -1.611  -4.813  -0.117  0.00  0.00    +0.050 A 
ATOM     13  C   UNL     1      -1.867  -6.171  -0.079  0.00  0.00    +0.008 A 
ATOM     14  C   UNL     1      -3.169  -6.631  -0.012  0.00  0.00    -0.031 A 
ATOM     15  C   UNL     1      -4.221  -5.734   0.017  0.00  0.00    +0.054 A 
ATOM     16  C   UNL     1      -3.971  -4.372  -0.015  0.00  0.00    +0.162 A 
BRANCH  16  17
ATOM     17  O   UNL     1      -5.005  -3.488   0.019  0.00  0.00    -0.491 OA
ATOM     18  C   UNL     1      -6.323  -4.035   0.094  0.00  0.00    +0.277 C 
ENDBRANCH  16  17
BRANCH  11  19
ATOM     19  O   UNL     1      -2.411  -2.573  -0.125  0.00  0.00    -0.488 OA
BRANCH  19  20
ATOM     20  C   UNL     1      -1.041  -2.171  -0.199  0.00  0.00    +0.229 C 
BRANCH  20  21
ATOM     21  C   UNL     1      -0.959  -0.644  -0.231  0.00  0.00    +0.041 C 
BRANCH  21  23
ATOM     22  C   UNL     1       0.589   1.314  -0.343  0.00  0.00    +0.004 C 
ATOM     23  C   UNL     1       0.507  -0.214  -0.311  0.00  0.00    -0.000 C 
ENDBRANCH  21  23
ENDBRANCH  20  21
ENDBRANCH  19  20
ENDBRANCH  11  19
ENDBRANCH   1  14
BRANCH   9  24
ATOM     24  N   UNL     1      -1.292 -10.023  -2.368  0.00  0.00    -0.328 N 
ATOM     25  H   UNL     1      -0.466 -10.530  -2.373  0.00  0.00    +0.145 HD
ATOM     26  H   UNL     1      -1.799  -9.914  -3.188  0.00  0.00    +0.145 HD
ENDBRANCH   9  24
BRANCH  10  27
ATOM     27  C   UNL     1      -3.615  -8.617  -2.448  0.00  0.00    +0.101 C 
ATOM     28  N   UNL     1      -4.184  -8.509  -3.425  0.00  0.00    -0.191 NA
ENDBRANCH  10  27
BRANCH   5  29
ATOM     29  O   UNL     1      -1.025 -10.320   4.617  0.00  0.00    -0.423 OA
BRANCH  29  30
ATOM     30  C   UNL     1      -1.654 -11.343   5.232  0.00  0.00    +0.337 C 
ATOM     31  O   UNL     1      -2.651 -11.832   4.735  0.00  0.00    -0.245 OA
BRANCH  30  32
ATOM     32  C   UNL     1      -1.138 -11.863   6.498  0.00  0.00    +0.092 C 
ATOM     33  C   UNL     1      -1.767 -12.885   7.114  0.00  0.00    +0.015 C 
BRANCH  33  34
ATOM     34  C   UNL     1      -1.247 -13.409   8.387  0.00  0.00    -0.025 A 
ATOM     35  C   UNL     1      -0.105 -12.846   8.965  0.00  0.00    +0.008 A 
ATOM     36  C   UNL     1       0.376 -13.342  10.158  0.00  0.00    +0.004 A 
ATOM     37  C   UNL     1      -0.269 -14.395  10.784  0.00  0.00    -0.050 A 
ATOM     38  C   UNL     1      -1.400 -14.958  10.218  0.00  0.00    +0.004 A 
ATOM     39  C   UNL     1      -1.897 -14.469   9.028  0.00  0.00    +0.008 A 
ATOM     40  C   UNL     1       0.263 -14.931  12.088  0.00  0.00    +0.044 C 
ENDBRANCH  33  34
ENDBRANCH  30  32
ENDBRANCH  29  30
ENDBRANCH   5  29
TORSDOF 12
