REMARK  Name = ZINC03853856
REMARK  10 active torsions:
REMARK  status: ('A' for Active; 'I' for Inactive)
REMARK    1  A    between atoms: C_1  and  C_2
REMARK    2  A    between atoms: C_2  and  O_3
REMARK    3  A    between atoms: O_3  and  C_4
REMARK    4  A    between atoms: C_7  and  N_10
REMARK    5  A    between atoms: C_14  and  C_32
REMARK    6  A    between atoms: C_20  and  S_21
REMARK    7  A    between atoms: S_21  and  C_22
REMARK    8  A    between atoms: C_22  and  C_23
REMARK    9  A    between atoms: N_25  and  C_26
REMARK   10  A    between atoms: C_26  and  C_27
REMARK                            x       y       z     vdW  Elec       q    Type
REMARK                         _______ _______ _______ _____ _____    ______ ____
ROOT
ATOM      1  N   UNL     1      -4.484   2.082   0.943  0.00  0.00    -0.275 N 
ATOM      2  C   UNL     1      -3.238   1.733   0.446  0.00  0.00    +0.124 A 
ATOM      3  N   UNL     1      -3.086   1.335  -0.794  0.00  0.00    -0.384 N 
ATOM      4  C   UNL     1      -2.095   1.832   1.363  0.00  0.00    +0.082 A 
ATOM      5  C   UNL     1      -0.718   1.572   1.248  0.00  0.00    +0.072 A 
ATOM      6  N   UNL     1      -0.154   1.828   2.397  0.00  0.00    -0.177 NA
ATOM      7  N   UNL     1      -1.127   2.258   3.308  0.00  0.00    -0.260 N 
ATOM      8  H   UNL     1      -0.838   2.522   4.336  0.00  0.00    +0.191 HD
ATOM      9  C   UNL     1      -2.332   2.260   2.676  0.00  0.00    +0.162 A 
ATOM     10  N   UNL     1      -3.579   2.574   3.057  0.00  0.00    -0.204 NA
ATOM     11  C   UNL     1      -4.603   2.493   2.242  0.00  0.00    +0.177 A 
ATOM     12  C   UNL     1      -0.013   1.086   0.008  0.00  0.00    +0.068 C 
ATOM     13  H   UNL     1      -2.087   1.063  -1.165  0.00  0.00    +0.157 HD
ATOM     14  H   UNL     1      -3.957   1.272  -1.463  0.00  0.00    +0.157 HD
ENDROOT
BRANCH   1  18
ATOM     15  C   UNL     1      -7.851   1.882  -1.511  0.00  0.00    +0.121 A 
ATOM     16  C   UNL     1      -7.416   3.108  -1.029  0.00  0.00    +0.047 A 
ATOM     17  C   UNL     1      -6.301   3.175  -0.217  0.00  0.00    +0.030 A 
ATOM     18  C   UNL     1      -5.616   2.015   0.118  0.00  0.00    +0.051 A 
ATOM     19  C   UNL     1      -6.049   0.788  -0.369  0.00  0.00    +0.030 A 
ATOM     20  C   UNL     1      -7.167   0.723  -1.177  0.00  0.00    +0.047 A 
BRANCH  15  21
ATOM     21  O   UNL     1      -8.948   1.817  -2.311  0.00  0.00    -0.492 OA
BRANCH  21  23
ATOM     22  C   UNL     1     -10.585   0.649  -3.651  0.00  0.00    +0.048 C 
ATOM     23  C   UNL     1      -9.340   0.522  -2.771  0.00  0.00    +0.225 C 
ENDBRANCH  21  23
ENDBRANCH  15  21
ENDBRANCH   1  18
BRANCH  11  24
ATOM     24  S   UNL     1      -6.199   2.931   2.846  0.00  0.00    -0.078 S 
BRANCH  24  25
ATOM     25  C   UNL     1      -5.779   3.377   4.549  0.00  0.00    +0.173 C 
BRANCH  25  26
ATOM     26  C   UNL     1      -7.028   3.798   5.280  0.00  0.00    +0.224 C 
ATOM     27  O   UNL     1      -8.097   3.796   4.707  0.00  0.00    -0.275 OA
ATOM     28  N   UNL     1      -6.957   4.177   6.572  0.00  0.00    -0.308 N 
ATOM     29  H   UNL     1      -5.988   4.178   7.092  0.00  0.00    +0.149 HD
BRANCH  28  30
ATOM     30  C   UNL     1      -8.171   4.586   7.283  0.00  0.00    +0.178 C 
BRANCH  30  31
ATOM     31  C   UNL     1      -7.821   4.958   8.701  0.00  0.00    +0.122 A 
ATOM     32  C   UNL     1      -7.473   6.184   9.130  0.00  0.00    +0.046 A 
ATOM     33  C   UNL     1      -7.233   6.080  10.519  0.00  0.00    +0.041 A 
ATOM     34  C   UNL     1      -7.448   4.796  10.856  0.00  0.00    +0.195 A 
ATOM     35  O   UNL     1      -7.810   4.122   9.752  0.00  0.00    -0.466 OA
ENDBRANCH  30  31
ENDBRANCH  28  30
ENDBRANCH  25  26
ENDBRANCH  24  25
ENDBRANCH  11  24
TORSDOF 8
