REMARK  Name = ZINC36051516
REMARK  11 active torsions:
REMARK  status: ('A' for Active; 'I' for Inactive)
REMARK    1  A    between atoms: C_1  and  C_2
REMARK    2  A    between atoms: C_5  and  N_8
REMARK    3  A    between atoms: C_10  and  C_28
REMARK    4  A    between atoms: C_14  and  C_16
REMARK    5  A    between atoms: C_16  and  N_17
REMARK    6  A    between atoms: N_17  and  C_18
REMARK    7  A    between atoms: C_18  and  C_19
REMARK    8  A    between atoms: N_23  and  C_24
REMARK    9  A    between atoms: C_24  and  C_25
REMARK   10  A    between atoms: C_24  and  C_26
REMARK   11  A    between atoms: C_24  and  C_27
REMARK                            x       y       z     vdW  Elec       q    Type
REMARK                         _______ _______ _______ _____ _____    ______ ____
ROOT
ATOM      1  N   UNL     1       0.059  -4.172  -0.021  0.00  0.00    -0.287 N 
ATOM      2  C   UNL     1      -0.777  -4.995  -0.736  0.00  0.00    +0.122 A 
ATOM      3  C   UNL     1      -0.412  -6.270  -0.451  0.00  0.00    +0.091 A 
ATOM      4  N   UNL     1       0.622  -6.224   0.417  0.00  0.00    -0.214 NA
ATOM      5  C   UNL     1       0.914  -4.974   0.676  0.00  0.00    +0.207 A 
ATOM      6  N   UNL     1       1.924  -4.537   1.522  0.00  0.00    -0.254 N 
ATOM      7  C   UNL     1       2.706  -5.434   2.156  0.00  0.00    +0.237 C 
ATOM      8  O   UNL     1       2.527  -6.621   1.988  0.00  0.00    -0.274 OA
ATOM      9  H   UNL     1       2.067  -3.588   1.657  0.00  0.00    +0.158 HD
ENDROOT
BRANCH   1  14
ATOM     10  C   UNL     1      -0.018   1.503   0.010  0.00  0.00    +0.044 C 
ATOM     11  C   UNL     1       0.002  -0.004   0.002  0.00  0.00    -0.050 A 
ATOM     12  C   UNL     1       0.006  -0.688  -1.200  0.00  0.00    +0.005 A 
ATOM     13  C   UNL     1       0.025  -2.068  -1.211  0.00  0.00    +0.026 A 
ATOM     14  C   UNL     1       0.040  -2.771  -0.013  0.00  0.00    +0.049 A 
ATOM     15  C   UNL     1       0.037  -2.082   1.192  0.00  0.00    +0.026 A 
ATOM     16  C   UNL     1       0.023  -0.700   1.196  0.00  0.00    +0.005 A 
ENDBRANCH   1  14
BRANCH   3  17
ATOM     17  C   UNL     1      -1.038  -7.499  -0.997  0.00  0.00    +0.002 A 
ATOM     18  C   UNL     1      -2.100  -7.403  -1.895  0.00  0.00    +0.011 A 
ATOM     19  C   UNL     1      -2.679  -8.550  -2.400  0.00  0.00    +0.020 A 
ATOM     20  C   UNL     1      -2.206  -9.793  -2.017  0.00  0.00    +0.041 A 
ATOM     21  C   UNL     1      -1.151  -9.894  -1.126  0.00  0.00    +0.020 A 
ATOM     22  C   UNL     1      -0.562  -8.753  -0.619  0.00  0.00    +0.011 A 
ATOM     23 CL   UNL     1      -2.939 -11.231  -2.656  0.00  0.00    -0.084 Cl
ENDBRANCH   3  17
BRANCH   7  24
ATOM     24  C   UNL     1       3.803  -4.960   3.075  0.00  0.00    +0.205 C 
BRANCH  24  25
ATOM     25  N   UNL     1       4.503  -6.117   3.637  0.00  0.00    -0.273 N 
ATOM     26  C   UNL     1       4.080  -6.665   4.793  0.00  0.00    +0.303 C 
ATOM     27  O   UNL     1       3.116  -6.198   5.370  0.00  0.00    -0.253 OA
ATOM     28  N   UNL     1       4.724  -7.730   5.311  0.00  0.00    -0.294 N 
ATOM     29  H   UNL     1       5.492  -8.102   4.850  0.00  0.00    +0.151 HD
BRANCH  28  30
ATOM     30  C   UNL     1       4.263  -8.325   6.567  0.00  0.00    +0.028 C 
ATOM     31  C   UNL     1       2.821  -8.809   6.405  0.00  0.00    +0.031 C 
ATOM     32  C   UNL     1       5.161  -9.510   6.930  0.00  0.00    +0.031 C 
ATOM     33  C   UNL     1       4.327  -7.278   7.681  0.00  0.00    +0.031 C 
ENDBRANCH  28  30
BRANCH  25  34
ATOM     34  C   UNL     1       5.664  -6.680   2.942  0.00  0.00    +0.136 C 
BRANCH  34  35
ATOM     35  C   UNL     1       6.918  -6.002   3.430  0.00  0.00    -0.016 C 
ATOM     36  C   UNL     1       7.907  -6.717   3.906  0.00  0.00    +0.005 C 
ENDBRANCH  34  35
ENDBRANCH  25  34
ENDBRANCH  24  25
ENDBRANCH   7  24
TORSDOF 7
