REMARK  Name = ZINC12804274
REMARK  8 active torsions:
REMARK  status: ('A' for Active; 'I' for Inactive)
REMARK    1  A    between atoms: C_1  and  C_2
REMARK    2  A    between atoms: C_5  and  C_8
REMARK    3  A    between atoms: C_8  and  C_10
REMARK    4  A    between atoms: C_8  and  N_15
REMARK    5  A    between atoms: N_15  and  C_16
REMARK    6  A    between atoms: C_16  and  C_17
REMARK    7  A    between atoms: N_19  and  N_20
REMARK    8  A    between atoms: C_26  and  C_29
REMARK                            x       y       z     vdW  Elec       q    Type
REMARK                         _______ _______ _______ _____ _____    ______ ____
ROOT
ATOM      1  C   UNL     1      -2.195  -6.620   1.838  0.00  0.00    +0.244 C 
ATOM      2  O   UNL     1      -2.411  -5.909   2.797  0.00  0.00    -0.273 OA
ATOM      3  N   UNL     1      -2.756  -7.843   1.765  0.00  0.00    -0.223 N 
ATOM      4  H   UNL     1      -2.583  -8.411   0.998  0.00  0.00    +0.174 HD
ENDROOT
BRANCH   3   5
ATOM      5  N   UNL     1      -3.588  -8.294   2.798  0.00  0.00    -0.137 N 
ATOM      6  C   UNL     1      -3.222  -9.205   3.724  0.00  0.00    +0.263 C 
ATOM      7  O   UNL     1      -2.152  -9.768   3.817  0.00  0.00    -0.271 OA
ATOM      8  C   UNL     1      -4.427  -9.377   4.620  0.00  0.00    +0.114 C 
ATOM      9  C   UNL     1      -4.088  -8.973   6.050  0.00  0.00    +0.035 C 
ATOM     10  C   UNL     1      -5.329  -9.125   6.934  0.00  0.00    +0.006 C 
ATOM     11  C   UNL     1      -5.806 -10.578   6.895  0.00  0.00    -0.014 C 
ATOM     12  C   UNL     1      -6.165 -10.961   5.458  0.00  0.00    +0.006 C 
ATOM     13  C   UNL     1      -4.927 -10.816   4.569  0.00  0.00    +0.035 C 
ATOM     14  C   UNL     1      -7.039 -10.734   7.787  0.00  0.00    +0.007 C 
ATOM     15  N   UNL     1      -5.427  -8.464   4.051  0.00  0.00    -0.284 N 
ATOM     16  C   UNL     1      -4.843  -7.871   2.992  0.00  0.00    +0.326 C 
ATOM     17  O   UNL     1      -5.395  -7.048   2.289  0.00  0.00    -0.251 OA
ATOM     18  H   UNL     1      -6.329  -8.315   4.376  0.00  0.00    +0.151 HD
ENDBRANCH   3   5
BRANCH   1  19
ATOM     19  C   UNL     1      -1.300  -6.134   0.727  0.00  0.00    +0.179 C 
BRANCH  19  20
ATOM     20  N   UNL     1      -0.819  -4.782   1.042  0.00  0.00    -0.297 NA
ATOM     21  H   UNL     1      -0.351  -4.763   1.936  0.00  0.00    +0.123 HD
BRANCH  20  22
ATOM     22  C   UNL     1       0.059  -4.275  -0.021  0.00  0.00    +0.122 C 
BRANCH  22  27
ATOM     23  C   UNL     1      -0.018   1.503   0.010  0.00  0.00    +0.044 C 
ATOM     24  C   UNL     1       0.002  -0.004   0.002  0.00  0.00    -0.050 A 
ATOM     25  C   UNL     1       0.006  -0.689  -1.199  0.00  0.00    +0.004 A 
ATOM     26  C   UNL     1       0.025  -2.071  -1.206  0.00  0.00    +0.006 A 
ATOM     27  C   UNL     1       0.040  -2.768  -0.013  0.00  0.00    -0.026 A 
ATOM     28  C   UNL     1       0.037  -2.084   1.188  0.00  0.00    +0.006 A 
ATOM     29  C   UNL     1       0.023  -0.702   1.195  0.00  0.00    +0.004 A 
ENDBRANCH  22  27
BRANCH  22  30
ATOM     30  C   UNL     1       1.466  -4.761   0.215  0.00  0.00    +0.011 A 
ATOM     31  C   UNL     1       2.382  -5.196  -0.685  0.00  0.00    +0.013 A 
ATOM     32  C   UNL     1       3.626  -5.597  -0.236  0.00  0.00    +0.008 A 
ATOM     33  C   UNL     1       3.893  -5.544   1.092  0.00  0.00    +0.045 A 
ATOM     34  S   UNL     1       2.363  -4.905   1.752  0.00  0.00    -0.100 S 
ENDBRANCH  22  30
ENDBRANCH  20  22
ENDBRANCH  19  20
ENDBRANCH   1  19
TORSDOF 6
