REMARK  Name = ZINC63514450
REMARK  10 active torsions:
REMARK  status: ('A' for Active; 'I' for Inactive)
REMARK    1  A    between atoms: C_1  and  C_2
REMARK    2  A    between atoms: C_2  and  N_3
REMARK    3  A    between atoms: C_5  and  C_13
REMARK    4  A    between atoms: C_14  and  C_15
REMARK    5  A    between atoms: C_14  and  N_29
REMARK    6  A    between atoms: N_17  and  C_18
REMARK    7  A    between atoms: C_18  and  C_19
REMARK    8  A    between atoms: C_19  and  C_20
REMARK    9  A    between atoms: C_30  and  C_32
REMARK   10  A    between atoms: C_35  and  C_38
REMARK                            x       y       z     vdW  Elec       q    Type
REMARK                         _______ _______ _______ _____ _____    ______ ____
ROOT
ATOM      1  C   UNL     1       1.060  -2.661  -3.924  0.00  0.00    +0.011 C 
ATOM      2  C   UNL     1       0.684  -2.858  -5.190  0.00  0.00    +0.093 C 
ENDROOT
BRANCH   1   5
ATOM      3  N   UNL     1       1.286  -0.540  -1.211  0.00  0.00    -0.329 N 
ATOM      4  C   UNL     1       0.491  -0.742  -2.426  0.00  0.00    +0.117 C 
ATOM      5  C   UNL     1       1.480  -1.288  -3.468  0.00  0.00    +0.063 C 
ATOM      6  C   UNL     1       2.803  -1.354  -2.739  0.00  0.00    -0.018 A 
ATOM      7  C   UNL     1       2.614  -0.901  -1.442  0.00  0.00    +0.034 A 
ATOM      8  C   UNL     1       3.705  -0.864  -0.571  0.00  0.00    +0.023 A 
ATOM      9  C   UNL     1       4.951  -1.269  -1.000  0.00  0.00    +0.002 A 
ATOM     10  C   UNL     1       5.130  -1.716  -2.297  0.00  0.00    +0.000 A 
ATOM     11  C   UNL     1       4.053  -1.764  -3.162  0.00  0.00    +0.006 A 
BRANCH   3  13
ATOM     12  C   UNL     1       0.875   1.499   0.076  0.00  0.00    +0.024 C 
ATOM     13  C   UNL     1       0.764  -0.027   0.058  0.00  0.00    +0.102 C 
ENDBRANCH   3  13
ENDBRANCH   1   5
BRANCH   2  14
ATOM     14  C   UNL     1       0.161  -4.173  -5.609  0.00  0.00    +0.258 C 
ATOM     15  O   UNL     1      -0.181  -4.353  -6.761  0.00  0.00    -0.269 OA
ATOM     16  N   UNL     1       0.063  -5.176  -4.713  0.00  0.00    -0.310 N 
ATOM     17  H   UNL     1       0.336  -5.032  -3.793  0.00  0.00    +0.149 HD
BRANCH  16  18
ATOM     18  C   UNL     1      -0.456  -6.481  -5.128  0.00  0.00    +0.109 C 
BRANCH  18  19
ATOM     19  C   UNL     1      -0.463  -7.432  -3.929  0.00  0.00    +0.052 C 
BRANCH  19  20
ATOM     20  C   UNL     1      -0.997  -8.775  -4.357  0.00  0.00    -0.040 C 
ATOM     21  C   UNL     1      -0.275  -9.852  -4.741  0.00  0.00    -0.001 A 
ATOM     22  C   UNL     1       1.168 -10.086  -4.873  0.00  0.00    +0.010 A 
ATOM     23  C   UNL     1       1.600 -11.298  -5.292  0.00  0.00    +0.001 A 
ATOM     24  C   UNL     1       0.707 -12.332  -5.603  0.00  0.00    +0.002 A 
ATOM     25  C   UNL     1      -0.632 -12.192  -5.507  0.00  0.00    +0.026 A 
ATOM     26  C   UNL     1      -1.198 -10.960  -5.076  0.00  0.00    +0.043 A 
ATOM     27  N   UNL     1      -2.441 -10.583  -4.905  0.00  0.00    -0.380 N 
ATOM     28  C   UNL     1      -2.448  -9.193  -4.436  0.00  0.00    +0.144 C 
ATOM     29  H   UNL     1      -3.226 -11.133  -5.058  0.00  0.00    +0.160 HD
ENDBRANCH  19  20
ENDBRANCH  18  19
ENDBRANCH  16  18
ENDBRANCH   2  14
BRANCH   2  30
ATOM     30  N   UNL     1       0.785  -1.817  -6.121  0.00  0.00    -0.278 N 
ATOM     31  C   UNL     1       1.522  -1.981  -7.238  0.00  0.00    +0.248 C 
ATOM     32  O   UNL     1       2.169  -2.998  -7.395  0.00  0.00    -0.270 OA
ATOM     33  H   UNL     1       0.326  -0.978  -5.962  0.00  0.00    +0.155 HD
BRANCH  31  34
ATOM     34  C   UNL     1       1.542  -0.925  -8.272  0.00  0.00    +0.037 A 
ATOM     35  C   UNL     1       0.804   0.246  -8.092  0.00  0.00    +0.013 A 
ATOM     36  C   UNL     1       0.828   1.228  -9.060  0.00  0.00    +0.004 A 
ATOM     37  C   UNL     1       1.580   1.054 -10.209  0.00  0.00    -0.050 A 
ATOM     38  C   UNL     1       2.313  -0.104 -10.393  0.00  0.00    +0.004 A 
ATOM     39  C   UNL     1       2.304  -1.092  -9.430  0.00  0.00    +0.013 A 
ATOM     40  C   UNL     1       1.600   2.131 -11.263  0.00  0.00    +0.044 C 
ENDBRANCH  31  34
ENDBRANCH   2  30
TORSDOF 8
