REMARK  Name = ZINC18668496
REMARK  11 active torsions:
REMARK  status: ('A' for Active; 'I' for Inactive)
REMARK    1  A    between atoms: C_1  and  C_2
REMARK    2  A    between atoms: C_2  and  C_4
REMARK    3  A    between atoms: C_2  and  S_14
REMARK    4  A    between atoms: N_9  and  C_10
REMARK    5  A    between atoms: C_10  and  C_11
REMARK    6  A    between atoms: C_10  and  C_12
REMARK    7  A    between atoms: C_10  and  C_13
REMARK    8  A    between atoms: S_14  and  C_15
REMARK    9  A    between atoms: C_18  and  C_21
REMARK   10  A    between atoms: N_19  and  C_20
REMARK   11  A    between atoms: C_21  and  C_22
REMARK                            x       y       z     vdW  Elec       q    Type
REMARK                         _______ _______ _______ _____ _____    ______ ____
ROOT
ATOM      1  S   UNL     1      -2.466   1.241   0.661  0.00  0.00    -0.074 S 
ENDROOT
BRANCH   1   2
ATOM      2  C   UNL     1      -3.898   2.265   0.708  0.00  0.00    +0.192 A 
ATOM      3  N   UNL     1      -3.985   3.506   0.286  0.00  0.00    -0.122 NA
ATOM      4  N   UNL     1      -5.177   3.948   0.473  0.00  0.00    -0.134 NA
ATOM      5  C   UNL     1      -5.916   3.025   1.021  0.00  0.00    +0.134 A 
ATOM      6  N   UNL     1      -5.129   1.918   1.185  0.00  0.00    -0.309 N 
ATOM      7  C   UNL     1      -5.525   0.629   1.757  0.00  0.00    +0.152 C 
BRANCH   5   8
ATOM      8  C   UNL     1      -7.369   3.152   1.398  0.00  0.00    +0.081 C 
BRANCH   8   9
ATOM      9  C   UNL     1      -7.481   3.543   2.873  0.00  0.00    +0.019 C 
ATOM     10  C   UNL     1      -8.960   3.535   3.293  0.00  0.00    +0.028 C 
ATOM     11  C   UNL     1      -9.074   4.229   4.680  0.00  0.00    +0.166 C 
ATOM     12  S   UNL     1      -7.899   5.630   4.453  0.00  0.00    -0.031 S 
ATOM     13  O   UNL     1      -8.616   6.764   3.985  0.00  0.00    -0.174 OA
ATOM     14  O   UNL     1      -7.088   5.746   5.615  0.00  0.00    -0.174 OA
ATOM     15  C   UNL     1      -6.882   4.955   3.078  0.00  0.00    +0.170 C 
ENDBRANCH   8   9
ENDBRANCH   5   8
ENDBRANCH   1   2
BRANCH   1  17
ATOM     16  C   UNL     1      -1.730   2.708  -1.523  0.00  0.00    +0.029 C 
ATOM     17  C   UNL     1      -1.285   2.385  -0.095  0.00  0.00    +0.137 C 
BRANCH  17  18
ATOM     18  C   UNL     1       0.081   1.750  -0.127  0.00  0.00    +0.233 C 
ATOM     19  O   UNL     1       0.188   0.542  -0.124  0.00  0.00    -0.274 OA
ATOM     20  N   UNL     1       1.184   2.524  -0.163  0.00  0.00    -0.239 N 
ATOM     21  C   UNL     1       2.406   1.955  -0.197  0.00  0.00    +0.306 C 
ATOM     22  O   UNL     1       2.513   0.744  -0.195  0.00  0.00    -0.252 OA
ATOM     23  N   UNL     1       3.508   2.729  -0.234  0.00  0.00    -0.294 N 
ATOM     24  H   UNL     1       1.099   3.490  -0.165  0.00  0.00    +0.159 HD
ATOM     25  H   UNL     1       3.423   3.695  -0.236  0.00  0.00    +0.151 HD
BRANCH  23  26
ATOM     26  C   UNL     1       4.836   2.111  -0.270  0.00  0.00    +0.028 C 
ATOM     27  C   UNL     1       4.957   1.236  -1.520  0.00  0.00    +0.031 C 
ATOM     28  C   UNL     1       5.906   3.204  -0.308  0.00  0.00    +0.031 C 
ATOM     29  C   UNL     1       5.032   1.248   0.978  0.00  0.00    +0.031 C 
ENDBRANCH  23  26
ENDBRANCH  17  18
ENDBRANCH   1  17
TORSDOF 6
