REMARK  Name = ZINC09307293
REMARK  9 active torsions:
REMARK  status: ('A' for Active; 'I' for Inactive)
REMARK    1  A    between atoms: C_1  and  C_2
REMARK    2  A    between atoms: C_2  and  C_3
REMARK    3  A    between atoms: C_3  and  C_4
REMARK    4  A    between atoms: C_11  and  N_35
REMARK    5  A    between atoms: C_12  and  C_31
REMARK    6  A    between atoms: N_20  and  C_23
REMARK    7  A    between atoms: C_23  and  C_24
REMARK    8  A    between atoms: C_31  and  O_33
REMARK    9  A    between atoms: O_33  and  C_34
REMARK                            x       y       z     vdW  Elec       q    Type
REMARK                         _______ _______ _______ _____ _____    ______ ____
ROOT
ATOM      1  C   UNL     1       0.605  -1.982   1.056  0.00  0.00    +0.071 A 
ATOM      2  C   UNL     1      -0.283  -2.834   1.698  0.00  0.00    +0.061 A 
ATOM      3  C   UNL     1       0.206  -4.108   1.600  0.00  0.00    +0.223 A 
ATOM      4  N   UNL     1       1.361  -4.048   0.918  0.00  0.00    -0.246 N 
ATOM      5  H   UNL     1       1.932  -4.799   0.695  0.00  0.00    +0.192 HD
ATOM      6  N   UNL     1       1.592  -2.705   0.581  0.00  0.00    -0.176 NA
ATOM      7  O   UNL     1      -0.434  -5.180   2.131  0.00  0.00    -0.424 OA
ATOM      8  C   UNL     1      -1.440  -4.949   2.997  0.00  0.00    +0.198 C 
ATOM      9  C   UNL     1      -2.017  -3.734   3.174  0.00  0.00    +0.117 C 
ATOM     10  C   UNL     1      -1.573  -2.521   2.402  0.00  0.00    +0.142 C 
ATOM     11  C   UNL     1      -2.625  -2.076   1.437  0.00  0.00    -0.002 A 
ATOM     12  C   UNL     1      -3.211  -2.712   0.364  0.00  0.00    +0.007 A 
ATOM     13  C   UNL     1      -4.176  -2.001  -0.341  0.00  0.00    +0.000 A 
ATOM     14  C   UNL     1      -4.529  -0.717   0.020  0.00  0.00    +0.002 A 
ATOM     15  C   UNL     1      -3.945  -0.070   1.098  0.00  0.00    +0.024 A 
ATOM     16  C   UNL     1      -2.975  -0.773   1.815  0.00  0.00    +0.041 A 
ATOM     17  N   UNL     1      -2.240  -0.379   2.919  0.00  0.00    -0.265 N 
ATOM     18  C   UNL     1      -1.392  -1.344   3.334  0.00  0.00    +0.240 C 
ATOM     19  O   UNL     1      -0.629  -1.279   4.275  0.00  0.00    -0.274 OA
ENDROOT
BRANCH   8  20
ATOM     20  N   UNL     1      -1.907  -6.001   3.739  0.00  0.00    -0.329 N 
ATOM     21  H   UNL     1      -1.572  -6.896   3.576  0.00  0.00    +0.145 HD
ATOM     22  H   UNL     1      -2.572  -5.850   4.429  0.00  0.00    +0.145 HD
ENDBRANCH   8  20
BRANCH   9  23
ATOM     23  C   UNL     1      -3.058  -3.604   4.104  0.00  0.00    +0.341 C 
ATOM     24  O   UNL     1      -4.214  -3.556   3.722  0.00  0.00    -0.245 OA
BRANCH  23  25
ATOM     25  O   UNL     1      -2.780  -3.533   5.424  0.00  0.00    -0.465 OA
ATOM     26  C   UNL     1      -3.889  -3.402   6.315  0.00  0.00    +0.280 C 
ENDBRANCH  23  25
ENDBRANCH   9  23
BRANCH   1  27
ATOM     27  C   UNL     1       0.459  -0.488   0.922  0.00  0.00    +0.057 C 
BRANCH  27  29
ATOM     28  C   UNL     1      -0.466   1.353  -0.491  0.00  0.00    +0.004 C 
ATOM     29  C   UNL     1      -0.317  -0.164  -0.356  0.00  0.00    +0.003 C 
ENDBRANCH  27  29
ENDBRANCH   1  27
BRANCH  17  30
ATOM     30  C   UNL     1      -2.369   0.931   3.563  0.00  0.00    +0.150 C 
BRANCH  30  31
ATOM     31  C   UNL     1      -3.421   0.861   4.639  0.00  0.00    -0.011 A 
ATOM     32  C   UNL     1      -4.697   1.330   4.390  0.00  0.00    +0.006 A 
ATOM     33  C   UNL     1      -5.662   1.266   5.377  0.00  0.00    +0.000 A 
ATOM     34  C   UNL     1      -5.352   0.733   6.615  0.00  0.00    +0.001 A 
ATOM     35  C   UNL     1      -4.077   0.264   6.865  0.00  0.00    +0.020 A 
ATOM     36  C   UNL     1      -3.111   0.323   5.875  0.00  0.00    +0.046 A 
ATOM     37 CL   UNL     1      -1.510  -0.272   6.187  0.00  0.00    -0.083 Cl
ENDBRANCH  30  31
ENDBRANCH  17  30
TORSDOF 7
