REMARK  Name = ZINC34766108
REMARK  12 active torsions:
REMARK  status: ('A' for Active; 'I' for Inactive)
REMARK    1  A    between atoms: C_1  and  C_2
REMARK    2  A    between atoms: C_2  and  N_3
REMARK    3  A    between atoms: C_4  and  C_35
REMARK    4  A    between atoms: C_5  and  C_28
REMARK    5  A    between atoms: C_6  and  C_11
REMARK    6  A    between atoms: C_14  and  N_17
REMARK    7  A    between atoms: C_18  and  C_20
REMARK    8  A    between atoms: C_28  and  O_30
REMARK    9  A    between atoms: O_30  and  C_31
REMARK   10  A    between atoms: C_31  and  C_32
REMARK   11  A    between atoms: C_32  and  C_33
REMARK   12  A    between atoms: C_32  and  C_34
REMARK                            x       y       z     vdW  Elec       q    Type
REMARK                         _______ _______ _______ _____ _____    ______ ____
ROOT
ATOM      1  N   UNL     1       0.775  -0.368  -1.673  0.00  0.00    -0.286 N 
ATOM      2  C   UNL     1      -0.085  -0.873  -2.605  0.00  0.00    +0.021 C 
ATOM      3  C   UNL     1       0.374  -1.472  -3.725  0.00  0.00    +0.078 C 
ATOM      4  C   UNL     1       1.875  -1.563  -3.912  0.00  0.00    +0.141 C 
ATOM      5  N   UNL     1       2.715  -0.987  -2.848  0.00  0.00    -0.315 N 
ATOM      6  C   UNL     1       2.108  -0.416  -1.789  0.00  0.00    +0.138 C 
ATOM      7  S   UNL     1       3.072   0.263  -0.548  0.00  0.00    -0.018 S 
ATOM      8  C   UNL     1      -1.571  -0.762  -2.380  0.00  0.00    +0.061 C 
ATOM      9  H   UNL     1       3.683  -1.014  -2.910  0.00  0.00    +0.149 HD
ENDROOT
BRANCH   4  10
ATOM     10  C   UNL     1       2.239  -3.018  -4.053  0.00  0.00    -0.022 A 
ATOM     11  C   UNL     1       2.396  -3.803  -2.925  0.00  0.00    +0.007 A 
ATOM     12  C   UNL     1       2.729  -5.137  -3.051  0.00  0.00    +0.023 A 
ATOM     13  C   UNL     1       2.907  -5.691  -4.312  0.00  0.00    +0.034 A 
ATOM     14  C   UNL     1       2.748  -4.901  -5.443  0.00  0.00    +0.023 A 
ATOM     15  C   UNL     1       2.410  -3.568  -5.310  0.00  0.00    +0.007 A 
BRANCH  13  16
ATOM     16  N   UNL     1       3.245  -7.042  -4.443  0.00  0.00    -0.282 N 
ATOM     17  C   UNL     1       2.762  -7.945  -3.567  0.00  0.00    +0.248 C 
ATOM     18  O   UNL     1       1.966  -7.601  -2.715  0.00  0.00    -0.270 OA
ATOM     19  H   UNL     1       3.828  -7.328  -5.164  0.00  0.00    +0.155 HD
BRANCH  17  20
ATOM     20  C   UNL     1       3.200  -9.354  -3.643  0.00  0.00    +0.038 A 
ATOM     21  C   UNL     1       4.118  -9.752  -4.617  0.00  0.00    +0.014 A 
ATOM     22  C   UNL     1       4.523 -11.068  -4.683  0.00  0.00    +0.022 A 
ATOM     23  C   UNL     1       4.021 -11.996  -3.786  0.00  0.00    +0.059 A 
ATOM     24  C   UNL     1       3.109 -11.609  -2.817  0.00  0.00    +0.060 A 
ATOM     25  C   UNL     1       2.701 -10.293  -2.738  0.00  0.00    +0.034 A 
ATOM     26 CL   UNL     1       2.484 -12.779  -1.697  0.00  0.00    -0.082 Cl
ATOM     27 CL   UNL     1       4.535 -13.652  -3.877  0.00  0.00    -0.082 Cl
ENDBRANCH  17  20
ENDBRANCH  13  16
ENDBRANCH   4  10
BRANCH   1  29
ATOM     28  C   UNL     1      -0.114  -0.803   0.564  0.00  0.00    +0.025 C 
ATOM     29  C   UNL     1       0.207   0.267  -0.481  0.00  0.00    +0.109 C 
ENDBRANCH   1  29
BRANCH   3  30
ATOM     30  C   UNL     1      -0.515  -1.996  -4.691  0.00  0.00    +0.339 C 
ATOM     31  O   UNL     1      -0.081  -2.605  -5.652  0.00  0.00    -0.245 OA
BRANCH  30  32
ATOM     32  O   UNL     1      -1.846  -1.823  -4.548  0.00  0.00    -0.461 OA
BRANCH  32  33
ATOM     33  C   UNL     1      -2.691  -2.473  -5.499  0.00  0.00    +0.235 C 
BRANCH  33  34
ATOM     34  C   UNL     1      -4.145  -2.063  -5.254  0.00  0.00    +0.020 C 
ATOM     35  C   UNL     1      -4.297  -0.558  -5.485  0.00  0.00    +0.010 C 
ATOM     36  C   UNL     1      -5.059  -2.822  -6.218  0.00  0.00    +0.010 C 
ENDBRANCH  33  34
ENDBRANCH  32  33
ENDBRANCH  30  32
ENDBRANCH   3  30
TORSDOF 8
