REMARK  Name = ZINC29134212
REMARK  12 active torsions:
REMARK  status: ('A' for Active; 'I' for Inactive)
REMARK    1  A    between atoms: C_1  and  C_2
REMARK    2  A    between atoms: C_2  and  C_3
REMARK    3  A    between atoms: C_3  and  C_4
REMARK    4  A    between atoms: C_4  and  N_5
REMARK    5  A    between atoms: C_11  and  C_24
REMARK    6  A    between atoms: N_14  and  C_15
REMARK    7  A    between atoms: C_15  and  C_16
REMARK    8  A    between atoms: C_20  and  C_22
REMARK    9  A    between atoms: C_24  and  N_25
REMARK   10  A    between atoms: N_25  and  C_26
REMARK   11  A    between atoms: C_28  and  C_33
REMARK   12  A    between atoms: C_30  and  C_32
REMARK                            x       y       z     vdW  Elec       q    Type
REMARK                         _______ _______ _______ _____ _____    ______ ____
ROOT
ATOM      1  N   UNL     1       1.747  -1.996  -2.631  0.00  0.00    -0.316 N 
ATOM      2  C   UNL     1       1.692  -3.374  -2.659  0.00  0.00    +0.175 A 
ATOM      3  N   UNL     1       1.258  -4.130  -1.681  0.00  0.00    -0.327 N 
ATOM      4  C   UNL     1       1.342  -5.437  -2.042  0.00  0.00    +0.066 A 
ATOM      5  C   UNL     1       1.023  -6.634  -1.396  0.00  0.00    +0.028 A 
ATOM      6  C   UNL     1       1.226  -7.834  -2.040  0.00  0.00    +0.007 A 
ATOM      7  C   UNL     1       1.747  -7.863  -3.326  0.00  0.00    -0.028 A 
ATOM      8  C   UNL     1       2.068  -6.690  -3.977  0.00  0.00    +0.033 A 
ATOM      9  C   UNL     1       1.869  -5.473  -3.344  0.00  0.00    +0.069 A 
ATOM     10  N   UNL     1       2.076  -4.153  -3.712  0.00  0.00    -0.307 N 
ATOM     11  H   UNL     1       2.104  -1.510  -3.390  0.00  0.00    +0.149 HD
ATOM     12  H   UNL     1       0.928  -3.805  -0.828  0.00  0.00    +0.169 HD
ENDROOT
BRANCH   1  13
ATOM     13  C   UNL     1       1.266  -1.268  -1.455  0.00  0.00    +0.104 C 
BRANCH  13  14
ATOM     14  C   UNL     1       1.438   0.236  -1.681  0.00  0.00    +0.018 C 
BRANCH  14  16
ATOM     15  C   UNL     1       1.107   2.501  -0.678  0.00  0.00    +0.004 C 
ATOM     16  C   UNL     1       0.935   0.997  -0.453  0.00  0.00    -0.002 C 
ENDBRANCH  14  16
ENDBRANCH  13  14
ENDBRANCH   1  13
BRANCH  10  17
ATOM     17  C   UNL     1       2.610  -3.682  -4.992  0.00  0.00    +0.182 C 
BRANCH  17  18
ATOM     18  C   UNL     1       1.470  -3.363  -5.925  0.00  0.00    +0.083 A 
ATOM     19  C   UNL     1       0.923  -4.369  -6.708  0.00  0.00    +0.200 A 
ATOM     20  C   UNL     1      -0.129  -4.060  -7.565  0.00  0.00    +0.054 A 
ATOM     21  C   UNL     1      -0.589  -2.753  -7.600  0.00  0.00    +0.024 A 
ATOM     22  C   UNL     1       0.009  -1.806  -6.789  0.00  0.00    +0.013 A 
ATOM     23  N   UNL     1       1.001  -2.133  -5.985  0.00  0.00    -0.358 N 
ATOM     24  C   UNL     1      -0.484  -0.383  -6.822  0.00  0.00    +0.063 C 
ATOM     25  O   UNL     1       1.407  -5.636  -6.640  0.00  0.00    -0.286 OA
ATOM     26  H   UNL     1       1.399  -1.448  -5.424  0.00  0.00    +0.165 HD
ENDBRANCH  17  18
ENDBRANCH  10  17
BRANCH   7  27
ATOM     27  C   UNL     1       1.963  -9.186  -4.015  0.00  0.00    +0.137 C 
BRANCH  27  28
ATOM     28  N   UNL     1       0.755  -9.553  -4.758  0.00  0.00    -0.340 N 
ATOM     29  H   UNL     1      -0.018  -8.967  -4.746  0.00  0.00    +0.146 HD
BRANCH  28  30
ATOM     30  C   UNL     1       0.716 -10.747  -5.482  0.00  0.00    +0.028 A 
ATOM     31  C   UNL     1       1.820 -11.589  -5.495  0.00  0.00    +0.026 A 
ATOM     32  C   UNL     1       1.778 -12.769  -6.211  0.00  0.00    -0.048 A 
ATOM     33  C   UNL     1       0.638 -13.112  -6.916  0.00  0.00    +0.006 A 
ATOM     34  C   UNL     1      -0.463 -12.275  -6.905  0.00  0.00    -0.048 A 
ATOM     35  C   UNL     1      -0.429 -11.096  -6.186  0.00  0.00    +0.026 A 
ATOM     36  C   UNL     1      -1.702 -12.652  -7.675  0.00  0.00    +0.044 C 
ATOM     37  C   UNL     1       2.975 -13.684  -6.226  0.00  0.00    +0.044 C 
ENDBRANCH  28  30
ENDBRANCH  27  28
ENDBRANCH   7  27
TORSDOF 8
