REMARK  Name = ZINC03633059
REMARK  11 active torsions:
REMARK  status: ('A' for Active; 'I' for Inactive)
REMARK    1  A    between atoms: C_1  and  C_2
REMARK    2  A    between atoms: C_2  and  C_3
REMARK    3  A    between atoms: C_3  and  N_4
REMARK    4  A    between atoms: N_4  and  C_5
REMARK    5  A    between atoms: N_4  and  C_8
REMARK    6  A    between atoms: C_5  and  C_6
REMARK    7  A    between atoms: C_6  and  C_7
REMARK    8  A    between atoms: C_8  and  C_9
REMARK    9  A    between atoms: C_10  and  C_20
REMARK   10  A    between atoms: N_22  and  N_23
REMARK   11  A    between atoms: C_24  and  C_25
REMARK                            x       y       z     vdW  Elec       q    Type
REMARK                         _______ _______ _______ _____ _____    ______ ____
ROOT
ATOM      1  C   UNL     1       1.124  -4.263   2.362  0.00  0.00    +0.063 A 
ATOM      2  C   UNL     1       0.065  -5.091   2.606  0.00  0.00    +0.170 A 
ATOM      3  N   UNL     1       0.431  -6.350   2.311  0.00  0.00    -0.124 NA
ATOM      4  N   UNL     1       1.651  -6.359   1.898  0.00  0.00    -0.058 NA
ATOM      5  N   UNL     1       2.131  -5.042   1.909  0.00  0.00    -0.194 N 
ATOM      6  C   UNL     1       3.409  -4.617   1.528  0.00  0.00    +0.240 A 
ATOM      7  C   UNL     1       4.488  -5.477   1.033  0.00  0.00    +0.206 A 
ATOM      8  N   UNL     1       5.526  -4.728   0.780  0.00  0.00    -0.032 NA
ATOM      9  O   UNL     1       5.181  -3.389   1.088  0.00  0.00    -0.239 OA
ATOM     10  N   UNL     1       3.840  -3.387   1.547  0.00  0.00    -0.027 NA
ATOM     11  N   UNL     1       4.417  -6.855   0.864  0.00  0.00    -0.337 N 
ATOM     12  H   UNL     1       3.599  -7.329   1.080  0.00  0.00    +0.144 HD
ATOM     13  H   UNL     1       5.186  -7.343   0.529  0.00  0.00    +0.144 HD
ENDROOT
BRANCH   2  14
ATOM     14  C   UNL     1      -1.257  -4.673   3.110  0.00  0.00    +0.285 C 
ATOM     15  O   UNL     1      -1.476  -3.500   3.344  0.00  0.00    -0.267 OA
ATOM     16  N   UNL     1      -2.222  -5.592   3.311  0.00  0.00    -0.202 N 
ATOM     17  H   UNL     1      -2.048  -6.528   3.124  0.00  0.00    +0.178 HD
BRANCH  16  18
ATOM     18  N   UNL     1      -3.478  -5.196   3.789  0.00  0.00    -0.187 NA
ATOM     19  C   UNL     1      -4.408  -6.080   3.983  0.00  0.00    +0.138 C 
BRANCH  19  20
ATOM     20  C   UNL     1      -5.729  -5.663   4.486  0.00  0.00    -0.005 A 
ATOM     21  C   UNL     1      -5.986  -4.315   4.751  0.00  0.00    +0.010 A 
ATOM     22  C   UNL     1      -7.224  -3.932   5.222  0.00  0.00    +0.016 A 
ATOM     23  C   UNL     1      -8.212  -4.879   5.433  0.00  0.00    +0.018 A 
ATOM     24  C   UNL     1      -7.964  -6.216   5.173  0.00  0.00    +0.016 A 
ATOM     25  C   UNL     1      -6.732  -6.612   4.695  0.00  0.00    +0.010 A 
ATOM     26 BR   UNL     1      -9.906  -4.344   6.079  0.00  0.00    -0.050 Br
ENDBRANCH  19  20
ENDBRANCH  16  18
ENDBRANCH   2  14
BRANCH   1  27
ATOM     27  C   UNL     1       1.160  -2.769   2.553  0.00  0.00    -0.020 C 
BRANCH  27  28
ATOM     28  N   UNL     1       0.899  -2.104   1.270  0.00  0.00    +0.383 N 
ATOM     29  H   UNL     1       1.559  -2.432   0.581  0.00  0.00    -0.081 HD
BRANCH  28  30
ATOM     30  C   UNL     1      -0.467  -2.414   0.826  0.00  0.00    -0.079 C 
BRANCH  30  32
ATOM     31  C   UNL     1      -2.118  -2.150  -1.030  0.00  0.00    +0.002 C 
ATOM     32  C   UNL     1      -0.696  -1.826  -0.568  0.00  0.00    -0.022 C 
ENDBRANCH  30  32
ENDBRANCH  28  30
BRANCH  28  33
ATOM     33  C   UNL     1       1.043  -0.651   1.432  0.00  0.00    -0.079 C 
BRANCH  33  34
ATOM     34  C   UNL     1       2.503  -0.315   1.741  0.00  0.00    -0.022 C 
ATOM     35  C   UNL     1       2.639   1.189   1.988  0.00  0.00    +0.002 C 
ENDBRANCH  33  34
ENDBRANCH  28  33
ENDBRANCH  27  28
ENDBRANCH   1  27
TORSDOF 9
