REMARK  Name = ZINC63140072
REMARK  10 active torsions:
REMARK  status: ('A' for Active; 'I' for Inactive)
REMARK    1  A    between atoms: C_1  and  O_2
REMARK    2  A    between atoms: O_2  and  C_3
REMARK    3  A    between atoms: C_6  and  C_11
REMARK    4  A    between atoms: C_8  and  O_9
REMARK    5  A    between atoms: O_9  and  C_10
REMARK    6  A    between atoms: C_11  and  C_12
REMARK    7  A    between atoms: C_12  and  N_13
REMARK    8  A    between atoms: C_33  and  C_35
REMARK    9  A    between atoms: C_35  and  C_36
REMARK   10  A    between atoms: C_36  and  C_37
REMARK                            x       y       z     vdW  Elec       q    Type
REMARK                         _______ _______ _______ _____ _____    ______ ____
ROOT
ATOM      1  N   UNL     1       4.982  -3.416  -4.982  0.00  0.00    -0.291 N 
ATOM      2  C   UNL     1       4.790  -4.844  -5.171  0.00  0.00    +0.203 C 
ATOM      3  C   UNL     1       5.485  -5.351  -6.391  0.00  0.00    +0.234 C 
ATOM      4  O   UNL     1       5.391  -6.533  -6.642  0.00  0.00    -0.274 OA
ATOM      5  N   UNL     1       6.203  -4.593  -7.228  0.00  0.00    -0.283 N 
ATOM      6  C   UNL     1       6.372  -3.155  -7.041  0.00  0.00    +0.167 C 
ATOM      7  C   UNL     1       5.683  -2.650  -5.817  0.00  0.00    +0.237 C 
ATOM      8  O   UNL     1       5.771  -1.467  -5.564  0.00  0.00    -0.274 OA
ATOM      9  C   UNL     1       5.846  -2.400  -8.275  0.00  0.00    +0.065 C 
ATOM     10  C   UNL     1       6.397  -3.115  -9.484  0.00  0.00    -0.034 C 
ATOM     11  C   UNL     1       7.055  -2.670 -10.547  0.00  0.00    -0.001 A 
ATOM     12  C   UNL     1       7.391  -1.307 -10.991  0.00  0.00    +0.010 A 
ATOM     13  C   UNL     1       8.110  -1.212 -12.142  0.00  0.00    +0.001 A 
ATOM     14  C   UNL     1       8.522  -2.322 -12.885  0.00  0.00    +0.002 A 
ATOM     15  C   UNL     1       8.249  -3.610 -12.556  0.00  0.00    +0.026 A 
ATOM     16  C   UNL     1       7.492  -3.838 -11.370  0.00  0.00    +0.043 A 
ATOM     17  N   UNL     1       7.074  -4.949 -10.840  0.00  0.00    -0.376 N 
ATOM     18  C   UNL     1       6.275  -4.625  -9.658  0.00  0.00    +0.127 C 
ATOM     19  C   UNL     1       6.844  -5.258  -8.385  0.00  0.00    +0.104 C 
ATOM     20  H   UNL     1       7.260  -5.842 -11.171  0.00  0.00    +0.160 HD
ENDROOT
BRANCH   1  21
ATOM     21  C   UNL     1       4.366  -2.783  -3.814  0.00  0.00    +0.113 C 
BRANCH  21  22
ATOM     22  C   UNL     1       2.958  -2.306  -4.175  0.00  0.00    +0.054 C 
BRANCH  22  26
ATOM     23  C   UNL     1       1.160  -0.452  -0.766  0.00  0.00    +0.161 A 
ATOM     24  C   UNL     1       1.899   0.305  -1.662  0.00  0.00    +0.049 A 
ATOM     25  C   UNL     1       2.478  -0.297  -2.763  0.00  0.00    +0.007 A 
ATOM     26  C   UNL     1       2.324  -1.655  -2.973  0.00  0.00    -0.042 A 
ATOM     27  C   UNL     1       1.588  -2.416  -2.084  0.00  0.00    +0.053 A 
ATOM     28  C   UNL     1       1.009  -1.820  -0.976  0.00  0.00    +0.162 A 
BRANCH  23  30
ATOM     29  C   UNL     1       0.786   1.546   0.468  0.00  0.00    +0.277 C 
ATOM     30  O   UNL     1       0.589   0.139   0.317  0.00  0.00    -0.491 OA
ENDBRANCH  23  30
BRANCH  28  31
ATOM     31  O   UNL     1       0.290  -2.568  -0.097  0.00  0.00    -0.491 OA
ATOM     32  C   UNL     1       0.177  -3.965  -0.375  0.00  0.00    +0.277 C 
ENDBRANCH  28  31
ENDBRANCH  22  26
ENDBRANCH  21  22
ENDBRANCH   1  21
BRANCH  19  33
ATOM     33  C   UNL     1       6.528  -6.754  -8.364  0.00  0.00    +0.029 C 
BRANCH  33  34
ATOM     34  C   UNL     1       7.235  -7.441  -9.534  0.00  0.00    +0.037 C 
BRANCH  34  35
ATOM     35  C   UNL     1       7.056  -8.934  -9.423  0.00  0.00    -0.047 A 
ATOM     36  C   UNL     1       7.973  -9.690  -8.718  0.00  0.00    +0.003 A 
ATOM     37  C   UNL     1       7.809 -11.059  -8.617  0.00  0.00    +0.000 A 
ATOM     38  C   UNL     1       6.726 -11.671  -9.219  0.00  0.00    +0.000 A 
ATOM     39  C   UNL     1       5.807 -10.915  -9.923  0.00  0.00    +0.000 A 
ATOM     40  C   UNL     1       5.970  -9.545 -10.021  0.00  0.00    +0.003 A 
ENDBRANCH  34  35
ENDBRANCH  33  34
ENDBRANCH  19  33
TORSDOF 8
