REMARK  Name = ZINC04017936
REMARK  4 active torsions:
REMARK  status: ('A' for Active; 'I' for Inactive)
REMARK    1  A    between atoms: C_2  and  C_10
REMARK    2  A    between atoms: C_3  and  O_9
REMARK    3  A    between atoms: C_5  and  O_8
REMARK    4  A    between atoms: N_11  and  N_12
REMARK                            x       y       z     vdW  Elec       q    Type
REMARK                         _______ _______ _______ _____ _____    ______ ____
ROOT
ATOM      1  N   UNL     1       2.272   5.623   0.010  0.00  0.00    -0.205 N 
ATOM      2  C   UNL     1       3.461   6.325   0.002  0.00  0.00    +0.241 A 
ATOM      3  N   UNL     1       4.619   5.673  -0.018  0.00  0.00    -0.180 NA
ATOM      4  C   UNL     1       5.763   6.349  -0.025  0.00  0.00    +0.224 A 
ATOM      5  N   UNL     1       5.749   7.679  -0.013  0.00  0.00    -0.181 NA
ATOM      6  C   UNL     1       4.591   8.332   0.007  0.00  0.00    +0.224 A 
ATOM      7  N   UNL     1       3.447   7.655   0.009  0.00  0.00    -0.180 NA
ATOM      8  N   UNL     1       4.577   9.712   0.020  0.00  0.00    -0.299 N 
ATOM      9  C   UNL     1       5.834  10.473   0.006  0.00  0.00    +0.108 C 
ATOM     10  C   UNL     1       5.790  11.475  -1.152  0.00  0.00    +0.019 C 
ATOM     11  C   UNL     1       4.533  12.339  -1.026  0.00  0.00    +0.003 C 
ATOM     12  C   UNL     1       3.291  11.450  -1.111  0.00  0.00    +0.019 C 
ATOM     13  C   UNL     1       3.306  10.447   0.042  0.00  0.00    +0.108 C 
ATOM     14  N   UNL     1       6.965   5.672  -0.045  0.00  0.00    -0.299 N 
ATOM     15  C   UNL     1       8.238   6.406  -0.047  0.00  0.00    +0.108 C 
ATOM     16  C   UNL     1       9.106   5.891   1.106  0.00  0.00    +0.019 C 
ATOM     17  C   UNL     1       9.256   4.373   0.988  0.00  0.00    +0.003 C 
ATOM     18  C   UNL     1       7.878   3.713   1.089  0.00  0.00    +0.019 C 
ATOM     19  C   UNL     1       6.997   4.203  -0.058  0.00  0.00    +0.108 C 
ATOM     20  H   UNL     1       1.427   6.099   0.020  0.00  0.00    +0.177 HD
ENDROOT
BRANCH   1  22
ATOM     21  C   UNL     1       1.169   3.562   0.009  0.00  0.00    +0.142 C 
ATOM     22  N   UNL     1       2.287   4.222   0.002  0.00  0.00    -0.187 NA
BRANCH  21  24
ATOM     23  C   UNL     1      -0.017   1.374   0.010  0.00  0.00    +0.032 A 
ATOM     24  C   UNL     1       1.185   2.088   0.002  0.00  0.00    +0.037 A 
ATOM     25  C   UNL     1       2.404   1.397  -0.013  0.00  0.00    +0.129 A 
ATOM     26  C   UNL     1       2.410   0.013  -0.021  0.00  0.00    +0.092 A 
ATOM     27  C   UNL     1       1.213  -0.687  -0.013  0.00  0.00    +0.134 A 
ATOM     28  C   UNL     1       0.002  -0.004   0.002  0.00  0.00    +0.060 A 
ATOM     29 BR   UNL     1      -1.624  -0.969   0.013  0.00  0.00    -0.047 Br
BRANCH  27  30
ATOM     30  O   UNL     1       1.224  -2.046  -0.021  0.00  0.00    -0.506 OA
ATOM     31  H   UNL     1       1.235  -2.444   0.860  0.00  0.00    +0.292 HD
ENDBRANCH  27  30
BRANCH  25  32
ATOM     32  O   UNL     1       3.576   2.084  -0.021  0.00  0.00    -0.506 OA
ATOM     33  H   UNL     1       3.924   2.278   0.860  0.00  0.00    +0.292 HD
ENDBRANCH  25  32
ENDBRANCH  21  24
ENDBRANCH   1  22
TORSDOF 4
