REMARK  Name = ZINC44877858
REMARK  10 active torsions:
REMARK  status: ('A' for Active; 'I' for Inactive)
REMARK    1  A    between atoms: C_1  and  C_2
REMARK    2  A    between atoms: N_7  and  C_9
REMARK    3  A    between atoms: C_9  and  C_10
REMARK    4  A    between atoms: C_13  and  C_16
REMARK    5  A    between atoms: C_16  and  N_17
REMARK    6  A    between atoms: C_18  and  C_20
REMARK    7  A    between atoms: C_20  and  N_21
REMARK    8  A    between atoms: N_21  and  C_22
REMARK    9  A    between atoms: N_21  and  S_29
REMARK   10  A    between atoms: S_29  and  C_32
REMARK                            x       y       z     vdW  Elec       q    Type
REMARK                         _______ _______ _______ _____ _____    ______ ____
ROOT
ATOM      1  N   UNL     1       0.859  -9.469   2.372  0.00  0.00    -0.310 N 
ATOM      2  C   UNL     1       0.416 -10.629   1.849  0.00  0.00    +0.232 C 
ATOM      3  O   UNL     1       0.563 -11.665   2.462  0.00  0.00    -0.274 OA
ATOM      4  H   UNL     1       0.741  -8.640   1.882  0.00  0.00    +0.149 HD
ENDROOT
BRANCH   1   5
ATOM      5  C   UNL     1       1.518  -9.459   3.680  0.00  0.00    +0.139 C 
BRANCH   5   9
ATOM      6  C   UNL     1       2.641  -5.460   4.681  0.00  0.00    -0.064 A 
ATOM      7  C   UNL     1       1.399  -5.943   5.051  0.00  0.00    +0.002 A 
ATOM      8  C   UNL     1       1.036  -7.236   4.727  0.00  0.00    +0.005 A 
ATOM      9  C   UNL     1       1.914  -8.048   4.033  0.00  0.00    -0.030 A 
ATOM     10  C   UNL     1       3.155  -7.565   3.662  0.00  0.00    +0.005 A 
ATOM     11  C   UNL     1       3.517  -6.270   3.982  0.00  0.00    +0.002 A 
BRANCH   6  12
ATOM     12  C   UNL     1       3.037  -4.050   5.034  0.00  0.00    -0.043 C 
BRANCH  12  18
ATOM     13  C   UNL     1       2.686   0.643   3.686  0.00  0.00    +0.005 C 
ATOM     14  C   UNL     1       2.401  -0.801   3.267  0.00  0.00    -0.031 C 
ATOM     15  C   UNL     1       3.130  -1.106   1.955  0.00  0.00    -0.001 C 
ATOM     16  C   UNL     1       2.903  -2.574   1.586  0.00  0.00    -0.018 C 
ATOM     17  C   UNL     1       3.381  -3.464   2.736  0.00  0.00    -0.078 C 
ATOM     18  N   UNL     1       2.629  -3.142   3.954  0.00  0.00    +0.383 N 
ATOM     19  C   UNL     1       2.898  -1.756   4.355  0.00  0.00    -0.075 C 
ATOM     20  H   UNL     1       1.642  -3.254   3.778  0.00  0.00    -0.081 HD
ENDBRANCH  12  18
ENDBRANCH   6  12
ENDBRANCH   5   9
ENDBRANCH   1   5
BRANCH   2  21
ATOM     21  C   UNL     1      -0.262 -10.639   0.503  0.00  0.00    +0.226 C 
BRANCH  21  22
ATOM     22  N   UNL     1      -0.647 -12.011   0.161  0.00  0.00    -0.199 N 
BRANCH  22  23
ATOM     23  C   UNL     1      -1.857 -12.534   0.625  0.00  0.00    +0.051 A 
ATOM     24  C   UNL     1      -1.864 -13.681   1.408  0.00  0.00    +0.026 A 
ATOM     25  C   UNL     1      -3.062 -14.195   1.865  0.00  0.00    +0.017 A 
ATOM     26  C   UNL     1      -4.253 -13.569   1.543  0.00  0.00    +0.018 A 
ATOM     27  C   UNL     1      -4.248 -12.426   0.763  0.00  0.00    +0.017 A 
ATOM     28  C   UNL     1      -3.053 -11.904   0.309  0.00  0.00    +0.026 A 
ATOM     29 BR   UNL     1      -5.890 -14.277   2.170  0.00  0.00    -0.050 Br
ENDBRANCH  22  23
BRANCH  22  30
ATOM     30  S   UNL     1       0.352 -12.942  -0.776  0.00  0.00    +0.043 S 
ATOM     31  O   UNL     1      -0.488 -13.960  -1.302  0.00  0.00    -0.155 OA
ATOM     32  O   UNL     1       1.001 -12.020  -1.641  0.00  0.00    -0.155 OA
ATOM     33  C   UNL     1       1.548 -13.657   0.385  0.00  0.00    +0.218 C 
ENDBRANCH  22  30
ENDBRANCH  21  22
ENDBRANCH   2  21
TORSDOF 8
