REMARK  Name = ZINC22079207
REMARK  4 active torsions:
REMARK  status: ('A' for Active; 'I' for Inactive)
REMARK    1  A    between atoms: C_1  and  O_2
REMARK    2  A    between atoms: O_2  and  C_3
REMARK    3  A    between atoms: C_8  and  N_9
REMARK    4  A    between atoms: C_11  and  C_12
REMARK                            x       y       z     vdW  Elec       q    Type
REMARK                         _______ _______ _______ _____ _____    ______ ____
ROOT
ATOM      1  N   UNL     1      -1.049  -1.003   1.048  0.00  0.00    -0.220 N 
ATOM      2  C   UNL     1      -0.466  -1.393   2.208  0.00  0.00    +0.103 C 
ATOM      3  C   UNL     1      -0.127  -2.759   2.372  0.00  0.00    +0.053 C 
ATOM      4  N   UNL     1      -0.196  -0.535   3.208  0.00  0.00    -0.302 N 
ATOM      5  C   UNL     1      -0.509   0.807   3.092  0.00  0.00    +0.044 A 
ATOM      6  C   UNL     1      -0.237   1.706   4.114  0.00  0.00    +0.024 A 
ATOM      7  C   UNL     1      -0.564   3.037   3.961  0.00  0.00    +0.002 A 
ATOM      8  C   UNL     1      -1.164   3.489   2.794  0.00  0.00    +0.001 A 
ATOM      9  C   UNL     1      -1.442   2.611   1.767  0.00  0.00    +0.015 A 
ATOM     10  C   UNL     1      -1.117   1.264   1.908  0.00  0.00    +0.059 A 
ATOM     11  C   UNL     1      -1.387   0.288   0.838  0.00  0.00    +0.258 C 
ATOM     12  O   UNL     1      -1.906   0.635  -0.206  0.00  0.00    -0.269 OA
ATOM     13  H   UNL     1       0.223  -0.862   4.019  0.00  0.00    +0.153 HD
ENDROOT
BRANCH   3  14
ATOM     14  C   UNL     1       0.365  -3.199   3.562  0.00  0.00    +0.049 C 
ATOM     15  C   UNL     1      -0.198  -2.989   4.911  0.00  0.00    +0.009 A 
ATOM     16  C   UNL     1      -1.324  -2.329   5.390  0.00  0.00    +0.025 A 
ATOM     17  C   UNL     1      -1.583  -2.313   6.748  0.00  0.00    +0.019 A 
ATOM     18  C   UNL     1      -0.725  -2.951   7.629  0.00  0.00    +0.017 A 
ATOM     19  C   UNL     1       0.398  -3.611   7.170  0.00  0.00    +0.025 A 
ATOM     20  C   UNL     1       0.682  -3.642   5.803  0.00  0.00    +0.042 A 
ATOM     21  N   UNL     1       1.701  -4.211   5.103  0.00  0.00    -0.281 N 
ATOM     22  C   UNL     1       1.596  -4.012   3.804  0.00  0.00    +0.249 C 
ATOM     23  O   UNL     1       2.370  -4.416   2.950  0.00  0.00    -0.270 OA
ATOM     24 BR   UNL     1      -3.113  -1.416   7.405  0.00  0.00    -0.050 Br
ATOM     25  H   UNL     1       2.423  -4.712   5.514  0.00  0.00    +0.155 HD
ENDBRANCH   3  14
BRANCH   1  31
ATOM     26  C   UNL     1      -2.516  -2.634   0.024  0.00  0.00    +0.142 A 
ATOM     27  C   UNL     1      -2.760  -3.568  -0.970  0.00  0.00    +0.047 A 
ATOM     28  C   UNL     1      -1.799  -3.825  -1.929  0.00  0.00    +0.004 A 
ATOM     29  C   UNL     1      -0.591  -3.152  -1.900  0.00  0.00    +0.002 A 
ATOM     30  C   UNL     1      -0.338  -2.220  -0.913  0.00  0.00    +0.027 A 
ATOM     31  C   UNL     1      -1.300  -1.951   0.051  0.00  0.00    +0.084 A 
BRANCH  26  33
ATOM     32  C   UNL     1      -4.681  -3.116   0.879  0.00  0.00    +0.277 C 
ATOM     33  O   UNL     1      -3.460  -2.379   0.968  0.00  0.00    -0.493 OA
ENDBRANCH  26  33
ENDBRANCH   1  31
TORSDOF 3
