REMARK  Name = ZINC11898693
REMARK  9 active torsions:
REMARK  status: ('A' for Active; 'I' for Inactive)
REMARK    1  A    between atoms: C_1  and  C_2
REMARK    2  A    between atoms: N_4  and  C_5
REMARK    3  A    between atoms: C_8  and  N_11
REMARK    4  A    between atoms: C_12  and  C_14
REMARK    5  A    between atoms: N_16  and  C_17
REMARK    6  A    between atoms: C_17  and  C_18
REMARK    7  A    between atoms: C_18  and  C_20
REMARK    8  A    between atoms: C_18  and  N_57
REMARK    9  A    between atoms: N_24  and  C_25
REMARK                            x       y       z     vdW  Elec       q    Type
REMARK                         _______ _______ _______ _____ _____    ______ ____
ROOT
ATOM      1  C   UNL     1       0.390   9.336  -1.754  0.00  0.00    +0.299 C 
ATOM      2  O   UNL     1      -0.589   9.558  -1.073  0.00  0.00    -0.265 OA
ATOM      3  N   UNL     1       1.310  10.302  -1.946  0.00  0.00    -0.309 N 
ATOM      4  H   UNL     1       2.093  10.125  -2.491  0.00  0.00    +0.149 HD
ENDROOT
BRANCH   1   6
ATOM      5  N   UNL     1      -0.345   7.027  -2.189  0.00  0.00    -0.278 N 
ATOM      6  C   UNL     1       0.576   7.994  -2.381  0.00  0.00    +0.303 C 
ATOM      7  O   UNL     1       1.555   7.772  -3.063  0.00  0.00    -0.265 OA
ATOM      8  H   UNL     1      -1.092   7.182  -1.591  0.00  0.00    +0.155 HD
BRANCH   5  12
ATOM      9  C   UNL     1       0.022   3.377  -4.166  0.00  0.00    +0.033 A 
ATOM     10  C   UNL     1      -1.235   3.924  -3.946  0.00  0.00    +0.025 A 
ATOM     11  C   UNL     1      -1.357   5.131  -3.287  0.00  0.00    +0.025 A 
ATOM     12  C   UNL     1      -0.222   5.803  -2.853  0.00  0.00    +0.034 A 
ATOM     13  C   UNL     1       1.037   5.258  -3.078  0.00  0.00    +0.025 A 
ATOM     14  C   UNL     1       1.158   4.049  -3.732  0.00  0.00    +0.025 A 
BRANCH   9  18
ATOM     15  C   UNL     1      -0.737  -0.062  -5.498  0.00  0.00    +0.109 C 
ATOM     16  C   UNL     1      -0.816   1.214  -4.701  0.00  0.00    +0.214 C 
ATOM     17  O   UNL     1      -1.741   1.397  -3.939  0.00  0.00    -0.276 OA
ATOM     18  N   UNL     1       0.146   2.150  -4.830  0.00  0.00    -0.286 N 
ATOM     19  H   UNL     1       0.923   1.974  -5.383  0.00  0.00    +0.155 HD
ENDBRANCH   9  18
ENDBRANCH   5  12
ENDBRANCH   1   6
BRANCH   3  20
ATOM     20  C   UNL     1       1.129  11.619  -1.331  0.00  0.00    +0.095 C 
BRANCH  20  21
ATOM     21  C   UNL     1       2.384  12.465  -1.556  0.00  0.00    -0.003 C 
BRANCH  21  27
ATOM     22  C   UNL     1       3.615  10.453  -1.003  0.00  0.00    -0.049 C 
ATOM     23  C   UNL     1       4.822   9.919  -0.226  0.00  0.00    +0.141 C 
ATOM     24  O   UNL     1       4.673  10.245   1.158  0.00  0.00    -0.383 OA
ATOM     25  C   UNL     1       4.556  11.648   1.411  0.00  0.00    +0.141 C 
ATOM     26  C   UNL     1       3.347  12.199   0.651  0.00  0.00    -0.049 C 
ATOM     27  N   UNL     1       3.522  11.913  -0.789  0.00  0.00    +0.389 N 
ATOM     28  H   UNL     1       4.389  12.355  -1.115  0.00  0.00    -0.081 HD
ENDBRANCH  21  27
BRANCH  21  29
ATOM     29  C   UNL     1       2.738  12.460  -3.021  0.00  0.00    +0.006 A 
ATOM     30  C   UNL     1       3.876  11.976  -3.558  0.00  0.00    +0.021 A 
ATOM     31  C   UNL     1       3.799  12.165  -4.952  0.00  0.00    +0.019 A 
ATOM     32  C   UNL     1       2.620  12.766  -5.213  0.00  0.00    +0.085 A 
ATOM     33  N   UNL     1       1.964  12.949  -4.032  0.00  0.00    -0.355 N 
ATOM     34  C   UNL     1       0.646  13.569  -3.874  0.00  0.00    +0.148 C 
ENDBRANCH  21  29
ENDBRANCH  20  21
ENDBRANCH   3  20
TORSDOF 7
