REMARK  Name = ZINC39660366
REMARK  11 active torsions:
REMARK  status: ('A' for Active; 'I' for Inactive)
REMARK    1  A    between atoms: C_1  and  C_2
REMARK    2  A    between atoms: C_2  and  C_3
REMARK    3  A    between atoms: C_3  and  C_4
REMARK    4  A    between atoms: C_4  and  C_5
REMARK    5  A    between atoms: C_5  and  C_6
REMARK    6  A    between atoms: C_6  and  N_7
REMARK    7  A    between atoms: C_8  and  C_10
REMARK    8  A    between atoms: C_21  and  C_23
REMARK    9  A    between atoms: C_23  and  C_25
REMARK   10  A    between atoms: C_23  and  C_27
REMARK   11  A    between atoms: C_25  and  C_26
REMARK                            x       y       z     vdW  Elec       q    Type
REMARK                         _______ _______ _______ _____ _____    ______ ____
ROOT
ATOM      1  C   UNL     1       3.045  -6.526   5.048  0.00  0.00    +0.100 C 
ATOM      2  C   UNL     1       2.398  -6.020   6.357  0.00  0.00    +0.121 C 
ATOM      3  N   UNL     1       1.389  -7.050   6.698  0.00  0.00    -0.300 N 
ATOM      4  C   UNL     1       2.045  -8.335   6.360  0.00  0.00    +0.115 C 
ATOM      5  C   UNL     1       2.815  -8.047   5.056  0.00  0.00    -0.004 C 
ATOM      6  C   UNL     1       4.150  -8.784   5.057  0.00  0.00    -0.010 C 
ATOM      7  C   UNL     1       3.896 -10.293   5.006  0.00  0.00    -0.082 C 
ATOM      8  N   UNL     1       3.133 -10.621   3.795  0.00  0.00    +0.379 N 
ATOM      9  C   UNL     1       1.812  -9.983   3.847  0.00  0.00    -0.082 C 
ATOM     10  C   UNL     1       1.979  -8.460   3.849  0.00  0.00    -0.010 C 
ATOM     11  C   UNL     1       0.153  -6.860   7.202  0.00  0.00    +0.223 C 
ATOM     12  O   UNL     1      -0.528  -7.814   7.513  0.00  0.00    -0.275 OA
ATOM     13  H   UNL     1       3.634 -10.291   2.984  0.00  0.00    -0.086 HD
ATOM     14  H   UNL     1       3.019 -11.622   3.732  0.00  0.00    -0.086 HD
ENDROOT
BRANCH   1  16
ATOM     15  N   UNL     1       3.074  -5.682   2.724  0.00  0.00    -0.315 N 
ATOM     16  C   UNL     1       2.373  -5.900   3.854  0.00  0.00    +0.218 C 
ATOM     17  O   UNL     1       1.201  -5.592   3.910  0.00  0.00    -0.275 OA
ATOM     18  H   UNL     1       4.011  -5.928   2.679  0.00  0.00    +0.149 HD
BRANCH  15  19
ATOM     19  C   UNL     1       2.421  -5.073   1.562  0.00  0.00    +0.104 C 
BRANCH  19  20
ATOM     20  C   UNL     1       3.431  -4.937   0.421  0.00  0.00    +0.019 C 
BRANCH  20  21
ATOM     21  C   UNL     1       2.749  -4.301  -0.791  0.00  0.00    +0.002 C 
BRANCH  21  22
ATOM     22  C   UNL     1       3.759  -4.166  -1.932  0.00  0.00    -0.000 C 
BRANCH  22  24
ATOM     23  C   UNL     1       4.087  -3.395  -4.286  0.00  0.00    +0.004 C 
ATOM     24  C   UNL     1       3.076  -3.530  -3.145  0.00  0.00    -0.003 C 
ENDBRANCH  22  24
ENDBRANCH  21  22
ENDBRANCH  20  21
ENDBRANCH  19  20
ENDBRANCH  15  19
ENDBRANCH   1  16
BRANCH  11  25
ATOM     25  C   UNL     1      -0.382  -5.463   7.379  0.00  0.00    +0.105 C 
BRANCH  25  26
ATOM     26  C   UNL     1      -1.213  -5.087   6.179  0.00  0.00    -0.036 A 
ATOM     27  C   UNL     1      -2.333  -5.830   5.854  0.00  0.00    +0.004 A 
ATOM     28  C   UNL     1      -3.095  -5.485   4.753  0.00  0.00    +0.000 A 
ATOM     29  C   UNL     1      -2.737  -4.398   3.978  0.00  0.00    +0.000 A 
ATOM     30  C   UNL     1      -1.618  -3.655   4.304  0.00  0.00    +0.000 A 
ATOM     31  C   UNL     1      -0.859  -3.997   5.407  0.00  0.00    +0.004 A 
ENDBRANCH  25  26
BRANCH  25  32
ATOM     32  C   UNL     1      -1.250  -5.404   8.638  0.00  0.00    +0.014 C 
ATOM     33  C   UNL     1      -0.376  -5.644   9.871  0.00  0.00    +0.005 C 
ENDBRANCH  25  32
ENDBRANCH  11  25
TORSDOF 9
