REMARK  Name = ZINC36573060
REMARK  17 active torsions:
REMARK  status: ('A' for Active; 'I' for Inactive)
REMARK    1  A    between atoms: C_1  and  C_2
REMARK    2  A    between atoms: C_2  and  C_3
REMARK    3  A    between atoms: C_3  and  N_4
REMARK    4  A    between atoms: N_4  and  C_5
REMARK    5  A    between atoms: C_5  and  C_7
REMARK    6  A    between atoms: C_5  and  C_16
REMARK    7  A    between atoms: C_8  and  O_15
REMARK    8  A    between atoms: C_10  and  O_14
REMARK    9  A    between atoms: C_12  and  O_13
REMARK   10  A    between atoms: N_18  and  C_19
REMARK   11  A    between atoms: C_19  and  C_20
REMARK   12  A    between atoms: C_19  and  C_21
REMARK   13  A    between atoms: C_19  and  C_22
REMARK   14  A    between atoms: C_23  and  C_25
REMARK   15  A    between atoms: C_25  and  C_26
REMARK   16  A    between atoms: C_25  and  C_32
REMARK   17  A    between atoms: C_25  and  O_38
REMARK                            x       y       z     vdW  Elec       q    Type
REMARK                         _______ _______ _______ _____ _____    ______ ____
ROOT
ATOM      1  N   UNL     1      -1.811  -2.844  -2.228  0.00  0.00    -0.283 N 
ATOM      2  C   UNL     1      -2.135  -4.118  -2.525  0.00  0.00    +0.257 C 
ATOM      3  O   UNL     1      -1.705  -5.026  -1.846  0.00  0.00    -0.272 OA
ENDROOT
BRANCH   1   4
ATOM      4  C   UNL     1      -2.240  -1.754  -3.109  0.00  0.00    +0.109 C 
BRANCH   4   6
ATOM      5  C   UNL     1      -1.681  -0.459  -5.171  0.00  0.00    +0.005 C 
ATOM      6  C   UNL     1      -1.219  -1.577  -4.234  0.00  0.00    +0.016 C 
ENDBRANCH   4   6
ENDBRANCH   1   4
BRANCH   1   7
ATOM      7  C   UNL     1      -1.030  -2.547  -1.024  0.00  0.00    +0.199 C 
BRANCH   7   8
ATOM      8  C   UNL     1      -0.004  -3.631  -0.812  0.00  0.00    +0.065 A 
ATOM      9  C   UNL     1       0.772  -4.068  -1.874  0.00  0.00    +0.129 A 
ATOM     10  C   UNL     1       1.716  -5.065  -1.679  0.00  0.00    +0.091 A 
ATOM     11  C   UNL     1       1.884  -5.624  -0.421  0.00  0.00    +0.124 A 
ATOM     12  C   UNL     1       1.107  -5.187   0.641  0.00  0.00    +0.091 A 
ATOM     13  C   UNL     1       0.167  -4.187   0.447  0.00  0.00    +0.129 A 
BRANCH  13  14
ATOM     14  O   UNL     1      -0.591  -3.754   1.489  0.00  0.00    -0.506 OA
ATOM     15  H   UNL     1      -1.418  -4.242   1.603  0.00  0.00    +0.292 HD
ENDBRANCH  13  14
BRANCH  11  16
ATOM     16  O   UNL     1       2.808  -6.602  -0.230  0.00  0.00    -0.507 OA
ATOM     17  H   UNL     1       3.683  -6.273   0.017  0.00  0.00    +0.292 HD
ENDBRANCH  11  16
BRANCH   9  18
ATOM     18  O   UNL     1       0.608  -3.520  -3.107  0.00  0.00    -0.506 OA
ATOM     19  H   UNL     1       1.169  -2.750  -3.273  0.00  0.00    +0.292 HD
ENDBRANCH   9  18
ENDBRANCH   7   8
BRANCH   7  20
ATOM     20  C   UNL     1      -0.334  -1.222  -1.191  0.00  0.00    +0.239 C 
ATOM     21  O   UNL     1      -0.541  -0.548  -2.178  0.00  0.00    -0.273 OA
ATOM     22  N   UNL     1       0.519  -0.785  -0.243  0.00  0.00    -0.309 N 
ATOM     23  H   UNL     1       0.737  -1.353   0.513  0.00  0.00    +0.149 HD
BRANCH  22  24
ATOM     24  C   UNL     1       1.119   0.547  -0.355  0.00  0.00    +0.026 C 
ATOM     25  C   UNL     1       0.012   1.604  -0.372  0.00  0.00    +0.031 C 
ATOM     26  C   UNL     1       2.041   0.793   0.841  0.00  0.00    +0.031 C 
ATOM     27  C   UNL     1       1.928   0.636  -1.650  0.00  0.00    +0.031 C 
ENDBRANCH  22  24
ENDBRANCH   7  20
ENDBRANCH   1   7
BRANCH   2  28
ATOM     28  C   UNL     1      -3.031  -4.413  -3.700  0.00  0.00    +0.192 C 
BRANCH  28  29
ATOM     29  C   UNL     1      -3.009  -5.892  -3.989  0.00  0.00    -0.003 A 
ATOM     30  C   UNL     1      -3.217  -6.799  -2.966  0.00  0.00    +0.007 A 
ATOM     31  C   UNL     1      -3.197  -8.156  -3.231  0.00  0.00    +0.000 A 
ATOM     32  C   UNL     1      -2.970  -8.605  -4.518  0.00  0.00    +0.000 A 
ATOM     33  C   UNL     1      -2.764  -7.699  -5.541  0.00  0.00    +0.000 A 
ATOM     34  C   UNL     1      -2.788  -6.342  -5.277  0.00  0.00    +0.007 A 
ENDBRANCH  28  29
BRANCH  28  35
ATOM     35  C   UNL     1      -4.439  -3.985  -3.378  0.00  0.00    -0.003 A 
ATOM     36  C   UNL     1      -4.887  -4.006  -2.070  0.00  0.00    +0.007 A 
ATOM     37  C   UNL     1      -6.179  -3.613  -1.775  0.00  0.00    +0.000 A 
ATOM     38  C   UNL     1      -7.023  -3.198  -2.788  0.00  0.00    +0.000 A 
ATOM     39  C   UNL     1      -6.576  -3.176  -4.096  0.00  0.00    +0.000 A 
ATOM     40  C   UNL     1      -5.282  -3.565  -4.390  0.00  0.00    +0.007 A 
ENDBRANCH  28  35
BRANCH  28  41
ATOM     41  O   UNL     1      -2.565  -3.698  -4.846  0.00  0.00    -0.371 OA
ATOM     42  H   UNL     1      -1.694  -3.978  -5.158  0.00  0.00    +0.212 HD
ENDBRANCH  28  41
ENDBRANCH   2  28
TORSDOF 13
