REMARK  Name = ZINC14159749
REMARK  7 active torsions:
REMARK  status: ('A' for Active; 'I' for Inactive)
REMARK    1  A    between atoms: C_1  and  C_2
REMARK    2  A    between atoms: C_5  and  N_9
REMARK    3  A    between atoms: N_9  and  C_10
REMARK    4  A    between atoms: C_10  and  N_12
REMARK    5  A    between atoms: N_14  and  C_15
REMARK    6  A    between atoms: C_17  and  C_22
REMARK    7  A    between atoms: C_19  and  C_21
REMARK                            x       y       z     vdW  Elec       q    Type
REMARK                         _______ _______ _______ _____ _____    ______ ____
ROOT
ATOM      1  N   UNL     1      -2.508  -5.956  -3.157  0.00  0.00    -0.269 N 
ATOM      2  C   UNL     1      -1.389  -6.753  -3.217  0.00  0.00    +0.192 C 
ATOM      3  N   UNL     1      -0.222  -6.226  -3.519  0.00  0.00    -0.181 NA
ATOM      4  N   UNL     1      -1.490  -8.094  -2.964  0.00  0.00    -0.300 N 
ATOM      5  C   UNL     1      -2.801  -8.715  -2.732  0.00  0.00    +0.126 C 
ATOM      6  C   UNL     1      -2.978  -9.871  -3.724  0.00  0.00    +0.125 C 
ATOM      7  N   UNL     1      -1.776 -10.716  -3.679  0.00  0.00    -0.314 N 
ATOM      8  C   UNL     1      -0.465 -10.095  -3.911  0.00  0.00    +0.125 C 
ATOM      9  C   UNL     1      -0.289  -8.940  -2.925  0.00  0.00    +0.126 C 
ATOM     10  C   UNL     1      -1.878 -12.078  -3.422  0.00  0.00    +0.099 A 
ATOM     11  C   UNL     1      -3.134 -12.670  -3.326  0.00  0.00    +0.042 A 
ATOM     12  C   UNL     1      -3.221 -14.026  -3.070  0.00  0.00    +0.005 A 
ATOM     13  C   UNL     1      -2.045 -14.748  -2.917  0.00  0.00    +0.018 A 
ATOM     14  C   UNL     1      -0.833 -14.097  -3.026  0.00  0.00    +0.084 A 
ATOM     15  N   UNL     1      -0.780 -12.803  -3.276  0.00  0.00    -0.350 N 
ATOM     16  H   UNL     1       0.085 -12.370  -3.351  0.00  0.00    +0.166 HD
ATOM     17  H   UNL     1      -2.897  -5.731  -2.297  0.00  0.00    +0.156 HD
ENDROOT
BRANCH   3  18
ATOM     18  C   UNL     1      -0.072  -4.873  -3.543  0.00  0.00    +0.253 A 
ATOM     19  N   UNL     1       0.139  -4.221  -2.403  0.00  0.00    -0.216 NA
ATOM     20  C   UNL     1       0.289  -2.908  -2.394  0.00  0.00    +0.044 A 
ATOM     21  C   UNL     1       0.225  -2.211  -3.591  0.00  0.00    +0.046 A 
ATOM     22  C   UNL     1       0.004  -2.919  -4.763  0.00  0.00    +0.044 A 
ATOM     23  N   UNL     1      -0.133  -4.232  -4.708  0.00  0.00    -0.216 NA
ATOM     24  C   UNL     1      -0.072  -2.200  -6.085  0.00  0.00    +0.066 C 
ATOM     25  C   UNL     1       0.527  -2.177  -1.098  0.00  0.00    +0.066 C 
ENDBRANCH   3  18
BRANCH   1  26
ATOM     26  C   UNL     1      -3.064  -5.487  -4.292  0.00  0.00    +0.141 C 
ATOM     27  S   UNL     1      -2.391  -5.904  -5.810  0.00  0.00    -0.018 S 
BRANCH  26  28
ATOM     28  N   UNL     1      -4.150  -4.691  -4.231  0.00  0.00    -0.295 N 
ATOM     29  H   UNL     1      -4.446  -4.339  -3.377  0.00  0.00    +0.154 HD
BRANCH  28  34
ATOM     30  C   UNL     1      -6.989  -3.399  -8.971  0.00  0.00    +0.044 C 
ATOM     31  C   UNL     1      -6.234  -3.742  -7.712  0.00  0.00    -0.049 A 
ATOM     32  C   UNL     1      -5.931  -5.061  -7.427  0.00  0.00    +0.005 A 
ATOM     33  C   UNL     1      -5.240  -5.378  -6.274  0.00  0.00    +0.025 A 
ATOM     34  C   UNL     1      -4.849  -4.372  -5.400  0.00  0.00    +0.051 A 
ATOM     35  C   UNL     1      -5.155  -3.048  -5.690  0.00  0.00    +0.062 A 
ATOM     36  C   UNL     1      -5.842  -2.736  -6.848  0.00  0.00    +0.025 A 
ATOM     37 CL   UNL     1      -4.669  -1.786  -4.601  0.00  0.00    -0.082 Cl
ENDBRANCH  28  34
ENDBRANCH  26  28
ENDBRANCH   1  26
TORSDOF 4
