REMARK  Name = ZINC39655809
REMARK  8 active torsions:
REMARK  status: ('A' for Active; 'I' for Inactive)
REMARK    1  A    between atoms: C_1  and  C_2
REMARK    2  A    between atoms: C_8  and  C_11
REMARK    3  A    between atoms: C_11  and  C_12
REMARK    4  A    between atoms: C_12  and  N_13
REMARK    5  A    between atoms: C_14  and  C_16
REMARK    6  A    between atoms: C_27  and  C_29
REMARK    7  A    between atoms: C_33  and  O_35
REMARK    8  A    between atoms: O_35  and  C_36
REMARK                            x       y       z     vdW  Elec       q    Type
REMARK                         _______ _______ _______ _____ _____    ______ ____
ROOT
ATOM      1  C   UNL     1       4.077  -0.091  -7.934  0.00  0.00    +0.100 C 
ATOM      2  C   UNL     1       4.508   0.829  -9.098  0.00  0.00    +0.121 C 
ATOM      3  N   UNL     1       5.456   0.011  -9.891  0.00  0.00    -0.296 N 
ATOM      4  C   UNL     1       4.866  -1.350  -9.880  0.00  0.00    +0.115 C 
ATOM      5  C   UNL     1       4.313  -1.520  -8.451  0.00  0.00    -0.004 C 
ATOM      6  C   UNL     1       2.998  -2.294  -8.484  0.00  0.00    -0.010 C 
ATOM      7  C   UNL     1       3.267  -3.729  -8.946  0.00  0.00    -0.082 C 
ATOM      8  N   UNL     1       4.214  -4.372  -8.027  0.00  0.00    +0.379 N 
ATOM      9  C   UNL     1       5.506  -3.676  -8.072  0.00  0.00    -0.082 C 
ATOM     10  C   UNL     1       5.332  -2.239  -7.573  0.00  0.00    -0.010 C 
ATOM     11  C   UNL     1       6.596   0.412 -10.487  0.00  0.00    +0.247 C 
ATOM     12  O   UNL     1       7.017   1.537 -10.298  0.00  0.00    -0.270 OA
ATOM     13  H   UNL     1       3.847  -4.335  -7.088  0.00  0.00    -0.086 HD
ATOM     14  H   UNL     1       4.343  -5.335  -8.298  0.00  0.00    -0.086 HD
ENDROOT
BRANCH  11  15
ATOM     15  C   UNL     1       7.335  -0.515 -11.370  0.00  0.00    +0.040 A 
ATOM     16  C   UNL     1       6.683  -1.612 -11.936  0.00  0.00    +0.013 A 
ATOM     17  C   UNL     1       7.376  -2.475 -12.760  0.00  0.00    +0.004 A 
ATOM     18  C   UNL     1       8.715  -2.259 -13.026  0.00  0.00    +0.045 A 
ATOM     19  C   UNL     1       9.372  -1.171 -12.467  0.00  0.00    +0.121 A 
ATOM     20  C   UNL     1       8.685  -0.294 -11.644  0.00  0.00    +0.058 A 
BRANCH  19  21
ATOM     21  O   UNL     1      10.689  -0.963 -12.732  0.00  0.00    -0.495 OA
ATOM     22  C   UNL     1      11.334  -1.903 -13.594  0.00  0.00    +0.277 C 
ENDBRANCH  19  21
ENDBRANCH  11  15
BRANCH   1  24
ATOM     23  N   UNL     1       2.174  -0.067  -6.354  0.00  0.00    -0.315 N 
ATOM     24  C   UNL     1       2.619   0.117  -7.613  0.00  0.00    +0.218 C 
ATOM     25  O   UNL     1       1.847   0.450  -8.487  0.00  0.00    -0.275 OA
ATOM     26  H   UNL     1       2.791  -0.333  -5.655  0.00  0.00    +0.149 HD
BRANCH  23  27
ATOM     27  C   UNL     1       0.757   0.135  -6.042  0.00  0.00    +0.109 C 
BRANCH  27  28
ATOM     28  C   UNL     1       0.518  -0.136  -4.555  0.00  0.00    +0.056 C 
BRANCH  28  36
ATOM     29  C   UNL     1      -3.310  -4.325  -5.337  0.00  0.00    +0.044 C 
ATOM     30  C   UNL     1      -3.258  -2.898  -4.856  0.00  0.00    -0.050 A 
ATOM     31  C   UNL     1      -4.423  -2.268  -4.440  0.00  0.00    +0.005 A 
ATOM     32  C   UNL     1      -4.397  -0.964  -3.998  0.00  0.00    +0.026 A 
ATOM     33  C   UNL     1      -3.192  -0.269  -3.965  0.00  0.00    +0.047 A 
ATOM     34  N   UNL     1      -2.845   1.009  -3.587  0.00  0.00    -0.360 N 
ATOM     35  C   UNL     1      -1.499   1.193  -3.754  0.00  0.00    +0.087 A 
ATOM     36  C   UNL     1      -0.939   0.071  -4.234  0.00  0.00    -0.021 A 
ATOM     37  C   UNL     1      -2.014  -0.912  -4.387  0.00  0.00    +0.003 A 
ATOM     38  C   UNL     1      -2.063  -2.236  -4.827  0.00  0.00    +0.013 A 
ATOM     39  H   UNL     1      -3.462   1.678  -3.253  0.00  0.00    +0.165 HD
ENDBRANCH  28  36
ENDBRANCH  27  28
ENDBRANCH  23  27
ENDBRANCH   1  24
TORSDOF 6
