REMARK  Name = ZINC62796107
REMARK  5 active torsions:
REMARK  status: ('A' for Active; 'I' for Inactive)
REMARK    1  A    between atoms: C_3  and  N_11
REMARK    2  A    between atoms: C_6  and  C_7
REMARK    3  A    between atoms: C_7  and  N_9
REMARK    4  A    between atoms: N_11  and  C_12
REMARK    5  A    between atoms: C_18  and  O_20
REMARK                            x       y       z     vdW  Elec       q    Type
REMARK                         _______ _______ _______ _____ _____    ______ ____
ROOT
ATOM      1  C   UNL     1      -0.017   1.394   0.010  0.00  0.00    +0.012 A 
ATOM      2  C   UNL     1       1.167   2.097   0.002  0.00  0.00    +0.025 A 
ATOM      3  C   UNL     1       2.381   1.419  -0.013  0.00  0.00    +0.046 A 
ATOM      4  C   UNL     1       2.405   0.026  -0.021  0.00  0.00    +0.062 A 
ATOM      5  C   UNL     1       1.224  -0.684  -0.014  0.00  0.00    +0.032 A 
ATOM      6  C   UNL     1       0.002  -0.004   0.002  0.00  0.00    +0.004 A 
ATOM      7 CL   UNL     1       3.922  -0.816  -0.040  0.00  0.00    -0.082 Cl
ENDROOT
BRANCH   6   8
ATOM      8  C   UNL     1      -1.263  -0.760   0.011  0.00  0.00    +0.077 C 
ATOM      9  S   UNL     1      -2.629  -0.151  -0.823  0.00  0.00    -0.035 S 
BRANCH   8  10
ATOM     10  N   UNL     1      -1.344  -1.930   0.675  0.00  0.00    -0.352 N 
ATOM     11  H   UNL     1      -0.571  -2.274   1.147  0.00  0.00    +0.143 HD
ATOM     12  H   UNL     1      -2.177  -2.427   0.680  0.00  0.00    +0.143 HD
ENDBRANCH   8  10
ENDBRANCH   6   8
BRANCH   3  13
ATOM     13  N   UNL     1       3.576   2.133  -0.021  0.00  0.00    -0.337 N 
ATOM     14  H   UNL     1       4.423   1.661  -0.032  0.00  0.00    +0.146 HD
BRANCH  13  15
ATOM     15  C   UNL     1       3.553   3.598  -0.013  0.00  0.00    +0.099 C 
ATOM     16  C   UNL     1       3.405   4.113  -1.447  0.00  0.00    +0.025 C 
ATOM     17  C   UNL     1       4.587   3.626  -2.288  0.00  0.00    +0.002 C 
ATOM     18  C   UNL     1       5.892   4.153  -1.688  0.00  0.00    +0.003 C 
ATOM     19  C   UNL     1       6.040   3.638  -0.255  0.00  0.00    +0.033 C 
ATOM     20  C   UNL     1       4.858   4.125   0.586  0.00  0.00    +0.135 C 
BRANCH  20  21
ATOM     21  O   UNL     1       4.996   3.644   1.925  0.00  0.00    -0.390 OA
ATOM     22  H   UNL     1       5.803   3.939   2.368  0.00  0.00    +0.210 HD
ENDBRANCH  20  21
ENDBRANCH  13  15
ENDBRANCH   3  13
TORSDOF 5
