REMARK  Name = ZINC43216284
REMARK  12 active torsions:
REMARK  status: ('A' for Active; 'I' for Inactive)
REMARK    1  A    between atoms: C_1  and  C_2
REMARK    2  A    between atoms: C_2  and  C_4
REMARK    3  A    between atoms: C_2  and  N_35
REMARK    4  A    between atoms: C_6  and  C_9
REMARK    5  A    between atoms: N_11  and  C_12
REMARK    6  A    between atoms: C_12  and  C_14
REMARK    7  A    between atoms: C_12  and  C_23
REMARK    8  A    between atoms: C_14  and  S_15
REMARK    9  A    between atoms: S_15  and  C_16
REMARK   10  A    between atoms: C_16  and  C_17
REMARK   11  A    between atoms: N_25  and  C_26
REMARK   12  A    between atoms: C_29  and  N_32
REMARK                            x       y       z     vdW  Elec       q    Type
REMARK                         _______ _______ _______ _____ _____    ______ ____
ROOT
ATOM      1  C   UNL     1      -5.097  -2.913  -3.586  0.00  0.00    +0.169 C 
ENDROOT
BRANCH   1   4
ATOM      2  C   UNL     1      -4.319  -2.028  -1.453  0.00  0.00    +0.266 C 
ATOM      3  O   UNL     1      -5.402  -2.306  -0.976  0.00  0.00    -0.268 OA
ATOM      4  N   UNL     1      -4.066  -2.292  -2.751  0.00  0.00    -0.298 N 
ATOM      5  H   UNL     1      -3.202  -2.070  -3.131  0.00  0.00    +0.150 HD
BRANCH   2   8
ATOM      6  C   UNL     1      -1.411  -0.521   0.010  0.00  0.00    +0.181 A 
ATOM      7  N   UNL     1      -2.031  -1.039  -1.008  0.00  0.00    -0.210 NA
ATOM      8  C   UNL     1      -3.281  -1.403  -0.613  0.00  0.00    +0.163 A 
ATOM      9  C   UNL     1      -3.394  -1.080   0.704  0.00  0.00    +0.230 A 
ATOM     10  O   UNL     1      -2.223  -0.538   1.076  0.00  0.00    -0.449 OA
BRANCH   6  12
ATOM     11  C   UNL     1      -0.030   1.538   0.008  0.00  0.00    -0.005 C 
ATOM     12  C   UNL     1      -0.001   0.008  -0.005  0.00  0.00    +0.010 C 
BRANCH  12  13
ATOM     13  N   UNL     1       0.717  -0.478   1.181  0.00  0.00    +0.386 N 
ATOM     14  H   UNL     1       0.246  -0.158   2.014  0.00  0.00    -0.089 HD
ATOM     15  H   UNL     1       0.736  -1.487   1.173  0.00  0.00    -0.089 HD
ATOM     16  H   UNL     1       1.662  -0.124   1.172  0.00  0.00    -0.089 HD
ENDBRANCH  12  13
ENDBRANCH   6  12
ENDBRANCH   2   8
ENDBRANCH   1   4
BRANCH   1  17
ATOM     17  C   UNL     1      -4.443  -3.646  -4.729  0.00  0.00    +0.238 C 
ATOM     18  O   UNL     1      -3.235  -3.648  -4.836  0.00  0.00    -0.273 OA
ATOM     19  N   UNL     1      -5.200  -4.298  -5.633  0.00  0.00    -0.284 N 
ATOM     20  H   UNL     1      -6.161  -4.353  -5.511  0.00  0.00    +0.155 HD
BRANCH  19  21
ATOM     21  C   UNL     1      -4.601  -4.896  -6.747  0.00  0.00    +0.034 A 
ATOM     22  C   UNL     1      -5.261  -4.909  -7.969  0.00  0.00    +0.025 A 
ATOM     23  C   UNL     1      -4.667  -5.500  -9.067  0.00  0.00    +0.034 A 
ATOM     24  C   UNL     1      -3.416  -6.078  -8.950  0.00  0.00    +0.126 A 
ATOM     25  C   UNL     1      -2.757  -6.067  -7.735  0.00  0.00    +0.034 A 
ATOM     26  C   UNL     1      -3.343  -5.473  -6.635  0.00  0.00    +0.025 A 
BRANCH  24  27
ATOM     27  N   UNL     1      -2.782  -6.711 -10.129  0.00  0.00    +0.056 N 
ATOM     28  O   UNL     1      -3.358  -6.721 -11.192  0.00  0.00    -0.126 OA
ATOM     29  O   UNL     1      -1.689  -7.217 -10.028  0.00  0.00    -0.126 OA
ENDBRANCH  24  27
ENDBRANCH  19  21
ENDBRANCH   1  17
BRANCH   1  30
ATOM     30  C   UNL     1      -6.026  -1.831  -4.139  0.00  0.00    +0.101 C 
BRANCH  30  31
ATOM     31  S   UNL     1      -6.814  -0.950  -2.763  0.00  0.00    -0.154 S 
BRANCH  31  32
ATOM     32  C   UNL     1      -7.868   0.282  -3.576  0.00  0.00    +0.104 C 
BRANCH  32  33
ATOM     33  C   UNL     1      -8.590   1.094  -2.532  0.00  0.00    -0.038 A 
ATOM     34  C   UNL     1      -9.822   0.679  -2.063  0.00  0.00    +0.004 A 
ATOM     35  C   UNL     1     -10.484   1.424  -1.106  0.00  0.00    +0.000 A 
ATOM     36  C   UNL     1      -9.913   2.584  -0.616  0.00  0.00    +0.000 A 
ATOM     37  C   UNL     1      -8.680   2.998  -1.083  0.00  0.00    +0.000 A 
ATOM     38  C   UNL     1      -8.016   2.251  -2.038  0.00  0.00    +0.004 A 
ENDBRANCH  32  33
ENDBRANCH  31  32
ENDBRANCH  30  31
ENDBRANCH   1  30
TORSDOF 11
