REMARK  Name = ZINC14159187
REMARK  13 active torsions:
REMARK  status: ('A' for Active; 'I' for Inactive)
REMARK    1  A    between atoms: C_1  and  C_2
REMARK    2  A    between atoms: C_5  and  N_9
REMARK    3  A    between atoms: C_6  and  C_8
REMARK    4  A    between atoms: N_9  and  C_10
REMARK    5  A    between atoms: C_10  and  N_12
REMARK    6  A    between atoms: N_14  and  C_15
REMARK    7  A    between atoms: C_15  and  C_16
REMARK    8  A    between atoms: C_16  and  S_17
REMARK    9  A    between atoms: S_17  and  C_18
REMARK   10  A    between atoms: C_18  and  C_19
REMARK   11  A    between atoms: C_20  and  C_25
REMARK   12  A    between atoms: C_29  and  C_34
REMARK   13  A    between atoms: C_31  and  C_33
REMARK                            x       y       z     vdW  Elec       q    Type
REMARK                         _______ _______ _______ _____ _____    ______ ____
ROOT
ATOM      1  N   UNL     1      -0.143  -6.132  -1.031  0.00  0.00    -0.159 NA
ATOM      2  C   UNL     1      -0.066  -6.881  -2.118  0.00  0.00    +0.195 C 
ATOM      3  N   UNL     1      -0.032  -6.294  -3.350  0.00  0.00    -0.357 N 
ATOM      4  N   UNL     1      -0.019  -8.245  -2.008  0.00  0.00    -0.297 N 
ATOM      5  C   UNL     1      -0.110  -8.844  -0.758  0.00  0.00    +0.231 A 
ATOM      6  N   UNL     1      -0.274  -8.082   0.313  0.00  0.00    -0.217 NA
ATOM      7  C   UNL     1      -0.365  -8.621   1.518  0.00  0.00    +0.044 A 
ATOM      8  C   UNL     1      -0.287  -9.998   1.650  0.00  0.00    +0.046 A 
ATOM      9  C   UNL     1      -0.115 -10.765   0.508  0.00  0.00    +0.044 A 
ATOM     10  N   UNL     1      -0.037 -10.163  -0.667  0.00  0.00    -0.217 NA
ATOM     11  C   UNL     1      -0.025 -12.266   0.603  0.00  0.00    +0.066 C 
ATOM     12  C   UNL     1      -0.551  -7.747   2.731  0.00  0.00    +0.066 C 
ATOM     13  H   UNL     1      -0.040  -5.327  -3.427  0.00  0.00    +0.162 HD
ATOM     14  H   UNL     1       0.079  -8.792  -2.802  0.00  0.00    +0.171 HD
ENDROOT
BRANCH   1  15
ATOM     15  C   UNL     1      -0.300  -4.805  -1.141  0.00  0.00    +0.161 C 
ATOM     16  S   UNL     1      -1.729  -4.168  -1.837  0.00  0.00    -0.016 S 
BRANCH  15  17
ATOM     17  N   UNL     1       0.666  -3.974  -0.704  0.00  0.00    -0.295 N 
ATOM     18  H   UNL     1       1.505  -4.334  -0.376  0.00  0.00    +0.154 HD
BRANCH  17  23
ATOM     19  C   UNL     1      -0.173   1.636  -0.780  0.00  0.00    +0.044 C 
ATOM     20  C   UNL     1       0.049   0.146  -0.760  0.00  0.00    -0.050 A 
ATOM     21  C   UNL     1      -0.253  -0.613  -1.876  0.00  0.00    +0.005 A 
ATOM     22  C   UNL     1      -0.050  -1.978  -1.861  0.00  0.00    +0.024 A 
ATOM     23  C   UNL     1       0.459  -2.591  -0.723  0.00  0.00    +0.036 A 
ATOM     24  C   UNL     1       0.762  -1.827   0.397  0.00  0.00    -0.029 A 
ATOM     25  C   UNL     1       0.561  -0.460   0.373  0.00  0.00    +0.008 A 
ATOM     26  C   UNL     1       1.314  -2.487   1.634  0.00  0.00    +0.045 C 
ENDBRANCH  17  23
ENDBRANCH  15  17
ENDBRANCH   1  15
BRANCH   3  27
ATOM     27  C   UNL     1       0.015  -7.125  -4.556  0.00  0.00    +0.126 C 
BRANCH  27  28
ATOM     28  C   UNL     1       0.136  -6.228  -5.789  0.00  0.00    +0.090 C 
BRANCH  28  29
ATOM     29  S   UNL     1       0.055  -7.246  -7.288  0.00  0.00    -0.153 S 
BRANCH  29  30
ATOM     30  C   UNL     1       0.211  -6.048  -8.641  0.00  0.00    +0.126 C 
BRANCH  30  31
ATOM     31  C   UNL     1       0.158  -6.772  -9.962  0.00  0.00    +0.072 A 
ATOM     32  C   UNL     1       1.213  -7.274 -10.632  0.00  0.00    +0.036 A 
ATOM     33  N   UNL     1       0.721  -7.846 -11.774  0.00  0.00    -0.348 N 
ATOM     34  H   UNL     1       1.238  -8.292 -12.463  0.00  0.00    +0.166 HD
ATOM     35  C   UNL     1      -0.618  -7.673 -11.762  0.00  0.00    +0.197 A 
ATOM     36  N   UNL     1      -0.948  -7.034 -10.673  0.00  0.00    -0.240 NA
ATOM     37  C   UNL     1       2.658  -7.218 -10.206  0.00  0.00    +0.065 C 
ENDBRANCH  30  31
ENDBRANCH  29  30
ENDBRANCH  28  29
ENDBRANCH  27  28
ENDBRANCH   3  27
TORSDOF 8
