REMARK  Name = ZINC20170889
REMARK  9 active torsions:
REMARK  status: ('A' for Active; 'I' for Inactive)
REMARK    1  A    between atoms: C_1  and  C_2
REMARK    2  A    between atoms: C_2  and  O_3
REMARK    3  A    between atoms: O_3  and  C_4
REMARK    4  A    between atoms: C_4  and  C_6
REMARK    5  A    between atoms: C_8  and  C_26
REMARK    6  A    between atoms: C_13  and  C_20
REMARK    7  A    between atoms: C_14  and  C_18
REMARK    8  A    between atoms: C_15  and  N_17
REMARK    9  A    between atoms: C_24  and  O_25
REMARK                            x       y       z     vdW  Elec       q    Type
REMARK                         _______ _______ _______ _____ _____    ______ ____
ROOT
ATOM      1  C   UNL     1       1.516  -2.381   2.500  0.00  0.00    +0.194 C 
ATOM      2  C   UNL     1       1.514  -3.906   2.398  0.00  0.00    +0.078 C 
ATOM      3  C   UNL     1       0.117  -4.402   2.765  0.00  0.00    +0.020 A 
ATOM      4  C   UNL     1      -0.473  -5.559   2.245  0.00  0.00    +0.086 A 
ATOM      5  C   UNL     1      -1.783  -5.864   2.716  0.00  0.00    +0.044 A 
ATOM      6  C   UNL     1      -2.511  -6.956   2.321  0.00  0.00    -0.014 A 
ATOM      7  C   UNL     1      -1.865  -7.791   1.384  0.00  0.00    +0.095 A 
ATOM      8  C   UNL     1      -0.573  -7.460   0.937  0.00  0.00    +0.135 A 
ATOM      9  N   UNL     1       0.096  -6.399   1.342  0.00  0.00    -0.230 NA
ATOM     10  C   UNL     1      -3.893  -7.243   2.846  0.00  0.00    +0.046 C 
ATOM     11  S   UNL     1      -2.139  -4.548   3.841  0.00  0.00    -0.067 S 
ATOM     12  C   UNL     1      -0.615  -3.662   3.670  0.00  0.00    +0.111 A 
ATOM     13  N   UNL     1      -0.201  -2.519   4.252  0.00  0.00    -0.209 NA
ATOM     14  C   UNL     1       0.835  -1.905   3.751  0.00  0.00    +0.203 C 
ENDROOT
BRANCH   2  15
ATOM     15  C   UNL     1       2.528  -4.482   3.353  0.00  0.00    -0.020 A 
ATOM     16  C   UNL     1       2.409  -4.247   4.710  0.00  0.00    +0.006 A 
ATOM     17  C   UNL     1       3.339  -4.776   5.587  0.00  0.00    +0.000 A 
ATOM     18  C   UNL     1       4.387  -5.539   5.107  0.00  0.00    +0.001 A 
ATOM     19  C   UNL     1       4.506  -5.774   3.750  0.00  0.00    +0.020 A 
ATOM     20  C   UNL     1       3.573  -5.251   2.873  0.00  0.00    +0.045 A 
ATOM     21 CL   UNL     1       3.718  -5.552   1.169  0.00  0.00    -0.083 Cl
ENDBRANCH   2  15
BRANCH   8  22
ATOM     22  N   UNL     1       0.033  -8.300   0.015  0.00  0.00    -0.342 N 
ATOM     23  H   UNL     1      -0.434  -9.089  -0.302  0.00  0.00    +0.144 HD
ATOM     24  H   UNL     1       0.923  -8.099  -0.312  0.00  0.00    +0.144 HD
ENDBRANCH   8  22
BRANCH   1  25
ATOM     25  C   UNL     1       0.801  -1.808   1.304  0.00  0.00    +0.320 C 
ATOM     26  O   UNL     1       0.324  -2.546   0.475  0.00  0.00    -0.250 OA
BRANCH  25  27
ATOM     27  O   UNL     1       0.693  -0.477   1.160  0.00  0.00    -0.464 OA
BRANCH  27  29
ATOM     28  C   UNL     1      -0.019   1.526   0.010  0.00  0.00    +0.048 C 
ATOM     29  C   UNL     1       0.002  -0.004   0.002  0.00  0.00    +0.229 C 
ENDBRANCH  27  29
ENDBRANCH  25  27
ENDBRANCH   1  25
BRANCH   7  30
ATOM     30  C   UNL     1      -2.521  -8.965   0.891  0.00  0.00    +0.103 C 
ATOM     31  N   UNL     1      -3.041  -9.896   0.501  0.00  0.00    -0.191 NA
ENDBRANCH   7  30
BRANCH  14  32
ATOM     32  O   UNL     1       1.308  -0.810   4.378  0.00  0.00    -0.495 OA
ATOM     33  H   UNL     1       0.816  -0.569   5.174  0.00  0.00    +0.293 HD
ENDBRANCH  14  32
TORSDOF 7
