REMARK  Name = ZINC39467576
REMARK  6 active torsions:
REMARK  status: ('A' for Active; 'I' for Inactive)
REMARK    1  A    between atoms: C_4  and  O_7
REMARK    2  A    between atoms: O_7  and  S_8
REMARK    3  A    between atoms: S_8  and  C_11
REMARK    4  A    between atoms: P_20  and  C_30
REMARK    5  A    between atoms: C_28  and  O_29
REMARK    6  A    between atoms: C_35  and  O_36
REMARK                            x       y       z     vdW  Elec       q    Type
REMARK                         _______ _______ _______ _____ _____    ______ ____
ROOT
ATOM      1  C   UNL     1       3.071  -2.384   1.880  0.00  0.00    +0.165 C 
ATOM      2  C   UNL     1       3.650  -3.558   2.104  0.00  0.00    +0.011 C 
ATOM      3  C   UNL     1       2.820  -4.732   2.552  0.00  0.00    +0.018 C 
ATOM      4  C   UNL     1       3.680  -5.730   3.314  0.00  0.00    -0.003 C 
ATOM      5  C   UNL     1       2.837  -6.544   4.305  0.00  0.00    -0.020 C 
ATOM      6  C   UNL     1       3.558  -7.891   4.455  0.00  0.00    +0.157 C 
ATOM      7  O   UNL     1       2.863  -8.729   5.391  0.00  0.00    -0.316 OA
ATOM      8  P   UNL     1       1.264  -8.933   5.165  0.00  0.00    +0.291 P 
ATOM      9  O   UNL     1       0.617  -9.365   6.424  0.00  0.00    -0.269 OA
ATOM     10  N   UNL     1       0.709  -7.448   4.716  0.00  0.00    -0.288 NA
ATOM     11  N   UNL     1       1.469  -6.711   3.829  0.00  0.00    +0.398 N 
ATOM     12  C   UNL     1       0.750  -5.430   3.737  0.00  0.00    -0.046 C 
ATOM     13  C   UNL     1       1.700  -4.253   3.473  0.00  0.00    +0.008 C 
ATOM     14  C   UNL     1       0.954  -3.120   2.820  0.00  0.00    +0.023 C 
ATOM     15  C   UNL     1       1.614  -2.240   2.067  0.00  0.00    +0.141 C 
ATOM     16  H   UNL     1      -0.131  -7.108   5.061  0.00  0.00    +0.111 HD
ATOM     17  H   UNL     1       1.479  -7.159   2.925  0.00  0.00    -0.055 HD
ENDROOT
BRANCH   8  18
ATOM     18  C   UNL     1       0.962 -10.148   3.852  0.00  0.00    +0.091 A 
ATOM     19  C   UNL     1       0.856  -9.734   2.538  0.00  0.00    +0.018 A 
ATOM     20  C   UNL     1       0.625 -10.659   1.538  0.00  0.00    +0.001 A 
ATOM     21  C   UNL     1       0.501 -12.001   1.848  0.00  0.00    +0.004 A 
ATOM     22  C   UNL     1       0.607 -12.420   3.160  0.00  0.00    +0.046 A 
ATOM     23  C   UNL     1       0.844 -11.494   4.166  0.00  0.00    +0.131 A 
BRANCH  23  24
ATOM     24  O   UNL     1       0.954 -11.904   5.457  0.00  0.00    -0.506 OA
ATOM     25  H   UNL     1       0.115 -11.921   5.937  0.00  0.00    +0.292 HD
ENDBRANCH  23  24
ENDBRANCH   8  18
BRANCH   1  26
ATOM     26  S   UNL     1       4.038  -1.003   1.368  0.00  0.00    +0.154 S 
ATOM     27  O   UNL     1       5.394  -1.430   1.381  0.00  0.00    -0.131 OA
ATOM     28  O   UNL     1       3.584   0.113   2.122  0.00  0.00    -0.131 OA
BRANCH  26  29
ATOM     29  O   UNL     1       3.685  -0.720  -0.085  0.00  0.00    -0.342 OA
BRANCH  29  33
ATOM     30  C   UNL     1       5.307  -3.406  -2.763  0.00  0.00    +0.000 A 
ATOM     31  C   UNL     1       4.068  -3.654  -2.201  0.00  0.00    +0.004 A 
ATOM     32  C   UNL     1       3.523  -2.756  -1.304  0.00  0.00    +0.048 A 
ATOM     33  C   UNL     1       4.219  -1.605  -0.967  0.00  0.00    +0.157 A 
ATOM     34  C   UNL     1       5.462  -1.359  -1.532  0.00  0.00    +0.048 A 
ATOM     35  C   UNL     1       6.003  -2.260  -2.428  0.00  0.00    +0.004 A 
ENDBRANCH  29  33
ENDBRANCH  26  29
ENDBRANCH   1  26
BRANCH  15  36
ATOM     36  O   UNL     1       0.946  -1.218   1.470  0.00  0.00    -0.505 OA
ATOM     37  H   UNL     1      -0.003  -1.208   1.653  0.00  0.00    +0.292 HD
ENDBRANCH  15  36
TORSDOF 6
