REMARK  Name = ZINC14975179
REMARK  10 active torsions:
REMARK  status: ('A' for Active; 'I' for Inactive)
REMARK    1  A    between atoms: C_1  and  C_2
REMARK    2  A    between atoms: C_4  and  C_10
REMARK    3  A    between atoms: C_7  and  O_8
REMARK    4  A    between atoms: O_8  and  C_9
REMARK    5  A    between atoms: C_10  and  N_56
REMARK    6  A    between atoms: C_16  and  C_18
REMARK    7  A    between atoms: C_18  and  C_19
REMARK    8  A    between atoms: N_21  and  C_22
REMARK    9  A    between atoms: C_22  and  C_23
REMARK   10  A    between atoms: C_26  and  C_29
REMARK                            x       y       z     vdW  Elec       q    Type
REMARK                         _______ _______ _______ _____ _____    ______ ____
ROOT
ATOM      1  C   UNL     1       3.593   1.896  -2.721  0.00  0.00    -0.058 C 
ATOM      2  C   UNL     1       4.041   1.390  -4.094  0.00  0.00    +0.085 C 
ATOM      3  N   UNL     1       4.995   0.296  -3.937  0.00  0.00    -0.318 N 
ATOM      4  C   UNL     1       5.128  -0.395  -2.800  0.00  0.00    +0.200 C 
ATOM      5  O   UNL     1       5.924  -1.310  -2.765  0.00  0.00    -0.278 OA
ATOM      6  C   UNL     1       4.333  -0.086  -1.563  0.00  0.00    +0.028 C 
ATOM      7  H   UNL     1       5.558   0.060  -4.691  0.00  0.00    +0.149 HD
ATOM      8  N   UNL     1       3.159   0.731  -1.924  0.00  0.00    +0.391 N 
ATOM      9  H   UNL     1       2.514   0.163  -2.485  0.00  0.00    -0.080 HD
ENDROOT
BRANCH   8  10
ATOM     10  C   UNL     1       2.462   1.185  -0.699  0.00  0.00    -0.042 C 
BRANCH  10  14
ATOM     11  C   UNL     1      -0.773   4.722  -2.135  0.00  0.00    +0.047 C 
ATOM     12  C   UNL     1      -0.488   3.293  -1.750  0.00  0.00    -0.009 A 
ATOM     13  C   UNL     1       0.797   2.911  -1.416  0.00  0.00    +0.008 A 
ATOM     14  C   UNL     1       1.059   1.600  -1.063  0.00  0.00    -0.063 A 
ATOM     15  C   UNL     1       0.037   0.669  -1.044  0.00  0.00    +0.005 A 
ATOM     16  C   UNL     1      -1.248   1.045  -1.382  0.00  0.00    +0.046 A 
ATOM     17  C   UNL     1      -1.515   2.362  -1.731  0.00  0.00    +0.123 A 
BRANCH  17  18
ATOM     18  O   UNL     1      -2.780   2.736  -2.059  0.00  0.00    -0.495 OA
ATOM     19  C   UNL     1      -3.787   1.723  -2.018  0.00  0.00    +0.277 C 
ENDBRANCH  17  18
ENDBRANCH  10  14
ENDBRANCH   8  10
BRANCH   6  20
ATOM     20  C   UNL     1       3.853  -1.392  -0.928  0.00  0.00    +0.089 C 
BRANCH  20  21
ATOM     21  C   UNL     1       2.979  -2.135  -1.905  0.00  0.00    +0.212 C 
ATOM     22  O   UNL     1       2.692  -1.627  -2.969  0.00  0.00    -0.276 OA
ATOM     23  N   UNL     1       2.516  -3.363  -1.597  0.00  0.00    -0.310 N 
ATOM     24  H   UNL     1       2.746  -3.768  -0.747  0.00  0.00    +0.149 HD
BRANCH  23  25
ATOM     25  C   UNL     1       1.666  -4.085  -2.548  0.00  0.00    +0.161 C 
BRANCH  25  26
ATOM     26  C   UNL     1       1.287  -5.422  -1.967  0.00  0.00    +0.076 A 
ATOM     27  C   UNL     1       0.091  -5.568  -1.286  0.00  0.00    +0.136 A 
ATOM     28  N   UNL     1      -0.243  -6.742  -0.781  0.00  0.00    -0.257 NA
ATOM     29  C   UNL     1       0.570  -7.775  -0.917  0.00  0.00    +0.056 A 
ATOM     30  C   UNL     1       1.768  -7.629  -1.593  0.00  0.00    +0.134 A 
ATOM     31  N   UNL     1       2.100  -6.456  -2.103  0.00  0.00    -0.255 NA
ATOM     32  C   UNL     1       0.191  -9.113  -0.336  0.00  0.00    +0.067 C 
ENDBRANCH  25  26
ENDBRANCH  23  25
ENDBRANCH  20  21
ENDBRANCH   6  20
TORSDOF 7
