REMARK  Name = ZINC08387445
REMARK  9 active torsions:
REMARK  status: ('A' for Active; 'I' for Inactive)
REMARK    1  A    between atoms: C_1  and  C_2
REMARK    2  A    between atoms: C_2  and  C_25
REMARK    3  A    between atoms: N_3  and  O_4
REMARK    4  A    between atoms: O_4  and  C_5
REMARK    5  A    between atoms: C_5  and  C_6
REMARK    6  A    between atoms: C_18  and  C_23
REMARK    7  A    between atoms: C_18  and  C_24
REMARK    8  A    between atoms: C_19  and  C_21
REMARK    9  A    between atoms: C_19  and  C_22
REMARK                            x       y       z     vdW  Elec       q    Type
REMARK                         _______ _______ _______ _____ _____    ______ ____
ROOT
ATOM      1  C   UNL     1       1.566   7.002   2.391  0.00  0.00    +0.192 A 
ATOM      2  N   UNL     1       0.860   5.904   2.139  0.00  0.00    -0.207 NA
ATOM      3  C   UNL     1      -0.114   5.795   3.022  0.00  0.00    +0.168 A 
ATOM      4  C   UNL     1      -1.185   4.803   3.233  0.00  0.00    +0.055 A 
ATOM      5  C   UNL     1      -1.484   3.594   2.481  0.00  0.00    -0.027 A 
ATOM      6  C   UNL     1      -2.539   2.851   2.888  0.00  0.00    -0.016 A 
ATOM      7  S   UNL     1      -3.184   3.717   4.292  0.00  0.00    -0.075 S 
ATOM      8  C   UNL     1      -2.036   5.071   4.320  0.00  0.00    +0.114 A 
ATOM      9  N   UNL     1      -1.877   6.140   5.091  0.00  0.00    -0.228 NA
ATOM     10  C   UNL     1      -0.923   7.006   4.889  0.00  0.00    +0.226 A 
ATOM     11  N   UNL     1      -0.033   6.861   3.871  0.00  0.00    -0.201 N 
ATOM     12  N   UNL     1       1.063   7.618   3.433  0.00  0.00    -0.145 NA
ATOM     13  C   UNL     1      -3.028   1.584   2.265  0.00  0.00    -0.041 C 
ATOM     14  C   UNL     1      -0.734   1.582   1.275  0.00  0.00    -0.069 C 
ATOM     15  C   UNL     1      -0.686   3.114   1.273  0.00  0.00    +0.024 C 
ATOM     16  C   UNL     1      -0.013   1.086   0.008  0.00  0.00    -0.010 C 
ATOM     17  C   UNL     1       0.035   1.056   2.491  0.00  0.00    -0.010 C 
ATOM     18  C   UNL     1      -3.253   0.533   3.361  0.00  0.00    -0.005 C 
ATOM     19  C   UNL     1      -4.384   1.865   1.591  0.00  0.00    -0.005 C 
ATOM     20  N   UNL     1      -2.114   1.036   1.221  0.00  0.00    +0.389 N 
ATOM     21  H   UNL     1      -2.511   1.252   0.299  0.00  0.00    -0.084 HD
ATOM     22  H   UNL     1      -2.062   0.017   1.341  0.00  0.00    -0.084 HD
ENDROOT
BRANCH   1  23
ATOM     23  C   UNL     1       2.760   7.468   1.598  0.00  0.00    +0.340 C 
BRANCH  23  24
ATOM     24  O   UNL     1       2.325   8.322   0.539  0.00  0.00    -0.386 OA
BRANCH  24  27
ATOM     25  C   UNL     1       1.688   9.990  -1.561  0.00  0.00    +0.069 C 
ATOM     26  C   UNL     1       3.113   9.602  -1.265  0.00  0.00    +0.084 C 
ATOM     27  N   UNL     1       3.377   8.817  -0.271  0.00  0.00    -0.089 NA
BRANCH  26  28
ATOM     28  C   UNL     1       4.209  10.117  -2.108  0.00  0.00    -0.001 A 
ATOM     29  C   UNL     1       3.928  10.960  -3.185  0.00  0.00    +0.011 A 
ATOM     30  C   UNL     1       4.957  11.443  -3.966  0.00  0.00    +0.016 A 
ATOM     31  C   UNL     1       6.266  11.085  -3.692  0.00  0.00    +0.018 A 
ATOM     32  C   UNL     1       6.551  10.245  -2.628  0.00  0.00    +0.016 A 
ATOM     33  C   UNL     1       5.531   9.759  -1.836  0.00  0.00    +0.011 A 
ATOM     34 BR   UNL     1       7.670  11.745  -4.772  0.00  0.00    -0.050 Br
ENDBRANCH  26  28
ENDBRANCH  24  27
ENDBRANCH  23  24
ENDBRANCH   1  23
TORSDOF 4
