REMARK  Name = ZINC45995761
REMARK  10 active torsions:
REMARK  status: ('A' for Active; 'I' for Inactive)
REMARK    1  A    between atoms: C_1  and  C_2
REMARK    2  A    between atoms: C_2  and  C_4
REMARK    3  A    between atoms: C_2  and  N_14
REMARK    4  A    between atoms: C_15  and  C_17
REMARK    5  A    between atoms: C_20  and  C_23
REMARK    6  A    between atoms: C_23  and  N_24
REMARK    7  A    between atoms: C_29  and  O_39
REMARK    8  A    between atoms: C_30  and  O_37
REMARK    9  A    between atoms: O_37  and  C_38
REMARK   10  A    between atoms: O_39  and  C_40
REMARK                            x       y       z     vdW  Elec       q    Type
REMARK                         _______ _______ _______ _____ _____    ______ ____
ROOT
ATOM      1  C   UNL     1       2.769  -1.090   2.372  0.00  0.00    +0.037 A 
ATOM      2  C   UNL     1       2.055  -1.444   3.518  0.00  0.00    +0.013 A 
ATOM      3  C   UNL     1       2.729  -1.901   4.632  0.00  0.00    +0.006 A 
ATOM      4  C   UNL     1       4.108  -2.007   4.615  0.00  0.00    -0.027 A 
ATOM      5  C   UNL     1       4.821  -1.657   3.482  0.00  0.00    +0.006 A 
ATOM      6  C   UNL     1       4.160  -1.205   2.359  0.00  0.00    +0.013 A 
ENDROOT
BRANCH   1   8
ATOM      7  N   UNL     1       0.711  -0.489   1.189  0.00  0.00    -0.308 N 
ATOM      8  C   UNL     1       2.054  -0.600   1.174  0.00  0.00    +0.244 C 
ATOM      9  O   UNL     1       2.677  -0.297   0.175  0.00  0.00    -0.270 OA
ATOM     10  H   UNL     1       0.213  -0.731   1.986  0.00  0.00    +0.149 HD
BRANCH   7  12
ATOM     11  C   UNL     1      -0.019   1.526   0.010  0.00  0.00    +0.028 C 
ATOM     12  C   UNL     1       0.002  -0.004   0.002  0.00  0.00    +0.076 C 
BRANCH  12  13
ATOM     13  C   UNL     1      -1.433  -0.534   0.013  0.00  0.00    -0.010 C 
ATOM     14  C   UNL     1      -2.149  -0.040   1.272  0.00  0.00    +0.012 C 
ATOM     15  C   UNL     1      -3.585  -0.570   1.282  0.00  0.00    -0.010 C 
ATOM     16  C   UNL     1      -4.325  -0.063   0.043  0.00  0.00    +0.007 C 
ATOM     17  C   UNL     1      -3.609  -0.556  -1.216  0.00  0.00    -0.010 C 
ATOM     18  C   UNL     1      -2.173  -0.027  -1.227  0.00  0.00    +0.012 C 
ATOM     19  C   UNL     1      -3.588  -2.086  -1.224  0.00  0.00    +0.007 C 
ATOM     20  C   UNL     1      -2.848  -2.593   0.015  0.00  0.00    -0.010 C 
ATOM     21  C   UNL     1      -3.564  -2.100   1.274  0.00  0.00    +0.007 C 
ATOM     22  C   UNL     1      -1.413  -2.063   0.004  0.00  0.00    +0.012 C 
ENDBRANCH  12  13
ENDBRANCH   7  12
ENDBRANCH   1   8
BRANCH   4  23
ATOM     23  C   UNL     1       4.837  -2.507   5.836  0.00  0.00    +0.165 C 
BRANCH  23  24
ATOM     24  N   UNL     1       4.967  -3.964   5.765  0.00  0.00    -0.256 N 
ATOM     25  C   UNL     1       3.997  -4.742   6.292  0.00  0.00    +0.265 A 
ATOM     26  O   UNL     1       3.021  -4.247   6.822  0.00  0.00    -0.267 OA
ATOM     27  C   UNL     1       4.150  -6.203   6.208  0.00  0.00    +0.067 A 
ATOM     28  C   UNL     1       3.189  -7.070   6.730  0.00  0.00    +0.064 A 
ATOM     29  C   UNL     1       3.377  -8.434   6.628  0.00  0.00    +0.162 A 
ATOM     30  C   UNL     1       4.520  -8.943   6.007  0.00  0.00    +0.163 A 
ATOM     31  C   UNL     1       5.478  -8.087   5.487  0.00  0.00    +0.076 A 
ATOM     32  C   UNL     1       5.301  -6.717   5.583  0.00  0.00    +0.059 A 
ATOM     33  N   UNL     1       6.238  -5.827   5.074  0.00  0.00    -0.307 N 
ATOM     34  H   UNL     1       7.036  -6.166   4.640  0.00  0.00    +0.170 HD
ATOM     35  C   UNL     1       6.046  -4.500   5.172  0.00  0.00    +0.330 A 
ATOM     36  O   UNL     1       6.887  -3.754   4.709  0.00  0.00    -0.246 OA
BRANCH  30  37
ATOM     37  O   UNL     1       4.694 -10.286   5.912  0.00  0.00    -0.491 OA
ATOM     38  C   UNL     1       5.884 -10.742   5.266  0.00  0.00    +0.277 C 
ENDBRANCH  30  37
BRANCH  29  39
ATOM     39  O   UNL     1       2.444  -9.286   7.134  0.00  0.00    -0.491 OA
ATOM     40  C   UNL     1       1.299  -8.699   7.756  0.00  0.00    +0.277 C 
ENDBRANCH  29  39
ENDBRANCH  23  24
ENDBRANCH   4  23
TORSDOF 7
