REMARK  Name = ZINC06198084
REMARK  13 active torsions:
REMARK  status: ('A' for Active; 'I' for Inactive)
REMARK    1  A    between atoms: C_1  and  C_2
REMARK    2  A    between atoms: C_2  and  C_3
REMARK    3  A    between atoms: C_10  and  C_15
REMARK    4  A    between atoms: C_15  and  C_17
REMARK    5  A    between atoms: C_15  and  N_73
REMARK    6  A    between atoms: N_21  and  C_22
REMARK    7  A    between atoms: C_22  and  C_23
REMARK    8  A    between atoms: C_26  and  O_29
REMARK    9  A    between atoms: O_29  and  C_30
REMARK   10  A    between atoms: C_33  and  C_36
REMARK   11  A    between atoms: C_36  and  O_38
REMARK   12  A    between atoms: O_38  and  C_39
REMARK   13  A    between atoms: C_39  and  C_40
REMARK                            x       y       z     vdW  Elec       q    Type
REMARK                         _______ _______ _______ _____ _____    ______ ____
ROOT
ATOM      1  C   UNL     1       1.715   2.133   2.522  0.00  0.00    +0.039 C 
ENDROOT
BRANCH   1   9
ATOM      2  C   UNL     1       0.939   8.270   2.661  0.00  0.00    -0.047 A 
ATOM      3  C   UNL     1       0.531   8.345   3.987  0.00  0.00    +0.005 A 
ATOM      4  C   UNL     1       0.434   7.208   4.758  0.00  0.00    +0.026 A 
ATOM      5  C   UNL     1       0.748   5.970   4.206  0.00  0.00    +0.049 A 
ATOM      6  C   UNL     1       1.161   5.898   2.862  0.00  0.00    -0.001 A 
ATOM      7  C   UNL     1       1.251   7.066   2.098  0.00  0.00    +0.013 A 
ATOM      8  C   UNL     1       1.494   4.591   2.292  0.00  0.00    +0.017 A 
ATOM      9  C   UNL     1       1.384   3.493   3.079  0.00  0.00    +0.011 A 
ATOM     10  C   UNL     1       0.965   3.620   4.421  0.00  0.00    +0.251 A 
ATOM     11  O   UNL     1       0.876   2.621   5.113  0.00  0.00    -0.268 OA
ATOM     12  N   UNL     1       0.661   4.816   4.955  0.00  0.00    -0.322 N 
ATOM     13  H   UNL     1       0.368   4.870   5.910  0.00  0.00    +0.169 HD
BRANCH   2  15
ATOM     14  C   UNL     1      -0.303   9.790   1.146  0.00  0.00    +0.009 C 
ATOM     15  C   UNL     1       1.036   9.528   1.837  0.00  0.00    +0.032 C 
ENDBRANCH   2  15
ENDBRANCH   1   9
BRANCH   1  21
ATOM     16  C   UNL     1       3.980   2.413   3.328  0.00  0.00    -0.077 C 
ATOM     17  C   UNL     1       5.037   1.829   4.269  0.00  0.00    -0.004 C 
ATOM     18  C   UNL     1       5.430   0.431   3.782  0.00  0.00    +0.094 C 
ATOM     19  C   UNL     1       4.179  -0.450   3.721  0.00  0.00    -0.004 C 
ATOM     20  C   UNL     1       3.147   0.200   2.797  0.00  0.00    -0.077 C 
ATOM     21  N   UNL     1       2.793   1.532   3.334  0.00  0.00    +0.389 N 
ATOM     22  H   UNL     1       2.463   1.424   4.300  0.00  0.00    -0.080 HD
BRANCH  18  23
ATOM     23  C   UNL     1       6.426  -0.174   4.736  0.00  0.00    +0.310 C 
ATOM     24  O   UNL     1       6.164  -1.205   5.310  0.00  0.00    -0.251 OA
BRANCH  23  25
ATOM     25  O   UNL     1       7.605   0.431   4.949  0.00  0.00    -0.465 OA
BRANCH  25  26
ATOM     26  C   UNL     1       8.516  -0.209   5.881  0.00  0.00    +0.229 C 
ATOM     27  C   UNL     1       9.797   0.621   5.993  0.00  0.00    +0.048 C 
ENDBRANCH  25  26
ENDBRANCH  23  25
ENDBRANCH  18  23
ENDBRANCH   1  21
BRANCH   1  28
ATOM     28  C   UNL     1       2.147   2.271   1.085  0.00  0.00    +0.143 A 
ATOM     29  N   UNL     1       3.300   2.720   0.654  0.00  0.00    -0.115 NA
ATOM     30  N   UNL     1       3.284   2.688  -0.634  0.00  0.00    -0.023 NA
ATOM     31  N   UNL     1       2.152   2.225  -1.036  0.00  0.00    -0.044 NA
ATOM     32  N   UNL     1       1.425   1.953  -0.005  0.00  0.00    -0.226 N 
BRANCH  32  33
ATOM     33  C   UNL     1       0.066   1.407  -0.020  0.00  0.00    +0.182 C 
BRANCH  33  34
ATOM     34  C   UNL     1       0.129  -0.099   0.001  0.00  0.00    -0.026 A 
ATOM     35  C   UNL     1       0.172  -0.805  -1.187  0.00  0.00    +0.009 A 
ATOM     36  C   UNL     1       0.235  -2.185  -1.170  0.00  0.00    +0.046 A 
ATOM     37  C   UNL     1       0.245  -2.863   0.040  0.00  0.00    +0.120 A 
ATOM     38  C   UNL     1       0.197  -2.152   1.231  0.00  0.00    +0.046 A 
ATOM     39  C   UNL     1       0.139  -0.772   1.209  0.00  0.00    +0.009 A 
BRANCH  37  40
ATOM     40  O   UNL     1       0.303  -4.220   0.059  0.00  0.00    -0.495 OA
ATOM     41  C   UNL     1       0.351  -4.886  -1.204  0.00  0.00    +0.277 C 
ENDBRANCH  37  40
ENDBRANCH  33  34
ENDBRANCH  32  33
ENDBRANCH   1  28
TORSDOF 10
