REMARK  Name = ZINC12369285
REMARK  8 active torsions:
REMARK  status: ('A' for Active; 'I' for Inactive)
REMARK    1  A    between atoms: C_1  and  C_2
REMARK    2  A    between atoms: C_5  and  S_8
REMARK    3  A    between atoms: S_8  and  N_11
REMARK    4  A    between atoms: N_14  and  C_15
REMARK    5  A    between atoms: C_18  and  S_28
REMARK    6  A    between atoms: C_20  and  S_21
REMARK    7  A    between atoms: S_21  and  C_22
REMARK    8  A    between atoms: S_28  and  C_29
REMARK                            x       y       z     vdW  Elec       q    Type
REMARK                         _______ _______ _______ _____ _____    ______ ____
ROOT
ATOM      1  C   UNL     1      -4.464   6.204  -0.338  0.00  0.00    +0.067 A 
ATOM      2  C   UNL     1      -3.651   7.326  -0.448  0.00  0.00    +0.028 A 
ATOM      3  C   UNL     1      -2.300   7.194  -0.171  0.00  0.00    +0.037 A 
ATOM      4  C   UNL     1      -1.801   5.953   0.206  0.00  0.00    +0.103 A 
ATOM      5  N   UNL     1      -2.600   4.899   0.297  0.00  0.00    -0.232 NA
ATOM      6  C   UNL     1      -3.897   4.989   0.045  0.00  0.00    +0.124 A 
ENDROOT
BRANCH   1  10
ATOM      7  N   UNL     1      -7.592   7.159  -1.886  0.00  0.00    -0.169 N 
ATOM      8  C   UNL     1      -6.285   7.146  -1.554  0.00  0.00    +0.323 C 
ATOM      9  O   UNL     1      -5.510   7.902  -2.106  0.00  0.00    -0.251 OA
ATOM     10  N   UNL     1      -5.839   6.293  -0.610  0.00  0.00    -0.266 N 
ATOM     11  H   UNL     1      -8.210   6.556  -1.445  0.00  0.00    +0.178 HD
ATOM     12  H   UNL     1      -6.467   5.741  -0.118  0.00  0.00    +0.156 HD
BRANCH   7  13
ATOM     13  S   UNL     1      -8.140   8.206  -3.045  0.00  0.00    +0.076 S 
ATOM     14  O   UNL     1      -9.533   7.963  -3.186  0.00  0.00    -0.150 OA
ATOM     15  O   UNL     1      -7.620   9.487  -2.715  0.00  0.00    -0.150 OA
BRANCH  13  20
ATOM     16  C   UNL     1      -5.575   6.595  -8.263  0.00  0.00    +0.044 C 
ATOM     17  C   UNL     1      -6.216   6.997  -6.960  0.00  0.00    -0.050 A 
ATOM     18  C   UNL     1      -7.429   6.449  -6.588  0.00  0.00    +0.005 A 
ATOM     19  C   UNL     1      -8.017   6.819  -5.393  0.00  0.00    +0.029 A 
ATOM     20  C   UNL     1      -7.391   7.736  -4.569  0.00  0.00    +0.109 A 
ATOM     21  C   UNL     1      -6.180   8.287  -4.943  0.00  0.00    +0.029 A 
ATOM     22  C   UNL     1      -5.590   7.915  -6.136  0.00  0.00    +0.005 A 
ENDBRANCH  13  20
ENDBRANCH   7  13
ENDBRANCH   1  10
BRANCH   6  23
ATOM     23  S   UNL     1      -4.915   3.557   0.189  0.00  0.00    -0.068 S 
BRANCH  23  24
ATOM     24  C   UNL     1      -4.385   2.522  -1.135  0.00  0.00    +0.014 A 
ATOM     25  C   UNL     1      -3.316   2.908  -1.936  0.00  0.00    +0.015 A 
ATOM     26  C   UNL     1      -2.901   2.093  -2.969  0.00  0.00    +0.001 A 
ATOM     27  C   UNL     1      -3.553   0.898  -3.215  0.00  0.00    +0.000 A 
ATOM     28  C   UNL     1      -4.620   0.513  -2.423  0.00  0.00    +0.001 A 
ATOM     29  C   UNL     1      -5.038   1.321  -1.385  0.00  0.00    +0.015 A 
ENDBRANCH  23  24
ENDBRANCH   6  23
BRANCH   4  30
ATOM     30  S   UNL     1      -0.084   5.776   0.559  0.00  0.00    -0.070 S 
BRANCH  30  31
ATOM     31  C   UNL     1      -0.051   5.082   2.178  0.00  0.00    +0.014 A 
ATOM     32  C   UNL     1       1.155   4.675   2.738  0.00  0.00    +0.015 A 
ATOM     33  C   UNL     1       1.176   4.132   4.007  0.00  0.00    +0.001 A 
ATOM     34  C   UNL     1       0.001   3.992   4.721  0.00  0.00    +0.000 A 
ATOM     35  C   UNL     1      -1.202   4.391   4.166  0.00  0.00    +0.001 A 
ATOM     36  C   UNL     1      -1.230   4.940   2.899  0.00  0.00    +0.015 A 
ENDBRANCH  30  31
ENDBRANCH   4  30
TORSDOF 7
