REMARK  Name = ZINC39674121
REMARK  8 active torsions:
REMARK  status: ('A' for Active; 'I' for Inactive)
REMARK    1  A    between atoms: C_1  and  C_2
REMARK    2  A    between atoms: C_4  and  C_12
REMARK    3  A    between atoms: C_12  and  C_13
REMARK    4  A    between atoms: C_13  and  N_14
REMARK    5  A    between atoms: C_15  and  C_17
REMARK    6  A    between atoms: C_28  and  C_30
REMARK    7  A    between atoms: C_33  and  C_37
REMARK    8  A    between atoms: N_34  and  C_36
REMARK                            x       y       z     vdW  Elec       q    Type
REMARK                         _______ _______ _______ _____ _____    ______ ____
ROOT
ATOM      1  C   UNL     1      -5.411   3.612   3.667  0.00  0.00    +0.100 C 
ATOM      2  C   UNL     1      -4.990   2.443   4.585  0.00  0.00    +0.121 C 
ATOM      3  N   UNL     1      -4.247   3.086   5.694  0.00  0.00    -0.299 N 
ATOM      4  C   UNL     1      -5.004   4.330   5.972  0.00  0.00    +0.115 C 
ATOM      5  C   UNL     1      -5.422   4.848   4.582  0.00  0.00    -0.004 C 
ATOM      6  C   UNL     1      -4.420   5.884   4.082  0.00  0.00    -0.010 C 
ATOM      7  C   UNL     1      -4.490   7.127   4.974  0.00  0.00    -0.082 C 
ATOM      8  N   UNL     1      -5.850   7.678   4.942  0.00  0.00    +0.379 N 
ATOM      9  C   UNL     1      -6.796   6.710   5.511  0.00  0.00    -0.082 C 
ATOM     10  C   UNL     1      -6.823   5.449   4.641  0.00  0.00    -0.010 C 
ATOM     11  C   UNL     1      -3.134   2.641   6.310  0.00  0.00    +0.238 C 
ATOM     12  O   UNL     1      -2.639   3.287   7.210  0.00  0.00    -0.273 OA
ATOM     13  H   UNL     1      -5.879   8.530   5.482  0.00  0.00    -0.086 HD
ATOM     14  H   UNL     1      -6.109   7.878   3.988  0.00  0.00    -0.086 HD
ENDROOT
BRANCH  11  15
ATOM     15  C   UNL     1      -2.504   1.341   5.882  0.00  0.00    +0.183 C 
ATOM     16  C   UNL     1      -3.451   0.187   6.129  0.00  0.00    +0.022 C 
ATOM     17  C   UNL     1      -2.856  -0.619   6.984  0.00  0.00    +0.017 C 
ATOM     18  N   UNL     1      -1.611  -0.146   7.350  0.00  0.00    -0.274 N 
ATOM     19  N   UNL     1      -1.328   1.036   6.721  0.00  0.00    -0.225 NA
ATOM     20  C   UNL     1      -0.710  -0.822   8.287  0.00  0.00    +0.149 C 
ATOM     21  C   UNL     1      -3.460  -1.899   7.502  0.00  0.00    +0.061 C 
ATOM     22  H   UNL     1      -0.493   0.958   6.160  0.00  0.00    +0.146 HD
ENDBRANCH  11  15
BRANCH   1  24
ATOM     23  N   UNL     1      -4.804   4.306   1.372  0.00  0.00    -0.315 N 
ATOM     24  C   UNL     1      -4.411   3.791   2.554  0.00  0.00    +0.218 C 
ATOM     25  O   UNL     1      -3.253   3.473   2.722  0.00  0.00    -0.275 OA
ATOM     26  H   UNL     1      -5.730   4.561   1.238  0.00  0.00    +0.149 HD
BRANCH  23  27
ATOM     27  C   UNL     1      -3.831   4.480   0.290  0.00  0.00    +0.109 C 
BRANCH  27  28
ATOM     28  C   UNL     1      -4.531   5.078  -0.933  0.00  0.00    +0.056 C 
BRANCH  28  32
ATOM     29  C   UNL     1      -3.832   2.987  -3.117  0.00  0.00    +0.063 C 
ATOM     30  C   UNL     1      -3.222   4.360  -2.994  0.00  0.00    +0.017 A 
ATOM     31  H   UNL     1      -1.884   4.407  -4.589  0.00  0.00    +0.166 HD
ATOM     32  C   UNL     1      -3.530   5.258  -2.046  0.00  0.00    -0.018 A 
ATOM     33  C   UNL     1      -2.711   6.445  -2.297  0.00  0.00    +0.003 A 
ATOM     34  C   UNL     1      -2.581   7.685  -1.669  0.00  0.00    +0.010 A 
ATOM     35  C   UNL     1      -1.701   8.607  -2.164  0.00  0.00    +0.001 A 
ATOM     36  C   UNL     1      -0.936   8.320  -3.286  0.00  0.00    +0.002 A 
ATOM     37  C   UNL     1      -1.049   7.103  -3.921  0.00  0.00    +0.026 A 
ATOM     38  C   UNL     1      -1.938   6.150  -3.435  0.00  0.00    +0.047 A 
ATOM     39  N   UNL     1      -2.268   4.873  -3.830  0.00  0.00    -0.358 N 
ENDBRANCH  28  32
ENDBRANCH  27  28
ENDBRANCH  23  27
ENDBRANCH   1  24
TORSDOF 5
