REMARK  Name = ZINC08648551
REMARK  11 active torsions:
REMARK  status: ('A' for Active; 'I' for Inactive)
REMARK    1  A    between atoms: C_3  and  O_27
REMARK    2  A    between atoms: C_6  and  N_7
REMARK    3  A    between atoms: C_8  and  C_10
REMARK    4  A    between atoms: C_10  and  S_11
REMARK    5  A    between atoms: S_11  and  C_12
REMARK    6  A    between atoms: C_12  and  C_13
REMARK    7  A    between atoms: N_15  and  N_16
REMARK    8  A    between atoms: N_16  and  C_17
REMARK    9  A    between atoms: C_17  and  N_19
REMARK   10  A    between atoms: N_19  and  C_20
REMARK   11  A    between atoms: O_27  and  C_28
REMARK                            x       y       z     vdW  Elec       q    Type
REMARK                         _______ _______ _______ _____ _____    ______ ____
ROOT
ATOM      1  C   UNL     1       3.444  -2.577   0.352  0.00  0.00    +0.166 C 
ENDROOT
BRANCH   1   2
ATOM      2  C   UNL     1       3.512  -1.275  -0.404  0.00  0.00    +0.239 C 
ATOM      3  O   UNL     1       4.553  -0.926  -0.918  0.00  0.00    -0.273 OA
ATOM      4  N   UNL     1       2.415  -0.500  -0.509  0.00  0.00    -0.234 N 
ATOM      5  H   UNL     1       1.582  -0.779  -0.098  0.00  0.00    +0.173 HD
BRANCH   4   6
ATOM      6  N   UNL     1       2.477   0.711  -1.212  0.00  0.00    -0.246 N 
ATOM      7  H   UNL     1       3.310   0.990  -1.623  0.00  0.00    +0.172 HD
BRANCH   6   8
ATOM      8  C   UNL     1       1.380   1.486  -1.318  0.00  0.00    +0.151 C 
ATOM      9  S   UNL     1       1.457   2.965  -2.177  0.00  0.00    -0.017 S 
BRANCH   8  10
ATOM     10  N   UNL     1       0.223   1.098  -0.747  0.00  0.00    -0.296 N 
ATOM     11  H   UNL     1       0.164   0.234  -0.310  0.00  0.00    +0.154 HD
BRANCH  10  12
ATOM     12  C   UNL     1      -0.895   1.939  -0.788  0.00  0.00    +0.033 A 
ATOM     13  C   UNL     1      -1.652   2.147   0.357  0.00  0.00    +0.025 A 
ATOM     14  C   UNL     1      -2.752   2.981   0.314  0.00  0.00    +0.022 A 
ATOM     15  C   UNL     1      -3.106   3.601  -0.871  0.00  0.00    +0.041 A 
ATOM     16  C   UNL     1      -2.356   3.392  -2.015  0.00  0.00    +0.022 A 
ATOM     17  C   UNL     1      -1.252   2.563  -1.976  0.00  0.00    +0.025 A 
ATOM     18 CL   UNL     1      -4.492   4.645  -0.923  0.00  0.00    -0.084 Cl
ENDBRANCH  10  12
ENDBRANCH   8  10
ENDBRANCH   6   8
ENDBRANCH   4   6
ENDBRANCH   1   2
BRANCH   1  19
ATOM     19  S   UNL     1       5.069  -3.383   0.315  0.00  0.00    -0.142 S 
BRANCH  19  20
ATOM     20  C   UNL     1       4.821  -4.914   1.256  0.00  0.00    +0.165 C 
BRANCH  20  22
ATOM     21  N   UNL     1       6.167  -6.869   1.952  0.00  0.00    -0.285 N 
ATOM     22  C   UNL     1       6.112  -5.690   1.302  0.00  0.00    +0.227 C 
ATOM     23  O   UNL     1       7.103  -5.253   0.754  0.00  0.00    -0.275 OA
ATOM     24  H   UNL     1       5.356  -7.265   2.307  0.00  0.00    +0.155 HD
BRANCH  21  30
ATOM     25  C   UNL     1       7.453  -8.910   2.088  0.00  0.00    +0.027 A 
ATOM     26  C   UNL     1       8.665  -9.553   2.244  0.00  0.00    +0.048 A 
ATOM     27  C   UNL     1       9.823  -8.815   2.439  0.00  0.00    +0.130 A 
ATOM     28  C   UNL     1       9.765  -7.429   2.470  0.00  0.00    +0.048 A 
ATOM     29  C   UNL     1       8.555  -6.784   2.309  0.00  0.00    +0.027 A 
ATOM     30  C   UNL     1       7.396  -7.523   2.115  0.00  0.00    +0.034 A 
BRANCH  27  31
ATOM     31  O   UNL     1      11.015  -9.449   2.598  0.00  0.00    -0.406 OA
BRANCH  31  32
ATOM     32  C   UNL     1      11.001 -10.877   2.554  0.00  0.00    +0.575 C 
ATOM     33  F   UNL     1      10.512 -11.301   1.314  0.00  0.00    -0.133 F 
ATOM     34  F   UNL     1      12.301 -11.362   2.734  0.00  0.00    -0.133 F 
ATOM     35  F   UNL     1      10.176 -11.367   3.572  0.00  0.00    -0.133 F 
ENDBRANCH  31  32
ENDBRANCH  27  31
ENDBRANCH  21  30
ENDBRANCH  20  22
ENDBRANCH  19  20
ENDBRANCH   1  19
TORSDOF 11
