REMARK  Name = ZINC06284042
REMARK  9 active torsions:
REMARK  status: ('A' for Active; 'I' for Inactive)
REMARK    1  A    between atoms: C_1  and  C_2
REMARK    2  A    between atoms: C_2  and  C_3
REMARK    3  A    between atoms: C_6  and  C_8
REMARK    4  A    between atoms: C_10  and  C_33
REMARK    5  A    between atoms: C_11  and  N_32
REMARK    6  A    between atoms: N_12  and  C_22
REMARK    7  A    between atoms: C_18  and  C_20
REMARK    8  A    between atoms: C_18  and  C_21
REMARK    9  A    between atoms: C_26  and  N_28
REMARK                            x       y       z     vdW  Elec       q    Type
REMARK                         _______ _______ _______ _____ _____    ______ ____
ROOT
ATOM      1  C   UNL     1      -4.790  -0.366   0.633  0.00  0.00    +0.104 C 
ATOM      2  C   UNL     1      -3.563  -1.027   0.078  0.00  0.00    +0.077 C 
ATOM      3  C   UNL     1      -2.408  -0.332  -0.098  0.00  0.00    +0.107 C 
ATOM      4  N   UNL     1      -2.349   1.002   0.239  0.00  0.00    -0.260 N 
ATOM      5  C   UNL     1      -3.496   1.741   0.359  0.00  0.00    +0.025 C 
ATOM      6  C   UNL     1      -4.689   1.136   0.538  0.00  0.00    +0.026 C 
ATOM      7  C   UNL     1      -5.873   1.886   0.646  0.00  0.00    +0.162 C 
ATOM      8  O   UNL     1      -6.930   1.311   0.816  0.00  0.00    -0.292 OA
ATOM      9  C   UNL     1      -5.857   3.388   0.556  0.00  0.00    +0.086 C 
ATOM     10  C   UNL     1      -4.673   3.822  -0.314  0.00  0.00    -0.023 C 
ATOM     11  C   UNL     1      -3.390   3.245   0.290  0.00  0.00    +0.058 C 
ATOM     12  C   UNL     1      -4.856   3.290  -1.736  0.00  0.00    +0.011 C 
ATOM     13  C   UNL     1      -4.590   5.350  -0.343  0.00  0.00    +0.011 C 
ENDROOT
BRANCH   4  14
ATOM     14  C   UNL     1      -1.106   1.609   0.455  0.00  0.00    +0.042 A 
ATOM     15  C   UNL     1      -0.400   2.149  -0.613  0.00  0.00    +0.025 A 
ATOM     16  C   UNL     1       0.828   2.742  -0.398  0.00  0.00    +0.024 A 
ATOM     17  C   UNL     1       1.353   2.804   0.881  0.00  0.00    +0.071 A 
ATOM     18  C   UNL     1       0.650   2.272   1.948  0.00  0.00    +0.146 A 
ATOM     19  C   UNL     1      -0.579   1.678   1.738  0.00  0.00    +0.058 A 
ATOM     20 CL   UNL     1       2.898   3.551   1.148  0.00  0.00    -0.081 Cl
BRANCH  18  21
ATOM     21  N   UNL     1       1.214   2.341   3.314  0.00  0.00    +0.058 N 
ATOM     22  O   UNL     1       0.595   1.874   4.253  0.00  0.00    -0.126 OA
ATOM     23  O   UNL     1       2.298   2.865   3.499  0.00  0.00    -0.126 OA
ENDBRANCH  18  21
ENDBRANCH   4  14
BRANCH   1  27
ATOM     24  C   UNL     1      -4.827  -1.252   4.728  0.00  0.00    -0.010 A 
ATOM     25  C   UNL     1      -5.903  -1.687   4.028  0.00  0.00    +0.011 A 
ATOM     26  C   UNL     1      -5.970  -1.430   2.672  0.00  0.00    +0.012 A 
ATOM     27  C   UNL     1      -4.952  -0.760   2.079  0.00  0.00    +0.003 A 
ATOM     28  S   UNL     1      -3.857  -0.458   3.456  0.00  0.00    -0.097 S 
BRANCH  24  30
ATOM     29  C   UNL     1      -3.749  -2.697   6.430  0.00  0.00    +0.009 C 
ATOM     30  C   UNL     1      -4.526  -1.400   6.197  0.00  0.00    +0.039 C 
ENDBRANCH  24  30
ENDBRANCH   1  27
BRANCH   3  31
ATOM     31  N   UNL     1      -1.297  -0.960  -0.608  0.00  0.00    -0.345 N 
ATOM     32  H   UNL     1      -0.502  -0.446  -0.816  0.00  0.00    +0.144 HD
ATOM     33  H   UNL     1      -1.308  -1.918  -0.758  0.00  0.00    +0.144 HD
ENDBRANCH   3  31
BRANCH   2  34
ATOM     34  C   UNL     1      -3.611  -2.413  -0.279  0.00  0.00    +0.099 C 
ATOM     35  N   UNL     1      -3.649  -3.513  -0.561  0.00  0.00    -0.191 NA
ENDBRANCH   2  34
TORSDOF 6
