REMARK  Name = ZINC35711912
REMARK  10 active torsions:
REMARK  status: ('A' for Active; 'I' for Inactive)
REMARK    1  A    between atoms: C_1  and  C_2
REMARK    2  A    between atoms: C_2  and  C_3
REMARK    3  A    between atoms: C_3  and  N_4
REMARK    4  A    between atoms: C_5  and  C_34
REMARK    5  A    between atoms: C_6  and  C_30
REMARK    6  A    between atoms: C_7  and  C_12
REMARK    7  A    between atoms: C_15  and  N_18
REMARK    8  A    between atoms: N_21  and  C_22
REMARK    9  A    between atoms: C_30  and  O_32
REMARK   10  A    between atoms: O_32  and  C_33
REMARK                            x       y       z     vdW  Elec       q    Type
REMARK                         _______ _______ _______ _____ _____    ______ ____
ROOT
ATOM      1  C   UNL     1      -2.897  -5.725  -0.109  0.00  0.00    -0.022 A 
ATOM      2  C   UNL     1      -4.092  -5.195   0.342  0.00  0.00    +0.007 A 
ATOM      3  C   UNL     1      -5.225  -5.984   0.386  0.00  0.00    +0.024 A 
ATOM      4  C   UNL     1      -5.163  -7.310  -0.022  0.00  0.00    +0.035 A 
ATOM      5  C   UNL     1      -3.961  -7.838  -0.475  0.00  0.00    +0.024 A 
ATOM      6  C   UNL     1      -2.833  -7.043  -0.522  0.00  0.00    +0.007 A 
ENDROOT
BRANCH   1  10
ATOM      7  N   UNL     1      -1.599  -2.100  -0.006  0.00  0.00    -0.259 N 
ATOM      8  C   UNL     1      -1.703  -2.662  -1.246  0.00  0.00    +0.024 C 
ATOM      9  C   UNL     1      -1.740  -4.003  -1.403  0.00  0.00    +0.078 C 
ATOM     10  C   UNL     1      -1.662  -4.861  -0.157  0.00  0.00    +0.143 C 
ATOM     11  N   UNL     1      -1.552  -4.157   1.132  0.00  0.00    -0.288 N 
ATOM     12  C   UNL     1      -1.522  -2.810   1.127  0.00  0.00    +0.307 C 
ATOM     13  O   UNL     1      -1.427  -2.220   2.185  0.00  0.00    -0.252 OA
ATOM     14  C   UNL     1      -1.778  -1.771  -2.459  0.00  0.00    +0.061 C 
ATOM     15  H   UNL     1      -1.498  -4.652   1.965  0.00  0.00    +0.151 HD
BRANCH   9  16
ATOM     16  C   UNL     1      -1.849  -4.586  -2.687  0.00  0.00    +0.339 C 
ATOM     17  O   UNL     1      -1.911  -3.877  -3.674  0.00  0.00    -0.245 OA
BRANCH  16  18
ATOM     18  O   UNL     1      -1.884  -5.929  -2.817  0.00  0.00    -0.465 OA
ATOM     19  C   UNL     1      -1.995  -6.449  -4.144  0.00  0.00    +0.280 C 
ENDBRANCH  16  18
ENDBRANCH   9  16
BRANCH   7  20
ATOM     20  C   UNL     1      -1.565  -0.639   0.090  0.00  0.00    +0.114 C 
BRANCH  20  22
ATOM     21  C   UNL     1      -2.958   1.433   0.187  0.00  0.00    +0.005 C 
ATOM     22  C   UNL     1      -2.994  -0.093   0.087  0.00  0.00    +0.016 C 
ENDBRANCH  20  22
ENDBRANCH   7  20
ENDBRANCH   1  10
BRANCH   4  23
ATOM     23  N   UNL     1      -6.309  -8.112   0.022  0.00  0.00    -0.269 N 
ATOM     24  C   UNL     1      -7.517  -7.576  -0.242  0.00  0.00    +0.308 C 
ATOM     25  O   UNL     1      -7.621  -6.381  -0.442  0.00  0.00    -0.252 OA
ATOM     26  N   UNL     1      -8.609  -8.364  -0.284  0.00  0.00    -0.268 N 
ATOM     27  H   UNL     1      -6.233  -9.053   0.243  0.00  0.00    +0.156 HD
ATOM     28  H   UNL     1      -8.540  -9.302  -0.043  0.00  0.00    +0.156 HD
BRANCH  26  29
ATOM     29  C   UNL     1      -9.843  -7.830  -0.675  0.00  0.00    +0.053 A 
ATOM     30  C   UNL     1      -9.895  -6.826  -1.632  0.00  0.00    +0.026 A 
ATOM     31  C   UNL     1     -11.114  -6.301  -2.016  0.00  0.00    +0.022 A 
ATOM     32  C   UNL     1     -12.283  -6.775  -1.447  0.00  0.00    +0.042 A 
ATOM     33  C   UNL     1     -12.235  -7.775  -0.492  0.00  0.00    +0.041 A 
ATOM     34  C   UNL     1     -11.019  -8.309  -0.109  0.00  0.00    +0.064 A 
ATOM     35 CL   UNL     1     -10.960  -9.569   1.084  0.00  0.00    -0.082 Cl
ATOM     36 CL   UNL     1     -13.812  -6.112  -1.931  0.00  0.00    -0.083 Cl
ENDBRANCH  26  29
ENDBRANCH   4  23
TORSDOF 7
