REMARK  Name = ZINC65025308
REMARK  8 active torsions:
REMARK  status: ('A' for Active; 'I' for Inactive)
REMARK    1  A    between atoms: C_1  and  C_2
REMARK    2  A    between atoms: C_4  and  C_35
REMARK    3  A    between atoms: C_5  and  S_9
REMARK    4  A    between atoms: C_6  and  C_8
REMARK    5  A    between atoms: S_9  and  N_12
REMARK    6  A    between atoms: N_12  and  C_13
REMARK    7  A    between atoms: C_15  and  C_25
REMARK    8  A    between atoms: N_27  and  C_28
REMARK                            x       y       z     vdW  Elec       q    Type
REMARK                         _______ _______ _______ _____ _____    ______ ____
ROOT
ATOM      1  C   UNL     1       0.706  -5.544   0.946  0.00  0.00    +0.067 A 
ATOM      2  C   UNL     1       2.075  -5.472   0.724  0.00  0.00    +0.042 A 
ATOM      3  C   UNL     1       2.930  -5.522   1.831  0.00  0.00    +0.078 A 
ATOM      4  C   UNL     1       2.371  -5.641   3.115  0.00  0.00    +0.133 A 
ATOM      5  N   UNL     1       1.059  -5.706   3.272  0.00  0.00    -0.238 NA
ATOM      6  C   UNL     1       0.231  -5.657   2.246  0.00  0.00    +0.137 A 
ATOM      7  N   UNL     1       3.200  -5.691   4.224  0.00  0.00    -0.318 N 
ATOM      8  C   UNL     1       3.594  -4.463   4.929  0.00  0.00    +0.087 C 
ATOM      9  C   UNL     1       3.325  -4.654   6.426  0.00  0.00    -0.063 C 
ATOM     10  N   UNL     1       4.007  -5.867   6.893  0.00  0.00    +0.381 N 
ATOM     11  C   UNL     1       3.435  -7.048   6.235  0.00  0.00    -0.063 C 
ATOM     12  C   UNL     1       3.705  -6.976   4.732  0.00  0.00    +0.087 C 
ATOM     13  H   UNL     1       4.990  -5.805   6.674  0.00  0.00    -0.086 HD
ATOM     14  H   UNL     1       3.893  -5.952   7.892  0.00  0.00    -0.086 HD
ENDROOT
BRANCH   3  15
ATOM     15  C   UNL     1       4.392  -5.450   1.654  0.00  0.00    +0.248 C 
ATOM     16  O   UNL     1       5.128  -5.591   2.611  0.00  0.00    -0.270 OA
ATOM     17  N   UNL     1       4.912  -5.227   0.431  0.00  0.00    -0.308 N 
ATOM     18  H   UNL     1       4.325  -5.114  -0.333  0.00  0.00    +0.149 HD
BRANCH  17  19
ATOM     19  C   UNL     1       6.365  -5.156   0.255  0.00  0.00    +0.073 C 
ATOM     20  C   UNL     1       6.845  -3.739   0.632  0.00  0.00    +0.022 C 
ATOM     21  C   UNL     1       8.315  -3.801   0.947  0.00  0.00    +0.002 C 
ATOM     22  C   UNL     1       9.193  -3.463  -0.273  0.00  0.00    +0.000 C 
ATOM     23  C   UNL     1       8.677  -4.101  -1.577  0.00  0.00    +0.000 C 
ATOM     24  C   UNL     1       8.211  -5.518  -1.379  0.00  0.00    +0.002 C 
ATOM     25  C   UNL     1       6.691  -5.503  -1.121  0.00  0.00    +0.022 C 
ENDBRANCH  17  19
ENDBRANCH   3  15
BRANCH   1  26
ATOM     26  N   UNL     1      -0.188  -5.499  -0.132  0.00  0.00    -0.215 N 
ATOM     27  H   UNL     1      -0.283  -6.267  -0.716  0.00  0.00    +0.174 HD
BRANCH  26  28
ATOM     28  S   UNL     1      -1.083  -4.133  -0.407  0.00  0.00    +0.073 S 
ATOM     29  O   UNL     1      -1.769  -3.846   0.803  0.00  0.00    -0.150 OA
ATOM     30  O   UNL     1      -1.763  -4.335  -1.639  0.00  0.00    -0.150 OA
BRANCH  28  35
ATOM     31  C   UNL     1       2.804   0.394  -1.303  0.00  0.00    +0.044 C 
ATOM     32  C   UNL     1       1.833  -0.737  -1.079  0.00  0.00    -0.050 A 
ATOM     33  C   UNL     1       1.339  -0.983   0.188  0.00  0.00    +0.008 A 
ATOM     34  C   UNL     1       0.449  -2.020   0.393  0.00  0.00    -0.023 A 
ATOM     35  C   UNL     1       0.051  -2.810  -0.669  0.00  0.00    +0.114 A 
ATOM     36  C   UNL     1       0.544  -2.563  -1.937  0.00  0.00    -0.023 A 
ATOM     37  C   UNL     1       1.431  -1.523  -2.143  0.00  0.00    +0.008 A 
ATOM     38  C   UNL     1       0.111  -3.425  -3.095  0.00  0.00    +0.046 C 
ATOM     39  C   UNL     1      -0.088  -2.290   1.775  0.00  0.00    +0.046 C 
ENDBRANCH  28  35
ENDBRANCH  26  28
ENDBRANCH   1  26
TORSDOF 5
