REMARK  Name = ZINC12722130
REMARK  7 active torsions:
REMARK  status: ('A' for Active; 'I' for Inactive)
REMARK    1  A    between atoms: C_1  and  C_2
REMARK    2  A    between atoms: C_7  and  N_8
REMARK    3  A    between atoms: C_17  and  S_18
REMARK    4  A    between atoms: S_18  and  C_19
REMARK    5  A    between atoms: C_19  and  C_20
REMARK    6  A    between atoms: N_26  and  C_27
REMARK    7  A    between atoms: N_26  and  C_28
REMARK                            x       y       z     vdW  Elec       q    Type
REMARK                         _______ _______ _______ _____ _____    ______ ____
ROOT
ATOM      1  N   UNL     1       4.523   4.993   1.355  0.00  0.00    -0.255 N 
ATOM      2  C   UNL     1       3.588   4.158   0.864  0.00  0.00    +0.268 A 
ATOM      3  O   UNL     1       3.298   4.183  -0.320  0.00  0.00    -0.267 OA
ATOM      4  C   UNL     1       2.940   3.242   1.751  0.00  0.00    +0.076 A 
ATOM      5  C   UNL     1       1.904   2.253   1.430  0.00  0.00    -0.023 A 
ATOM      6  C   UNL     1       1.439   1.509   2.453  0.00  0.00    -0.004 A 
ATOM      7  S   UNL     1       2.350   2.054   3.875  0.00  0.00    -0.073 S 
ATOM      8  C   UNL     1       3.348   3.295   3.093  0.00  0.00    +0.117 A 
ATOM      9  N   UNL     1       4.280   4.142   3.516  0.00  0.00    -0.215 NA
ATOM     10  C   UNL     1       4.862   4.977   2.679  0.00  0.00    +0.178 A 
ATOM     11  C   UNL     1       0.382   0.449   2.412  0.00  0.00    +0.043 C 
ATOM     12  C   UNL     1       0.684  -0.523   1.264  0.00  0.00    +0.005 C 
ATOM     13  C   UNL     1       0.002  -0.004   0.002  0.00  0.00    +0.001 C 
ATOM     14  C   UNL     1      -0.019   1.523   0.010  0.00  0.00    +0.005 C 
ATOM     15  C   UNL     1       1.401   2.078  -0.000  0.00  0.00    +0.037 C 
ENDROOT
BRANCH   1  22
ATOM     16  C   UNL     1       6.910   4.152   0.054  0.00  0.00    +0.046 C 
ATOM     17  C   UNL     1       6.328   5.524  -0.162  0.00  0.00    -0.026 A 
ATOM     18  C   UNL     1       6.954   6.415  -1.012  0.00  0.00    +0.005 A 
ATOM     19  C   UNL     1       6.420   7.675  -1.211  0.00  0.00    +0.000 A 
ATOM     20  C   UNL     1       5.257   8.047  -0.560  0.00  0.00    +0.002 A 
ATOM     21  C   UNL     1       4.624   7.159   0.287  0.00  0.00    +0.026 A 
ATOM     22  C   UNL     1       5.161   5.895   0.493  0.00  0.00    +0.055 A 
ENDBRANCH   1  22
BRANCH  10  23
ATOM     23  S   UNL     1       6.092   6.088   3.275  0.00  0.00    -0.079 S 
BRANCH  23  24
ATOM     24  C   UNL     1       6.113   5.625   5.024  0.00  0.00    +0.153 C 
BRANCH  24  25
ATOM     25  C   UNL     1       7.124   6.471   5.756  0.00  0.00    +0.146 A 
ATOM     26  N   UNL     1       8.374   6.057   5.864  0.00  0.00    -0.199 NA
ATOM     27  C   UNL     1       9.271   6.803   6.505  0.00  0.00    +0.217 A 
ATOM     28  N   UNL     1       8.905   7.961   7.046  0.00  0.00    -0.181 NA
ATOM     29  C   UNL     1       7.646   8.371   6.939  0.00  0.00    +0.222 A 
ATOM     30  N   UNL     1       6.756   7.621   6.292  0.00  0.00    -0.198 NA
ATOM     31  N   UNL     1       7.261   9.572   7.498  0.00  0.00    -0.306 N 
ATOM     32  C   UNL     1       5.872  10.023   7.380  0.00  0.00    +0.132 C 
ATOM     33  C   UNL     1       8.241  10.396   8.210  0.00  0.00    +0.132 C 
ATOM     34  N   UNL     1      10.578   6.373   6.613  0.00  0.00    -0.327 N 
ATOM     35  H   UNL     1      11.230   6.916   7.083  0.00  0.00    +0.145 HD
ATOM     36  H   UNL     1      10.844   5.528   6.218  0.00  0.00    +0.145 HD
ENDBRANCH  24  25
ENDBRANCH  23  24
ENDBRANCH  10  23
TORSDOF 4
