REMARK  Name = ZINC36610094
REMARK  17 active torsions:
REMARK  status: ('A' for Active; 'I' for Inactive)
REMARK    1  A    between atoms: C_1  and  C_2
REMARK    2  A    between atoms: C_2  and  C_4
REMARK    3  A    between atoms: C_2  and  C_10
REMARK    4  A    between atoms: C_10  and  C_12
REMARK    5  A    between atoms: C_10  and  N_23
REMARK    6  A    between atoms: N_14  and  C_15
REMARK    7  A    between atoms: C_15  and  C_16
REMARK    8  A    between atoms: C_15  and  C_17
REMARK    9  A    between atoms: C_15  and  C_18
REMARK   10  A    between atoms: C_18  and  C_19
REMARK   11  A    between atoms: C_19  and  C_20
REMARK   12  A    between atoms: C_19  and  C_21
REMARK   13  A    between atoms: C_19  and  C_22
REMARK   14  A    between atoms: N_23  and  C_24
REMARK   15  A    between atoms: C_30  and  C_32
REMARK   16  A    between atoms: C_33  and  O_39
REMARK   17  A    between atoms: C_37  and  O_38
REMARK                            x       y       z     vdW  Elec       q    Type
REMARK                         _______ _______ _______ _____ _____    ______ ____
ROOT
ATOM      1  C   UNL     1      -0.587   0.354  -0.155  0.00  0.00    +0.174 C 
ENDROOT
BRANCH   1   2
ATOM      2  C   UNL     1      -1.464   0.211   1.063  0.00  0.00    +0.235 C 
ATOM      3  O   UNL     1      -1.671  -0.886   1.536  0.00  0.00    -0.274 OA
ATOM      4  N   UNL     1      -2.018   1.304   1.625  0.00  0.00    -0.309 N 
ATOM      5  H   UNL     1      -1.906   2.173   1.210  0.00  0.00    +0.149 HD
BRANCH   4   6
ATOM      6  C   UNL     1      -2.788   1.178   2.865  0.00  0.00    +0.030 C 
ATOM      7  C   UNL     1      -3.913   0.160   2.665  0.00  0.00    +0.031 C 
ATOM      8  C   UNL     1      -1.868   0.708   3.992  0.00  0.00    +0.031 C 
BRANCH   6   9
ATOM      9  C   UNL     1      -3.390   2.536   3.231  0.00  0.00    +0.031 C 
BRANCH   9  10
ATOM     10  C   UNL     1      -4.425   2.937   2.178  0.00  0.00    -0.036 C 
ATOM     11  C   UNL     1      -5.717   2.149   2.407  0.00  0.00    +0.010 C 
ATOM     12  C   UNL     1      -4.714   4.435   2.290  0.00  0.00    +0.010 C 
ATOM     13  C   UNL     1      -3.879   2.626   0.782  0.00  0.00    +0.010 C 
ENDBRANCH   9  10
ENDBRANCH   6   9
ENDBRANCH   4   6
ENDBRANCH   1   2
BRANCH   1  14
ATOM     14  N   UNL     1      -0.231  -0.975  -0.658  0.00  0.00    -0.255 N 
ATOM     15  C   UNL     1      -0.477  -1.297  -1.944  0.00  0.00    +0.259 C 
ATOM     16  O   UNL     1      -1.080  -0.521  -2.660  0.00  0.00    -0.269 OA
BRANCH  14  17
ATOM     17  C   UNL     1       0.363  -1.911   0.195  0.00  0.00    +0.037 A 
ATOM     18  C   UNL     1      -0.350  -3.029   0.606  0.00  0.00    +0.023 A 
ATOM     19  C   UNL     1       0.240  -3.951   1.449  0.00  0.00    +0.002 A 
ATOM     20  C   UNL     1       1.539  -3.760   1.884  0.00  0.00    +0.000 A 
ATOM     21  C   UNL     1       2.251  -2.647   1.477  0.00  0.00    +0.002 A 
ATOM     22  C   UNL     1       1.669  -1.725   0.629  0.00  0.00    +0.023 A 
ENDBRANCH  14  17
BRANCH  15  23
ATOM     23  C   UNL     1      -0.015  -2.587  -2.481  0.00  0.00    +0.120 A 
ATOM     24  C   UNL     1      -0.848  -3.715  -2.425  0.00  0.00    +0.133 A 
ATOM     25  C   UNL     1      -0.403  -4.924  -2.933  0.00  0.00    +0.046 A 
ATOM     26  C   UNL     1       0.857  -5.022  -3.495  0.00  0.00    +0.007 A 
ATOM     27  C   UNL     1       1.685  -3.917  -3.556  0.00  0.00    +0.046 A 
ATOM     28  C   UNL     1       1.259  -2.697  -3.058  0.00  0.00    +0.133 A 
BRANCH  28  29
ATOM     29  O   UNL     1       2.072  -1.613  -3.124  0.00  0.00    -0.506 OA
ATOM     30  H   UNL     1       2.647  -1.506  -2.354  0.00  0.00    +0.292 HD
ENDBRANCH  28  29
BRANCH  24  31
ATOM     31  O   UNL     1      -2.083  -3.621  -1.873  0.00  0.00    -0.506 OA
ATOM     32  H   UNL     1      -2.778  -3.385  -2.503  0.00  0.00    +0.292 HD
ENDBRANCH  24  31
ENDBRANCH  15  23
ENDBRANCH   1  14
BRANCH   1  34
ATOM     33  C   UNL     1       1.619   1.176  -0.992  0.00  0.00    +0.015 C 
ATOM     34  C   UNL     1       0.687   1.115   0.220  0.00  0.00    +0.046 C 
BRANCH  34  35
ATOM     35  C   UNL     1       0.328   2.514   0.649  0.00  0.00    -0.042 A 
ATOM     36  C   UNL     1      -0.344   3.353  -0.221  0.00  0.00    +0.004 A 
ATOM     37  C   UNL     1      -0.674   4.636   0.173  0.00  0.00    +0.000 A 
ATOM     38  C   UNL     1      -0.331   5.081   1.436  0.00  0.00    +0.000 A 
ATOM     39  C   UNL     1       0.340   4.242   2.306  0.00  0.00    +0.000 A 
ATOM     40  C   UNL     1       0.665   2.957   1.914  0.00  0.00    +0.004 A 
ENDBRANCH  34  35
ENDBRANCH   1  34
TORSDOF 11
