REMARK  Name = ZINC46539235
REMARK  10 active torsions:
REMARK  status: ('A' for Active; 'I' for Inactive)
REMARK    1  A    between atoms: C_1  and  C_2
REMARK    2  A    between atoms: C_7  and  N_8
REMARK    3  A    between atoms: N_8  and  S_9
REMARK    4  A    between atoms: S_9  and  C_12
REMARK    5  A    between atoms: C_15  and  C_18
REMARK    6  A    between atoms: N_20  and  C_21
REMARK    7  A    between atoms: C_26  and  C_27
REMARK    8  A    between atoms: C_27  and  N_28
REMARK    9  A    between atoms: N_28  and  C_29
REMARK   10  A    between atoms: N_28  and  C_30
REMARK                            x       y       z     vdW  Elec       q    Type
REMARK                         _______ _______ _______ _____ _____    ______ ____
ROOT
ATOM      1  C   UNL     1       6.813  -0.396   3.244  0.00  0.00    +0.248 C 
ATOM      2  O   UNL     1       7.481  -1.410   3.190  0.00  0.00    -0.270 OA
ATOM      3  N   UNL     1       7.396   0.806   3.069  0.00  0.00    -0.281 N 
ATOM      4  H   UNL     1       6.880   1.618   3.189  0.00  0.00    +0.155 HD
ENDROOT
BRANCH   1   8
ATOM      5  C   UNL     1       2.637  -0.643   3.982  0.00  0.00    +0.109 A 
ATOM      6  C   UNL     1       3.395  -1.799   3.921  0.00  0.00    +0.029 A 
ATOM      7  C   UNL     1       4.752  -1.726   3.681  0.00  0.00    +0.015 A 
ATOM      8  C   UNL     1       5.360  -0.482   3.500  0.00  0.00    +0.037 A 
ATOM      9  C   UNL     1       4.589   0.680   3.563  0.00  0.00    +0.015 A 
ATOM     10  C   UNL     1       3.232   0.593   3.798  0.00  0.00    +0.029 A 
BRANCH   5  11
ATOM     11  S   UNL     1       0.905  -0.745   4.289  0.00  0.00    +0.072 S 
ATOM     12  O   UNL     1       0.515   0.507   4.834  0.00  0.00    -0.150 OA
ATOM     13  O   UNL     1       0.685  -1.974   4.968  0.00  0.00    -0.150 OA
BRANCH  11  14
ATOM     14  N   UNL     1       0.155  -0.876   2.818  0.00  0.00    -0.216 N 
ATOM     15  H   UNL     1      -0.486  -0.203   2.539  0.00  0.00    +0.174 HD
BRANCH  14  22
ATOM     16  C   UNL     1       0.187  -0.423   0.010  0.00  0.00    +0.046 C 
ATOM     17  C   UNL     1       0.470  -1.779   0.603  0.00  0.00    -0.028 A 
ATOM     18  C   UNL     1       0.761  -2.848  -0.223  0.00  0.00    +0.005 A 
ATOM     19  C   UNL     1       1.020  -4.092   0.320  0.00  0.00    +0.000 A 
ATOM     20  C   UNL     1       0.989  -4.272   1.691  0.00  0.00    +0.002 A 
ATOM     21  C   UNL     1       0.699  -3.208   2.522  0.00  0.00    +0.025 A 
ATOM     22  C   UNL     1       0.443  -1.955   1.980  0.00  0.00    +0.051 A 
ENDBRANCH  14  22
ENDBRANCH  11  14
ENDBRANCH   5  11
ENDBRANCH   1   8
BRANCH   3  23
ATOM     23  C   UNL     1       8.747   0.883   2.715  0.00  0.00    +0.035 A 
ATOM     24  C   UNL     1       9.359  -0.184   2.069  0.00  0.00    +0.023 A 
ATOM     25  C   UNL     1      10.693  -0.105   1.721  0.00  0.00    +0.002 A 
ATOM     26  C   UNL     1      11.420   1.034   2.015  0.00  0.00    +0.000 A 
ATOM     27  C   UNL     1      10.814   2.098   2.658  0.00  0.00    +0.003 A 
ATOM     28  C   UNL     1       9.478   2.028   3.003  0.00  0.00    -0.043 A 
BRANCH  28  29
ATOM     29  C   UNL     1       8.816   3.190   3.698  0.00  0.00    -0.041 C 
BRANCH  29  30
ATOM     30  N   UNL     1       8.741   2.920   5.140  0.00  0.00    +0.382 N 
ATOM     31  C   UNL     1      10.099   2.855   5.698  0.00  0.00    -0.095 C 
ATOM     32  H   UNL     1       8.272   2.040   5.293  0.00  0.00    -0.081 HD
BRANCH  30  33
ATOM     33  C   UNL     1       7.991   3.996   5.801  0.00  0.00    -0.069 C 
ATOM     34  C   UNL     1       7.912   3.715   7.303  0.00  0.00    -0.015 C 
ATOM     35  C   UNL     1       7.131   4.835   7.992  0.00  0.00    -0.002 C 
ATOM     36  C   UNL     1       5.717   4.903   7.411  0.00  0.00    -0.000 C 
ATOM     37  C   UNL     1       5.796   5.184   5.909  0.00  0.00    -0.002 C 
ATOM     38  C   UNL     1       6.577   4.063   5.221  0.00  0.00    -0.015 C 
ENDBRANCH  30  33
ENDBRANCH  29  30
ENDBRANCH  28  29
ENDBRANCH   3  23
TORSDOF 8
