REMARK  Name = ZINC16001376
REMARK  2 active torsions:
REMARK  status: ('A' for Active; 'I' for Inactive)
REMARK    1  A    between atoms: C_1  and  C_2
REMARK    2  A    between atoms: N_24  and  C_27
REMARK                            x       y       z     vdW  Elec       q    Type
REMARK                         _______ _______ _______ _____ _____    ______ ____
ROOT
ATOM      1  C   UNL     1      -5.039   4.556   3.801  0.00  0.00    +0.047 C 
ATOM      2  C   UNL     1      -3.654   4.627   3.213  0.00  0.00    -0.011 A 
ATOM      3  C   UNL     1      -2.811   5.664   3.559  0.00  0.00    +0.046 A 
ATOM      4  C   UNL     1      -1.537   5.736   3.024  0.00  0.00    +0.020 A 
ATOM      5  C   UNL     1      -1.106   4.765   2.138  0.00  0.00    +0.006 A 
ATOM      6  C   UNL     1      -1.943   3.729   1.791  0.00  0.00    -0.027 A 
ATOM      7  C   UNL     1      -3.227   3.645   2.322  0.00  0.00    +0.040 A 
ATOM      8  N   UNL     1      -3.883   2.517   1.825  0.00  0.00    -0.286 N 
ATOM      9  C   UNL     1      -3.111   1.815   0.973  0.00  0.00    +0.212 C 
ATOM     10  O   UNL     1      -3.417   0.795   0.392  0.00  0.00    -0.277 OA
ATOM     11  C   UNL     1      -1.796   2.540   0.882  0.00  0.00    +0.053 C 
ATOM     12  C   UNL     1      -0.633   1.642   1.319  0.00  0.00    +0.089 C 
ATOM     13  C   UNL     1      -0.025   1.113  -0.009  0.00  0.00    +0.074 C 
ATOM     14  C   UNL     1      -0.874   1.734  -1.134  0.00  0.00    -0.054 C 
ATOM     15  N   UNL     1      -1.505   2.951  -0.502  0.00  0.00    +0.395 N 
ATOM     16  C   UNL     1      -0.434   3.976  -0.509  0.00  0.00    -0.076 C 
ATOM     17  C   UNL     1       0.317   3.758  -1.843  0.00  0.00    -0.020 C 
ATOM     18  C   UNL     1       0.056   2.288  -2.229  0.00  0.00    -0.016 C 
ATOM     19  C   UNL     1       1.358   1.724  -0.027  0.00  0.00    +0.228 C 
ATOM     20  O   UNL     1       2.182   1.568  -0.903  0.00  0.00    -0.275 OA
ATOM     21  N   UNL     1       1.532   2.464   1.074  0.00  0.00    -0.210 N 
ATOM     22  C   UNL     1       0.478   2.488   1.899  0.00  0.00    +0.229 C 
ATOM     23  O   UNL     1       0.422   3.094   2.947  0.00  0.00    -0.275 OA
ATOM     24 CL   UNL     1      -3.352   6.883   4.671  0.00  0.00    -0.083 Cl
ATOM     25  H   UNL     1      -4.913   2.295   2.142  0.00  0.00    +0.155 HD
ATOM     26  H   UNL     1      -2.415   3.341  -0.982  0.00  0.00    -0.079 HD
ENDROOT
BRANCH  21  27
ATOM     27  C   UNL     1       2.721   3.158   1.343  0.00  0.00    +0.048 A 
ATOM     28  C   UNL     1       3.886   2.457   1.623  0.00  0.00    +0.028 A 
ATOM     29  C   UNL     1       5.058   3.139   1.883  0.00  0.00    +0.051 A 
ATOM     30  C   UNL     1       5.073   4.527   1.876  0.00  0.00    +0.162 A 
ATOM     31  C   UNL     1       3.908   5.231   1.599  0.00  0.00    +0.164 A 
ATOM     32  C   UNL     1       2.732   4.545   1.334  0.00  0.00    +0.073 A 
ATOM     33  O   UNL     1       3.905   6.592   1.579  0.00  0.00    -0.485 OA
ATOM     34  C   UNL     1       5.009   7.248   2.212  0.00  0.00    +0.270 C 
ATOM     35  C   UNL     1       6.302   6.559   1.756  0.00  0.00    +0.270 C 
ATOM     36  O   UNL     1       6.237   5.182   2.143  0.00  0.00    -0.485 OA
ENDBRANCH  21  27
TORSDOF 1
