REMARK  Name = ZINC01850326
REMARK  5 active torsions:
REMARK  status: ('A' for Active; 'I' for Inactive)
REMARK    1  A    between atoms: C_14  and  C_15
REMARK    2  A    between atoms: C_15  and  C_16
REMARK    3  A    between atoms: C_15  and  C_26
REMARK    4  A    between atoms: N_18  and  C_19
REMARK    5  A    between atoms: N_28  and  C_29
REMARK                            x       y       z     vdW  Elec       q    Type
REMARK                         _______ _______ _______ _____ _____    ______ ____
ROOT
ATOM      1  C   UNL     1       2.288   5.679   0.191  0.00  0.00    +0.209 C 
ENDROOT
BRANCH   1  15
ATOM      2  C   UNL     1       2.241   5.373   5.365  0.00  0.00    +0.000 A 
ATOM      3  C   UNL     1       3.262   5.349   4.431  0.00  0.00    +0.001 A 
ATOM      4  C   UNL     1       2.994   5.593   3.099  0.00  0.00    +0.010 A 
ATOM      5  C   UNL     1       1.687   5.864   2.700  0.00  0.00    +0.000 A 
ATOM      6  C   UNL     1       0.665   5.894   3.651  0.00  0.00    -0.036 A 
ATOM      7  C   UNL     1       0.946   5.653   4.976  0.00  0.00    +0.004 A 
ATOM      8  C   UNL     1      -0.739   6.195   3.189  0.00  0.00    +0.066 C 
ATOM      9  C   UNL     1      -0.674   7.181   2.026  0.00  0.00    +0.066 C 
ATOM     10  C   UNL     1      -2.083   7.377   1.425  0.00  0.00    +0.030 C 
ATOM     11  C   UNL     1      -1.980   8.775   0.765  0.00  0.00    +0.002 C 
ATOM     12  C   UNL     1      -1.107   9.592   1.740  0.00  0.00    +0.002 C 
ATOM     13  C   UNL     1      -0.272   8.575   2.540  0.00  0.00    +0.030 C 
ATOM     14  N   UNL     1       0.252   6.737   0.994  0.00  0.00    -0.279 NA
ATOM     15  C   UNL     1       1.354   6.126   1.286  0.00  0.00    +0.065 C 
ENDBRANCH   1  15
BRANCH   1  16
ATOM     16  C   UNL     1       2.614   4.219   0.373  0.00  0.00    +0.235 C 
ATOM     17  O   UNL     1       3.764   3.870   0.536  0.00  0.00    -0.274 OA
ATOM     18  N   UNL     1       1.627   3.301   0.354  0.00  0.00    -0.285 N 
ATOM     19  H   UNL     1       0.718   3.571   0.152  0.00  0.00    +0.155 HD
BRANCH  18  20
ATOM     20  C   UNL     1       1.915   1.959   0.625  0.00  0.00    +0.033 A 
ATOM     21  C   UNL     1       2.950   1.631   1.491  0.00  0.00    +0.024 A 
ATOM     22  C   UNL     1       3.232   0.305   1.757  0.00  0.00    +0.017 A 
ATOM     23  C   UNL     1       2.484  -0.695   1.162  0.00  0.00    +0.018 A 
ATOM     24  C   UNL     1       1.452  -0.371   0.299  0.00  0.00    +0.017 A 
ATOM     25  C   UNL     1       1.166   0.953   0.029  0.00  0.00    +0.024 A 
ATOM     26 BR   UNL     1       2.873  -2.509   1.530  0.00  0.00    -0.050 Br
ENDBRANCH  18  20
ENDBRANCH   1  16
BRANCH   1  27
ATOM     27  C   UNL     1       3.558   6.489   0.253  0.00  0.00    +0.235 C 
ATOM     28  O   UNL     1       4.625   5.932   0.401  0.00  0.00    -0.274 OA
ATOM     29  N   UNL     1       3.507   7.831   0.143  0.00  0.00    -0.285 N 
ATOM     30  H   UNL     1       2.650   8.282   0.099  0.00  0.00    +0.155 HD
BRANCH  29  31
ATOM     31  C   UNL     1       4.692   8.574   0.092  0.00  0.00    +0.033 A 
ATOM     32  C   UNL     1       4.741   9.844   0.652  0.00  0.00    +0.024 A 
ATOM     33  C   UNL     1       5.913  10.573   0.606  0.00  0.00    +0.017 A 
ATOM     34  C   UNL     1       7.035  10.044  -0.007  0.00  0.00    +0.018 A 
ATOM     35  C   UNL     1       6.987   8.781  -0.571  0.00  0.00    +0.017 A 
ATOM     36  C   UNL     1       5.819   8.045  -0.522  0.00  0.00    +0.024 A 
ATOM     37 BR   UNL     1       8.636  11.048  -0.075  0.00  0.00    -0.050 Br
ENDBRANCH  29  31
ENDBRANCH   1  27
TORSDOF 5
