REMARK  Name = ZINC39660336
REMARK  10 active torsions:
REMARK  status: ('A' for Active; 'I' for Inactive)
REMARK    1  A    between atoms: C_1  and  C_2
REMARK    2  A    between atoms: C_2  and  C_3
REMARK    3  A    between atoms: C_3  and  C_4
REMARK    4  A    between atoms: C_4  and  C_5
REMARK    5  A    between atoms: C_5  and  C_6
REMARK    6  A    between atoms: C_6  and  N_7
REMARK    7  A    between atoms: C_8  and  C_10
REMARK    8  A    between atoms: C_21  and  C_23
REMARK    9  A    between atoms: C_24  and  C_36
REMARK   10  A    between atoms: C_27  and  C_28
REMARK                            x       y       z     vdW  Elec       q    Type
REMARK                         _______ _______ _______ _____ _____    ______ ____
ROOT
ATOM      1  C   UNL     1       2.821  -4.672  -5.772  0.00  0.00    +0.100 C 
ATOM      2  C   UNL     1       4.358  -4.581  -5.646  0.00  0.00    +0.121 C 
ATOM      3  N   UNL     1       4.774  -5.916  -5.156  0.00  0.00    -0.296 N 
ATOM      4  C   UNL     1       3.903  -6.865  -5.890  0.00  0.00    +0.115 C 
ATOM      5  C   UNL     1       2.527  -6.173  -5.935  0.00  0.00    -0.004 C 
ATOM      6  C   UNL     1       1.650  -6.667  -4.788  0.00  0.00    -0.010 C 
ATOM      7  C   UNL     1       1.325  -8.148  -5.003  0.00  0.00    -0.082 C 
ATOM      8  N   UNL     1       0.629  -8.317  -6.285  0.00  0.00    +0.379 N 
ATOM      9  C   UNL     1       1.513  -7.926  -7.390  0.00  0.00    -0.082 C 
ATOM     10  C   UNL     1       1.847  -6.436  -7.276  0.00  0.00    -0.010 C 
ATOM     11  C   UNL     1       5.728  -6.202  -4.248  0.00  0.00    +0.252 C 
ATOM     12  O   UNL     1       5.954  -7.359  -3.948  0.00  0.00    -0.270 OA
ATOM     13  H   UNL     1       0.362  -9.284  -6.396  0.00  0.00    -0.086 HD
ATOM     14  H   UNL     1      -0.197  -7.739  -6.296  0.00  0.00    -0.086 HD
ENDROOT
BRANCH  11  15
ATOM     15  C   UNL     1       6.496  -5.115  -3.619  0.00  0.00    +0.106 A 
ATOM     16  C   UNL     1       6.254  -4.545  -2.404  0.00  0.00    +0.147 A 
ATOM     17  O   UNL     1       7.171  -3.597  -2.196  0.00  0.00    -0.359 OA
ATOM     18  N   UNL     1       8.047  -3.537  -3.303  0.00  0.00    -0.077 NA
ATOM     19  C   UNL     1       7.677  -4.439  -4.177  0.00  0.00    +0.128 A 
ATOM     20  C   UNL     1       5.141  -4.919  -1.459  0.00  0.00    +0.090 C 
BRANCH  19  21
ATOM     21  C   UNL     1       8.323  -4.721  -5.481  0.00  0.00    +0.041 A 
ATOM     22  C   UNL     1       8.429  -3.716  -6.443  0.00  0.00    +0.052 A 
ATOM     23  C   UNL     1       9.031  -3.986  -7.656  0.00  0.00    +0.021 A 
ATOM     24  C   UNL     1       9.529  -5.250  -7.919  0.00  0.00    +0.003 A 
ATOM     25  C   UNL     1       9.426  -6.251  -6.970  0.00  0.00    +0.021 A 
ATOM     26  C   UNL     1       8.832  -5.992  -5.750  0.00  0.00    +0.052 A 
ATOM     27 CL   UNL     1       8.711  -7.247  -4.557  0.00  0.00    -0.083 Cl
ATOM     28 CL   UNL     1       7.804  -2.130  -6.115  0.00  0.00    -0.083 Cl
ENDBRANCH  19  21
ENDBRANCH  11  15
BRANCH   1  30
ATOM     29  N   UNL     1       0.924  -3.607  -4.595  0.00  0.00    -0.315 N 
ATOM     30  C   UNL     1       2.160  -4.140  -4.527  0.00  0.00    +0.218 C 
ATOM     31  O   UNL     1       2.740  -4.192  -3.463  0.00  0.00    -0.275 OA
ATOM     32  H   UNL     1       0.460  -3.566  -5.446  0.00  0.00    +0.149 HD
BRANCH  29  33
ATOM     33  C   UNL     1       0.281  -3.090  -3.385  0.00  0.00    +0.104 C 
BRANCH  33  34
ATOM     34  C   UNL     1      -1.105  -2.545  -3.736  0.00  0.00    +0.019 C 
BRANCH  34  35
ATOM     35  C   UNL     1      -1.776  -2.005  -2.472  0.00  0.00    +0.002 C 
BRANCH  35  36
ATOM     36  C   UNL     1      -3.162  -1.460  -2.823  0.00  0.00    -0.000 C 
BRANCH  36  38
ATOM     37  C   UNL     1      -5.219  -0.375  -1.910  0.00  0.00    +0.004 C 
ATOM     38  C   UNL     1      -3.833  -0.920  -1.559  0.00  0.00    -0.003 C 
ENDBRANCH  36  38
ENDBRANCH  35  36
ENDBRANCH  34  35
ENDBRANCH  33  34
ENDBRANCH  29  33
ENDBRANCH   1  30
TORSDOF 8
