REMARK  Name = ZINC30556040
REMARK  11 active torsions:
REMARK  status: ('A' for Active; 'I' for Inactive)
REMARK    1  A    between atoms: C_1  and  C_2
REMARK    2  A    between atoms: C_2  and  C_3
REMARK    3  A    between atoms: C_2  and  C_4
REMARK    4  A    between atoms: C_4  and  C_5
REMARK    5  A    between atoms: C_5  and  C_7
REMARK    6  A    between atoms: C_5  and  N_23
REMARK    7  A    between atoms: N_9  and  C_10
REMARK    8  A    between atoms: C_10  and  C_11
REMARK    9  A    between atoms: C_16  and  C_17
REMARK   10  A    between atoms: C_17  and  N_18
REMARK   11  A    between atoms: C_24  and  C_26
REMARK                            x       y       z     vdW  Elec       q    Type
REMARK                         _______ _______ _______ _____ _____    ______ ____
ROOT
ATOM      1  C   UNL     1       2.709  -0.212  -2.586  0.00  0.00    +0.234 C 
ATOM      2  O   UNL     1       2.991   0.716  -3.314  0.00  0.00    -0.274 OA
ATOM      3  N   UNL     1       2.992  -1.475  -2.962  0.00  0.00    -0.310 N 
ATOM      4  H   UNL     1       2.703  -2.221  -2.413  0.00  0.00    +0.149 HD
ENDROOT
BRANCH   1   5
ATOM      5  C   UNL     1       2.043   0.048  -1.259  0.00  0.00    +0.159 C 
BRANCH   5   6
ATOM      6  N   UNL     1       2.251   1.446  -0.874  0.00  0.00    -0.300 N 
ATOM      7  C   UNL     1       2.285   1.788   0.430  0.00  0.00    +0.245 C 
ATOM      8  O   UNL     1       2.237   0.926   1.286  0.00  0.00    -0.270 OA
ATOM      9  H   UNL     1       2.363   2.125  -1.556  0.00  0.00    +0.150 HD
BRANCH   7  10
ATOM     10  C   UNL     1       2.383   3.210   0.818  0.00  0.00    +0.037 A 
ATOM     11  C   UNL     1       2.433   4.202  -0.163  0.00  0.00    +0.014 A 
ATOM     12  C   UNL     1       2.523   5.528   0.206  0.00  0.00    +0.021 A 
ATOM     13  C   UNL     1       2.565   5.876   1.546  0.00  0.00    +0.041 A 
ATOM     14  C   UNL     1       2.515   4.896   2.523  0.00  0.00    +0.021 A 
ATOM     15  C   UNL     1       2.419   3.567   2.167  0.00  0.00    +0.014 A 
ATOM     16 CL   UNL     1       2.679   7.547   2.002  0.00  0.00    -0.084 Cl
ENDBRANCH   7  10
ENDBRANCH   5   6
BRANCH   5  17
ATOM     17  C   UNL     1       0.544  -0.232  -1.377  0.00  0.00    +0.034 C 
BRANCH  17  19
ATOM     18  C   UNL     1       0.753  -2.532  -0.425  0.00  0.00    +0.007 C 
ATOM     19  C   UNL     1       0.323  -1.721  -1.649  0.00  0.00    -0.015 C 
ATOM     20  C   UNL     1      -1.160  -1.973  -1.931  0.00  0.00    +0.007 C 
ENDBRANCH  17  19
ENDBRANCH   5  17
ENDBRANCH   1   5
BRANCH   3  21
ATOM     21  C   UNL     1       3.734  -1.721  -4.201  0.00  0.00    +0.139 C 
BRANCH  21  22
ATOM     22  C   UNL     1       3.916  -3.205  -4.391  0.00  0.00    -0.029 A 
ATOM     23  C   UNL     1       5.116  -3.803  -4.051  0.00  0.00    +0.005 A 
ATOM     24  C   UNL     1       5.283  -5.164  -4.225  0.00  0.00    +0.000 A 
ATOM     25  C   UNL     1       4.251  -5.927  -4.738  0.00  0.00    +0.000 A 
ATOM     26  C   UNL     1       3.052  -5.330  -5.077  0.00  0.00    +0.002 A 
ATOM     27  C   UNL     1       2.883  -3.969  -4.899  0.00  0.00    -0.059 A 
BRANCH  27  28
ATOM     28  C   UNL     1       1.573  -3.318  -5.263  0.00  0.00    -0.043 C 
BRANCH  28  29
ATOM     29  N   UNL     1       1.695  -2.675  -6.578  0.00  0.00    +0.382 N 
ATOM     30  C   UNL     1       1.834  -3.704  -7.640  0.00  0.00    -0.078 C 
ATOM     31  C   UNL     1       1.388  -2.954  -8.921  0.00  0.00    -0.020 C 
ATOM     32  C   UNL     1       0.228  -2.065  -8.414  0.00  0.00    -0.020 C 
ATOM     33  C   UNL     1       0.458  -1.930  -6.898  0.00  0.00    -0.078 C 
ATOM     34  H   UNL     1       2.489  -2.052  -6.589  0.00  0.00    -0.081 HD
ENDBRANCH  28  29
ENDBRANCH  27  28
ENDBRANCH  21  22
ENDBRANCH   3  21
TORSDOF 9
