REMARK  Name = ZINC64871163
REMARK  5 active torsions:
REMARK  status: ('A' for Active; 'I' for Inactive)
REMARK    1  A    between atoms: C_6  and  C_7
REMARK    2  A    between atoms: C_7  and  N_8
REMARK    3  A    between atoms: C_14  and  C_21
REMARK    4  A    between atoms: C_24  and  C_28
REMARK    5  A    between atoms: C_31  and  C_34
REMARK                            x       y       z     vdW  Elec       q    Type
REMARK                         _______ _______ _______ _____ _____    ______ ____
ROOT
ATOM      1  N   UNL     1      -1.726  -1.017  -1.368  0.00  0.00    -0.256 N 
ATOM      2  C   UNL     1      -2.519  -0.112  -1.982  0.00  0.00    +0.265 A 
ATOM      3  O   UNL     1      -2.876   0.897  -1.406  0.00  0.00    -0.267 OA
ATOM      4  C   UNL     1      -2.940  -0.380  -3.369  0.00  0.00    +0.063 A 
ATOM      5  C   UNL     1      -3.756   0.504  -4.070  0.00  0.00    +0.016 A 
ATOM      6  C   UNL     1      -4.122   0.208  -5.367  0.00  0.00    +0.008 A 
ATOM      7  C   UNL     1      -3.682  -0.960  -5.971  0.00  0.00    -0.000 A 
ATOM      8  C   UNL     1      -2.873  -1.844  -5.287  0.00  0.00    +0.034 A 
ATOM      9  C   UNL     1      -2.494  -1.563  -3.983  0.00  0.00    +0.056 A 
ATOM     10  N   UNL     1      -1.681  -2.425  -3.260  0.00  0.00    -0.307 N 
ATOM     11  H   UNL     1      -1.366  -3.245  -3.671  0.00  0.00    +0.170 HD
ATOM     12  C   UNL     1      -1.322  -2.131  -1.999  0.00  0.00    +0.330 A 
ATOM     13  O   UNL     1      -0.605  -2.910  -1.401  0.00  0.00    -0.246 OA
ENDROOT
BRANCH   7  14
ATOM     14  C   UNL     1      -4.093  -1.267  -7.388  0.00  0.00    +0.242 C 
ATOM     15  N   UNL     1      -5.403  -0.648  -7.691  0.00  0.00    -0.265 NA
ATOM     16  C   UNL     1      -5.327  -0.184  -9.093  0.00  0.00    +0.180 C 
ATOM     17  N   UNL     1      -3.969  -0.545  -9.564  0.00  0.00    -0.177 NA
ATOM     18  O   UNL     1      -3.171  -0.660  -8.322  0.00  0.00    -0.274 OA
ATOM     19  H   UNL     1      -6.153  -1.311  -7.570  0.00  0.00    +0.127 HD
ATOM     20  H   UNL     1      -3.594   0.170 -10.170  0.00  0.00    +0.156 HD
BRANCH  16  21
ATOM     21  C   UNL     1      -6.371  -0.880  -9.928  0.00  0.00    -0.014 A 
ATOM     22  C   UNL     1      -7.562  -1.280  -9.353  0.00  0.00    +0.007 A 
ATOM     23  C   UNL     1      -8.520  -1.918 -10.119  0.00  0.00    +0.013 A 
ATOM     24  C   UNL     1      -8.286  -2.157 -11.460  0.00  0.00    +0.055 A 
ATOM     25  C   UNL     1      -7.094  -1.757 -12.036  0.00  0.00    +0.013 A 
ATOM     26  C   UNL     1      -6.138  -1.115 -11.271  0.00  0.00    +0.007 A 
BRANCH  24  27
ATOM     27  C   UNL     1      -9.329  -2.854 -12.295  0.00  0.00    +0.417 C 
ATOM     28  F   UNL     1     -10.190  -1.903 -12.855  0.00  0.00    -0.166 F 
ATOM     29  F   UNL     1      -8.703  -3.575 -13.317  0.00  0.00    -0.166 F 
ATOM     30  F   UNL     1     -10.063  -3.729 -11.488  0.00  0.00    -0.166 F 
ENDBRANCH  24  27
ENDBRANCH  16  21
ENDBRANCH   7  14
BRANCH   1  31
ATOM     31  C   UNL     1      -1.293  -0.775   0.010  0.00  0.00    +0.165 C 
BRANCH  31  37
ATOM     32  C   UNL     1      -0.017   1.378   0.010  0.00  0.00    +0.008 A 
ATOM     33  C   UNL     1       1.170   2.086   0.002  0.00  0.00    +0.038 A 
ATOM     34  C   UNL     1       2.379   1.410  -0.013  0.00  0.00    +0.123 A 
ATOM     35  C   UNL     1       2.396   0.026  -0.021  0.00  0.00    +0.038 A 
ATOM     36  C   UNL     1       1.208  -0.680  -0.013  0.00  0.00    +0.008 A 
ATOM     37  C   UNL     1       0.002  -0.004   0.002  0.00  0.00    -0.027 A 
ATOM     38  F   UNL     1       3.540   2.101  -0.021  0.00  0.00    -0.205 F 
ENDBRANCH  31  37
ENDBRANCH   1  31
TORSDOF 5
