REMARK  Name = ZINC17576007
REMARK  8 active torsions:
REMARK  status: ('A' for Active; 'I' for Inactive)
REMARK    1  A    between atoms: C_1  and  C_2
REMARK    2  A    between atoms: C_3  and  C_14
REMARK    3  A    between atoms: C_4  and  C_13
REMARK    4  A    between atoms: N_5  and  C_7
REMARK    5  A    between atoms: C_14  and  C_16
REMARK    6  A    between atoms: N_18  and  N_19
REMARK    7  A    between atoms: C_20  and  C_22
REMARK    8  A    between atoms: C_27  and  O_28
REMARK                            x       y       z     vdW  Elec       q    Type
REMARK                         _______ _______ _______ _____ _____    ______ ____
ROOT
ATOM      1  C   UNL     1       1.647   0.302   6.733  0.00  0.00    +0.301 C 
ATOM      2  O   UNL     1       2.647  -0.143   7.258  0.00  0.00    -0.265 OA
ATOM      3  N   UNL     1       1.746   1.026   5.601  0.00  0.00    -0.227 N 
ATOM      4  H   UNL     1       0.947   1.381   5.181  0.00  0.00    +0.173 HD
ENDROOT
BRANCH   3   5
ATOM      5  N   UNL     1       3.003   1.265   5.029  0.00  0.00    -0.230 N 
ATOM      6  C   UNL     1       3.102   1.989   3.897  0.00  0.00    +0.264 C 
ATOM      7  O   UNL     1       2.100   2.434   3.371  0.00  0.00    -0.269 OA
ATOM      8  H   UNL     1       3.802   0.909   5.449  0.00  0.00    +0.173 HD
BRANCH   6   9
ATOM      9  C   UNL     1       4.425   2.240   3.295  0.00  0.00    +0.079 A 
ATOM     10  C   UNL     1       5.578   1.730   3.896  0.00  0.00    +0.017 A 
ATOM     11  C   UNL     1       6.811   1.968   3.329  0.00  0.00    +0.001 A 
ATOM     12  C   UNL     1       6.913   2.712   2.164  0.00  0.00    +0.004 A 
ATOM     13  C   UNL     1       5.781   3.218   1.558  0.00  0.00    +0.046 A 
ATOM     14  C   UNL     1       4.532   2.993   2.118  0.00  0.00    +0.129 A 
BRANCH  14  15
ATOM     15  O   UNL     1       3.419   3.493   1.526  0.00  0.00    -0.506 OA
ATOM     16  H   UNL     1       3.174   4.377   1.833  0.00  0.00    +0.292 HD
ENDBRANCH  14  15
ENDBRANCH   6   9
ENDBRANCH   3   5
BRANCH   1  17
ATOM     17  C   UNL     1       0.308   0.047   7.342  0.00  0.00    +0.252 C 
ATOM     18  O   UNL     1      -0.687   0.533   6.845  0.00  0.00    -0.282 OA
BRANCH  17  21
ATOM     19  C   UNL     1      -0.033  -3.110   7.377  0.00  0.00    +0.068 C 
ATOM     20  C   UNL     1       0.043  -2.200   8.575  0.00  0.00    +0.072 A 
ATOM     21  C   UNL     1       0.195  -0.792   8.543  0.00  0.00    +0.071 A 
ATOM     22  C   UNL     1       0.211  -0.355   9.858  0.00  0.00    +0.053 A 
ATOM     23  N   UNL     1       0.081  -1.439  10.642  0.00  0.00    -0.236 N 
ATOM     24  N   UNL     1      -0.017  -2.570   9.824  0.00  0.00    -0.171 NA
ATOM     25  C   UNL     1       0.348   1.072  10.324  0.00  0.00    +0.066 C 
BRANCH  23  26
ATOM     26  C   UNL     1       0.051  -1.437  12.042  0.00  0.00    +0.066 A 
ATOM     27  C   UNL     1       0.745  -2.406  12.755  0.00  0.00    +0.028 A 
ATOM     28  C   UNL     1       0.717  -2.399  14.136  0.00  0.00    +0.002 A 
ATOM     29  C   UNL     1      -0.010  -1.434  14.809  0.00  0.00    +0.000 A 
ATOM     30  C   UNL     1      -0.706  -0.471  14.102  0.00  0.00    +0.002 A 
ATOM     31  C   UNL     1      -0.678  -0.469  12.721  0.00  0.00    +0.028 A 
ENDBRANCH  23  26
ENDBRANCH  17  21
ENDBRANCH   1  17
TORSDOF 6
