REMARK  Name = ZINC01232883
REMARK  7 active torsions:
REMARK  status: ('A' for Active; 'I' for Inactive)
REMARK    1  A    between atoms: C_6  and  C_7
REMARK    2  A    between atoms: N_9  and  C_10
REMARK    3  A    between atoms: C_10  and  C_12
REMARK    4  A    between atoms: C_10  and  N_16
REMARK    5  A    between atoms: N_16  and  C_17
REMARK    6  A    between atoms: C_20  and  S_23
REMARK    7  A    between atoms: S_23  and  N_26
REMARK                            x       y       z     vdW  Elec       q    Type
REMARK                         _______ _______ _______ _____ _____    ______ ____
ROOT
ATOM      1  C   UNL     1       0.007   1.082  -0.006  0.00  0.00    +0.210 C 
ENDROOT
BRANCH   1   4
ATOM      2  C   UNL     1      -1.418   0.499   1.883  0.00  0.00    +0.246 C 
ATOM      3  O   UNL     1      -1.431  -0.648   1.480  0.00  0.00    -0.270 OA
ATOM      4  N   UNL     1      -0.727   1.441   1.210  0.00  0.00    -0.290 N 
ATOM      5  H   UNL     1      -0.717   2.356   1.531  0.00  0.00    +0.151 HD
BRANCH   2  11
ATOM      6  C   UNL     1      -2.141   2.176   3.576  0.00  0.00    +0.014 A 
ATOM      7  C   UNL     1      -2.840   2.509   4.718  0.00  0.00    +0.016 A 
ATOM      8  C   UNL     1      -3.548   1.539   5.407  0.00  0.00    +0.018 A 
ATOM      9  C   UNL     1      -3.565   0.231   4.952  0.00  0.00    +0.016 A 
ATOM     10  C   UNL     1      -2.875  -0.113   3.808  0.00  0.00    +0.014 A 
ATOM     11  C   UNL     1      -2.159   0.861   3.109  0.00  0.00    +0.037 A 
ATOM     12 BR   UNL     1      -4.497   2.002   6.976  0.00  0.00    -0.050 Br
ENDBRANCH   2  11
ENDBRANCH   1   4
BRANCH   1  13
ATOM     13  C   UNL     1       1.398   1.719   0.033  0.00  0.00    +0.225 C 
ATOM     14 CL   UNL     1       1.236   3.512   0.130  0.00  0.00    -0.080 Cl
ATOM     15 CL   UNL     1       2.295   1.117   1.476  0.00  0.00    -0.080 Cl
ATOM     16 CL   UNL     1       2.303   1.278  -1.464  0.00  0.00    -0.080 Cl
ENDBRANCH   1  13
BRANCH   1  17
ATOM     17  N   UNL     1      -0.721   1.571  -1.179  0.00  0.00    -0.323 N 
ATOM     18  H   UNL     1      -0.714   2.517  -1.395  0.00  0.00    +0.148 HD
BRANCH  17  19
ATOM     19  C   UNL     1      -1.427   0.676  -1.986  0.00  0.00    +0.029 A 
ATOM     20  C   UNL     1      -1.539  -0.658  -1.613  0.00  0.00    +0.025 A 
ATOM     21  C   UNL     1      -2.241  -1.540  -2.411  0.00  0.00    +0.030 A 
ATOM     22  C   UNL     1      -2.823  -1.099  -3.586  0.00  0.00    +0.105 A 
ATOM     23  C   UNL     1      -2.708   0.227  -3.963  0.00  0.00    +0.030 A 
ATOM     24  C   UNL     1      -2.012   1.115  -3.167  0.00  0.00    +0.025 A 
BRANCH  22  25
ATOM     25  S   UNL     1      -3.712  -2.228  -4.604  0.00  0.00    +0.056 S 
ATOM     26  O   UNL     1      -4.138  -3.288  -3.759  0.00  0.00    -0.153 OA
ATOM     27  O   UNL     1      -4.623  -1.453  -5.371  0.00  0.00    -0.153 OA
BRANCH  25  28
ATOM     28  N   UNL     1      -2.629  -2.881  -5.673  0.00  0.00    -0.204 NA
ATOM     29  H   UNL     1      -1.698  -2.611  -5.646  0.00  0.00    +0.144 HD
ATOM     30  H   UNL     1      -2.926  -3.534  -6.326  0.00  0.00    +0.144 HD
ENDBRANCH  25  28
ENDBRANCH  22  25
ENDBRANCH  17  19
ENDBRANCH   1  17
TORSDOF 7
