REMARK  Name = ZINC39545374
REMARK  8 active torsions:
REMARK  status: ('A' for Active; 'I' for Inactive)
REMARK    1  A    between atoms: C_1  and  C_2
REMARK    2  A    between atoms: C_2  and  O_3
REMARK    3  A    between atoms: O_3  and  C_4
REMARK    4  A    between atoms: C_6  and  C_18
REMARK    5  A    between atoms: N_20  and  C_21
REMARK    6  A    between atoms: N_20  and  S_27
REMARK    7  A    between atoms: S_27  and  O_30
REMARK    8  A    between atoms: O_30  and  C_31
REMARK                            x       y       z     vdW  Elec       q    Type
REMARK                         _______ _______ _______ _____ _____    ______ ____
ROOT
ATOM      1  C   UNL     1       0.070  -4.345   3.451  0.00  0.00    +0.261 C 
ATOM      2  O   UNL     1      -1.012  -4.805   3.151  0.00  0.00    -0.272 OA
ATOM      3  N   UNL     1       0.619  -4.639   4.646  0.00  0.00    -0.109 N 
ENDROOT
BRANCH   1   6
ATOM      4  C   UNL     1       0.291  -1.115   2.155  0.00  0.00    +0.134 C 
ATOM      5  C   UNL     1       1.007  -2.048   3.105  0.00  0.00    +0.107 C 
ATOM      6  C   UNL     1       0.799  -3.445   2.487  0.00  0.00    +0.154 C 
ATOM      7  N   UNL     1      -0.022  -3.190   1.293  0.00  0.00    -0.367 NA
ATOM      8  C   UNL     1      -0.246  -1.811   1.183  0.00  0.00    +0.113 C 
ATOM      9  N   UNL     1      -0.969  -1.288   0.083  0.00  0.00    -0.301 N 
ATOM     10  C   UNL     1      -0.764  -1.964  -1.131  0.00  0.00    +0.037 A 
ATOM     11  C   UNL     1      -1.337  -1.475  -2.297  0.00  0.00    +0.023 A 
ATOM     12  C   UNL     1      -1.143  -2.145  -3.490  0.00  0.00    +0.002 A 
ATOM     13  C   UNL     1      -0.381  -3.299  -3.515  0.00  0.00    +0.000 A 
ATOM     14  C   UNL     1       0.191  -3.783  -2.355  0.00  0.00    +0.007 A 
ATOM     15  C   UNL     1       0.008  -3.117  -1.155  0.00  0.00    -0.010 A 
ATOM     16  C   UNL     1       0.674  -3.657   0.089  0.00  0.00    +0.124 C 
ATOM     17  H   UNL     1      -1.560  -0.523   0.162  0.00  0.00    +0.153 HD
ATOM     18  H   UNL     1      -0.907  -3.666   1.381  0.00  0.00    +0.129 HD
BRANCH   4  19
ATOM     19  O   UNL     1       0.212   0.236   2.292  0.00  0.00    -0.493 OA
BRANCH  19  21
ATOM     20  C   UNL     1      -0.631   2.425   1.709  0.00  0.00    +0.048 C 
ATOM     21  C   UNL     1      -0.621   0.935   1.364  0.00  0.00    +0.225 C 
ENDBRANCH  19  21
ENDBRANCH   4  19
ENDBRANCH   1   6
BRANCH   3  22
ATOM     22  C   UNL     1      -0.019  -5.539   5.507  0.00  0.00    +0.063 A 
ATOM     23  C   UNL     1      -1.319  -5.294   5.931  0.00  0.00    +0.025 A 
ATOM     24  C   UNL     1      -1.946  -6.184   6.780  0.00  0.00    +0.002 A 
ATOM     25  C   UNL     1      -1.281  -7.319   7.209  0.00  0.00    +0.000 A 
ATOM     26  C   UNL     1       0.013  -7.565   6.789  0.00  0.00    +0.002 A 
ATOM     27  C   UNL     1       0.644  -6.682   5.934  0.00  0.00    +0.025 A 
ENDBRANCH   3  22
BRANCH   3  28
ATOM     28  S   UNL     1       2.049  -3.936   5.096  0.00  0.00    +0.217 S 
ATOM     29  O   UNL     1       2.543  -4.687   6.197  0.00  0.00    -0.115 OA
ATOM     30  O   UNL     1       2.801  -3.747   3.905  0.00  0.00    -0.115 OA
BRANCH  28  31
ATOM     31  O   UNL     1       1.720  -2.548   5.628  0.00  0.00    -0.331 OA
BRANCH  31  32
ATOM     32  C   UNL     1       1.165  -2.549   6.868  0.00  0.00    +0.158 A 
ATOM     33  C   UNL     1      -0.213  -2.627   7.012  0.00  0.00    +0.048 A 
ATOM     34  C   UNL     1      -0.775  -2.628   8.274  0.00  0.00    +0.004 A 
ATOM     35  C   UNL     1       0.034  -2.551   9.392  0.00  0.00    +0.000 A 
ATOM     36  C   UNL     1       1.407  -2.474   9.252  0.00  0.00    +0.004 A 
ATOM     37  C   UNL     1       1.975  -2.478   7.992  0.00  0.00    +0.048 A 
ENDBRANCH  31  32
ENDBRANCH  28  31
ENDBRANCH   3  28
TORSDOF 7
