REMARK  Name = ZINC31491854
REMARK  6 active torsions:
REMARK  status: ('A' for Active; 'I' for Inactive)
REMARK    1  A    between atoms: C_1  and  N_2
REMARK    2  A    between atoms: N_2  and  S_3
REMARK    3  A    between atoms: S_3  and  C_6
REMARK    4  A    between atoms: C_9  and  C_11
REMARK    5  A    between atoms: N_13  and  N_14
REMARK    6  A    between atoms: C_15  and  C_17
REMARK                            x       y       z     vdW  Elec       q    Type
REMARK                         _______ _______ _______ _____ _____    ______ ____
ROOT
ATOM      1  C   UNL     1      -7.281   1.168   2.100  0.00  0.00    +0.295 C 
ATOM      2  O   UNL     1      -6.884   1.868   3.012  0.00  0.00    -0.265 OA
ATOM      3  N   UNL     1      -6.457   0.859   1.079  0.00  0.00    -0.228 N 
ATOM      4  H   UNL     1      -6.816   0.226   0.254  0.00  0.00    +0.173 HD
ENDROOT
BRANCH   1   8
ATOM      5  C   UNL     1     -10.488  -0.388   1.508  0.00  0.00    +0.258 A 
ATOM      6  C   UNL     1     -10.759   0.222   2.683  0.00  0.00    +0.072 A 
ATOM      7  C   UNL     1      -9.590   0.891   3.080  0.00  0.00    +0.057 A 
ATOM      8  C   UNL     1      -8.657   0.660   2.110  0.00  0.00    +0.193 A 
ATOM      9  O   UNL     1      -9.221  -0.122   1.166  0.00  0.00    -0.432 OA
BRANCH   5  10
ATOM     10  S   UNL     1     -11.617  -1.371   0.579  0.00  0.00    +0.091 S 
ATOM     11  O   UNL     1     -10.831  -2.241  -0.226  0.00  0.00    -0.150 OA
ATOM     12  O   UNL     1     -12.588  -1.853   1.498  0.00  0.00    -0.150 OA
BRANCH  10  14
ATOM     13  C   UNL     1     -11.672   0.331  -1.523  0.00  0.00    +0.128 C 
ATOM     14  N   UNL     1     -12.412  -0.355  -0.460  0.00  0.00    -0.190 NA
ATOM     15  H   UNL     1     -13.453  -0.075  -0.245  0.00  0.00    +0.148 HD
ENDBRANCH  10  14
ENDBRANCH   5  10
ENDBRANCH   1   8
BRANCH   3  16
ATOM     16  N   UNL     1      -5.143   1.344   1.069  0.00  0.00    -0.234 N 
ATOM     17  C   UNL     1      -4.318   1.035   0.049  0.00  0.00    +0.235 C 
ATOM     18  O   UNL     1      -4.714   0.337  -0.861  0.00  0.00    -0.274 OA
ATOM     19  H   UNL     1      -4.784   1.976   1.894  0.00  0.00    +0.173 HD
BRANCH  17  20
ATOM     20  C   UNL     1      -2.904   1.556   0.038  0.00  0.00    +0.049 C 
ATOM     21  C   UNL     1      -2.188   1.063  -1.221  0.00  0.00    +0.019 C 
ATOM     22  C   UNL     1      -0.753   1.593  -1.232  0.00  0.00    -0.009 C 
ATOM     23  C   UNL     1      -0.013   1.086   0.008  0.00  0.00    +0.007 C 
ATOM     24  C   UNL     1      -0.729   1.579   1.267  0.00  0.00    -0.009 C 
ATOM     25  C   UNL     1      -2.164   1.050   1.278  0.00  0.00    +0.019 C 
ATOM     26  C   UNL     1      -0.750   3.109   1.275  0.00  0.00    +0.007 C 
ATOM     27  C   UNL     1      -1.490   3.616   0.036  0.00  0.00    -0.009 C 
ATOM     28  C   UNL     1      -0.773   3.123  -1.223  0.00  0.00    +0.007 C 
ATOM     29  C   UNL     1      -2.925   3.086   0.047  0.00  0.00    +0.019 C 
ENDBRANCH  17  20
ENDBRANCH   3  16
TORSDOF 5
