REMARK  Name = ZINC64407739
REMARK  8 active torsions:
REMARK  status: ('A' for Active; 'I' for Inactive)
REMARK    1  A    between atoms: C_1  and  C_2
REMARK    2  A    between atoms: C_5  and  C_8
REMARK    3  A    between atoms: C_11  and  N_23
REMARK    4  A    between atoms: N_13  and  C_15
REMARK    5  A    between atoms: N_23  and  S_24
REMARK    6  A    between atoms: S_24  and  C_27
REMARK    7  A    between atoms: C_28  and  C_34
REMARK    8  A    between atoms: C_31  and  C_33
REMARK                            x       y       z     vdW  Elec       q    Type
REMARK                         _______ _______ _______ _____ _____    ______ ____
ROOT
ATOM      1  C   UNL     1       0.052  -4.276  -0.024  0.00  0.00    +0.102 C 
ATOM      2  C   UNL     1       1.477  -4.795   0.274  0.00  0.00    +0.062 C 
ATOM      3  C   UNL     1       1.258  -6.028   1.175  0.00  0.00    +0.162 C 
ATOM      4  N   UNL     1      -0.209  -6.164   1.321  0.00  0.00    -0.219 NA
ATOM      5  N   UNL     1      -0.760  -4.819   1.097  0.00  0.00    -0.245 NA
ATOM      6  H   UNL     1      -0.664  -4.248   1.923  0.00  0.00    +0.142 HD
ENDROOT
BRANCH   1  11
ATOM      7  C   UNL     1      -0.056   1.502   0.000  0.00  0.00    +0.044 C 
ATOM      8  C   UNL     1      -0.028  -0.005  -0.006  0.00  0.00    -0.050 A 
ATOM      9  C   UNL     1      -0.018  -0.691  -1.206  0.00  0.00    +0.003 A 
ATOM     10  C   UNL     1       0.008  -2.073  -1.212  0.00  0.00    +0.005 A 
ATOM     11  C   UNL     1       0.025  -2.769  -0.018  0.00  0.00    -0.029 A 
ATOM     12  C   UNL     1       0.016  -2.083   1.183  0.00  0.00    +0.005 A 
ATOM     13  C   UNL     1      -0.006  -0.701   1.188  0.00  0.00    +0.003 A 
ENDBRANCH   1  11
BRANCH   4  14
ATOM     14  C   UNL     1      -0.562  -6.662   2.657  0.00  0.00    +0.097 C 
ATOM     15  C   UNL     1      -2.091  -6.752   2.791  0.00  0.00    +0.044 C 
ATOM     16  C   UNL     1      -2.479  -6.963   4.275  0.00  0.00    +0.167 C 
ATOM     17  S   UNL     1      -1.090  -6.160   5.174  0.00  0.00    -0.029 S 
ATOM     18  O   UNL     1      -0.405  -7.143   5.939  0.00  0.00    -0.174 OA
ATOM     19  O   UNL     1      -1.570  -4.986   5.813  0.00  0.00    -0.174 OA
ATOM     20  C   UNL     1      -0.038  -5.676   3.740  0.00  0.00    +0.186 C 
ENDBRANCH   4  14
BRANCH   3  21
ATOM     21  N   UNL     1       1.817  -7.224   0.540  0.00  0.00    -0.172 NA
ATOM     22  H   UNL     1       1.272  -7.753  -0.064  0.00  0.00    +0.150 HD
BRANCH  21  23
ATOM     23  S   UNL     1       3.380  -7.674   0.853  0.00  0.00    +0.060 S 
ATOM     24  O   UNL     1       3.613  -8.869   0.120  0.00  0.00    -0.153 OA
ATOM     25  O   UNL     1       4.178  -6.510   0.686  0.00  0.00    -0.153 OA
BRANCH  23  26
ATOM     26  C   UNL     1       3.467  -8.104   2.559  0.00  0.00    +0.131 C 
ATOM     27  C   UNL     1       3.997  -7.397   3.560  0.00  0.00    +0.084 C 
ATOM     28  N   UNL     1       3.874  -8.057   4.732  0.00  0.00    -0.157 NA
ATOM     29  N   UNL     1       3.312  -9.151   4.647  0.00  0.00    -0.178 NA
ATOM     30  C   UNL     1       2.950  -9.361   3.235  0.00  0.00    +0.176 C 
ATOM     31  C   UNL     1       3.651 -10.602   2.678  0.00  0.00    +0.041 C 
ATOM     32  C   UNL     1       4.646  -6.045   3.402  0.00  0.00    +0.069 C 
ENDBRANCH  23  26
ENDBRANCH  21  23
ENDBRANCH   3  21
TORSDOF 5
