REMARK  Name = ZINC17257292
REMARK  8 active torsions:
REMARK  status: ('A' for Active; 'I' for Inactive)
REMARK    1  A    between atoms: C_1  and  C_2
REMARK    2  A    between atoms: C_5  and  N_8
REMARK    3  A    between atoms: N_8  and  S_9
REMARK    4  A    between atoms: S_9  and  C_12
REMARK    5  A    between atoms: C_15  and  C_29
REMARK    6  A    between atoms: C_16  and  C_18
REMARK    7  A    between atoms: N_20  and  N_21
REMARK    8  A    between atoms: C_22  and  C_24
REMARK                            x       y       z     vdW  Elec       q    Type
REMARK                         _______ _______ _______ _____ _____    ______ ____
ROOT
ATOM      1  C   UNL     1       1.399   2.292  -0.065  0.00  0.00    +0.109 A 
ATOM      2  C   UNL     1       2.278   2.107   0.988  0.00  0.00    +0.029 A 
ATOM      3  C   UNL     1       3.590   2.536   0.886  0.00  0.00    +0.006 A 
ATOM      4  C   UNL     1       4.026   3.162  -0.264  0.00  0.00    -0.038 A 
ATOM      5  C   UNL     1       3.143   3.357  -1.327  0.00  0.00    +0.043 A 
ATOM      6  C   UNL     1       1.823   2.917  -1.219  0.00  0.00    +0.042 A 
ATOM      7  C   UNL     1       5.453   3.634  -0.371  0.00  0.00    +0.044 C 
ENDROOT
BRANCH   5   8
ATOM      8  C   UNL     1       3.604   4.028  -2.561  0.00  0.00    +0.260 C 
ATOM      9  O   UNL     1       4.713   4.524  -2.605  0.00  0.00    -0.269 OA
ATOM     10  N   UNL     1       2.795   4.090  -3.637  0.00  0.00    -0.230 N 
ATOM     11  H   UNL     1       1.910   3.695  -3.601  0.00  0.00    +0.173 HD
BRANCH  10  12
ATOM     12  N   UNL     1       3.231   4.726  -4.806  0.00  0.00    -0.228 N 
ATOM     13  C   UNL     1       2.422   4.788  -5.882  0.00  0.00    +0.295 C 
ATOM     14  O   UNL     1       1.312   4.291  -5.838  0.00  0.00    -0.265 OA
ATOM     15  H   UNL     1       4.116   5.121  -4.842  0.00  0.00    +0.173 HD
BRANCH  13  16
ATOM     16  C   UNL     1       2.879   5.453  -7.106  0.00  0.00    +0.190 A 
ATOM     17  C   UNL     1       2.164   5.586  -8.262  0.00  0.00    +0.054 A 
ATOM     18  C   UNL     1       2.982   6.284  -9.165  0.00  0.00    +0.042 A 
ATOM     19  C   UNL     1       4.146   6.543  -8.528  0.00  0.00    +0.196 A 
ATOM     20  O   UNL     1       4.077   6.046  -7.286  0.00  0.00    -0.458 OA
ENDBRANCH  13  16
ENDBRANCH  10  12
ENDBRANCH   5   8
BRANCH   1  21
ATOM     21  S   UNL     1      -0.267   1.736   0.073  0.00  0.00    +0.072 S 
ATOM     22  O   UNL     1      -1.014   2.447  -0.905  0.00  0.00    -0.150 OA
ATOM     23  O   UNL     1      -0.594   1.772   1.456  0.00  0.00    -0.150 OA
BRANCH  21  24
ATOM     24  N   UNL     1      -0.291   0.143  -0.378  0.00  0.00    -0.216 N 
ATOM     25  H   UNL     1      -0.765  -0.127  -1.180  0.00  0.00    +0.174 HD
BRANCH  24  30
ATOM     26  C   UNL     1       2.402  -3.734   2.764  0.00  0.00    +0.044 C 
ATOM     27  C   UNL     1       1.686  -2.704   1.929  0.00  0.00    -0.050 A 
ATOM     28  C   UNL     1       0.500  -2.154   2.379  0.00  0.00    +0.005 A 
ATOM     29  C   UNL     1      -0.158  -1.210   1.616  0.00  0.00    +0.025 A 
ATOM     30  C   UNL     1       0.373  -0.811   0.396  0.00  0.00    +0.048 A 
ATOM     31  C   UNL     1       1.562  -1.369  -0.055  0.00  0.00    +0.025 A 
ATOM     32  C   UNL     1       2.218  -2.310   0.715  0.00  0.00    +0.005 A 
ENDBRANCH  24  30
ENDBRANCH  21  24
ENDBRANCH   1  21
TORSDOF 6
