REMARK  Name = ZINC08749415
REMARK  15 active torsions:
REMARK  status: ('A' for Active; 'I' for Inactive)
REMARK    1  A    between atoms: C_1  and  C_2
REMARK    2  A    between atoms: C_4  and  C_48
REMARK    3  A    between atoms: C_5  and  N_9
REMARK    4  A    between atoms: C_6  and  C_8
REMARK    5  A    between atoms: C_10  and  C_12
REMARK    6  A    between atoms: C_12  and  N_18
REMARK    7  A    between atoms: C_17  and  N_93
REMARK    8  A    between atoms: N_18  and  C_19
REMARK    9  A    between atoms: C_19  and  C_20
REMARK   10  A    between atoms: C_27  and  C_29
REMARK   11  A    between atoms: C_29  and  C_30
REMARK   12  A    between atoms: C_32  and  C_37
REMARK   13  A    between atoms: C_34  and  C_35
REMARK   14  A    between atoms: C_34  and  C_36
REMARK   15  A    between atoms: C_38  and  C_47
REMARK                            x       y       z     vdW  Elec       q    Type
REMARK                         _______ _______ _______ _____ _____    ______ ____
ROOT
ATOM      1  N   UNL     1      -6.565   1.321  -2.063  0.00  0.00    -0.283 N 
ATOM      2  C   UNL     1      -5.597   1.645  -1.183  0.00  0.00    +0.217 C 
ATOM      3  O   UNL     1      -5.278   2.805  -1.031  0.00  0.00    -0.276 OA
ENDROOT
BRANCH   1   4
ATOM      4  C   UNL     1      -7.125   2.348  -2.946  0.00  0.00    +0.111 C 
ATOM      5  C   UNL     1      -7.373   3.630  -2.146  0.00  0.00    +0.017 C 
ATOM      6  C   UNL     1      -8.402   3.348  -1.048  0.00  0.00    -0.077 C 
ATOM      7  C   UNL     1      -9.449   1.623  -2.389  0.00  0.00    -0.077 C 
ATOM      8  C   UNL     1      -8.452   1.853  -3.527  0.00  0.00    +0.017 C 
ATOM      9  C   UNL     1     -10.707   2.731  -0.643  0.00  0.00    -0.096 C 
ATOM     10  N   UNL     1      -9.663   2.900  -1.674  0.00  0.00    +0.378 N 
ATOM     11  H   UNL     1      -9.972   3.611  -2.348  0.00  0.00    -0.082 HD
BRANCH   4  13
ATOM     12  N   UNL     1      -4.835   2.686  -3.817  0.00  0.00    -0.283 N 
ATOM     13  C   UNL     1      -6.159   2.631  -4.066  0.00  0.00    +0.241 C 
ATOM     14  O   UNL     1      -6.571   2.810  -5.192  0.00  0.00    -0.273 OA
ATOM     15  H   UNL     1      -4.504   2.527  -2.919  0.00  0.00    +0.155 HD
BRANCH  12  20
ATOM     16  C   UNL     1      -1.204   3.845  -8.019  0.00  0.00    +0.044 C 
ATOM     17  C   UNL     1      -2.168   3.537  -6.902  0.00  0.00    -0.050 A 
ATOM     18  C   UNL     1      -3.243   2.697  -7.131  0.00  0.00    +0.008 A 
ATOM     19  C   UNL     1      -4.129   2.413  -6.111  0.00  0.00    -0.029 A 
ATOM     20  C   UNL     1      -3.939   2.971  -4.853  0.00  0.00    +0.039 A 
ATOM     21  C   UNL     1      -2.862   3.817  -4.628  0.00  0.00    -0.029 A 
ATOM     22  C   UNL     1      -1.977   4.094  -5.651  0.00  0.00    +0.008 A 
ATOM     23  C   UNL     1      -2.655   4.430  -3.266  0.00  0.00    +0.045 C 
ATOM     24  C   UNL     1      -5.300   1.498  -6.361  0.00  0.00    +0.045 C 
ENDBRANCH  12  20
ENDBRANCH   4  13
ENDBRANCH   1   4
BRANCH   1  25
ATOM     25  C   UNL     1      -7.056  -0.057  -2.138  0.00  0.00    +0.146 C 
BRANCH  25  26
ATOM     26  C   UNL     1      -6.602  -0.683  -3.432  0.00  0.00    +0.005 A 
ATOM     27  C   UNL     1      -7.486  -0.805  -4.487  0.00  0.00    +0.008 A 
ATOM     28  C   UNL     1      -7.068  -1.374  -5.676  0.00  0.00    +0.000 A 
ATOM     29  C   UNL     1      -5.770  -1.831  -5.807  0.00  0.00    +0.003 A 
ATOM     30  C   UNL     1      -4.886  -1.714  -4.751  0.00  0.00    +0.038 A 
ATOM     31  C   UNL     1      -5.302  -1.140  -3.561  0.00  0.00    +0.128 A 
ATOM     32  F   UNL     1      -4.439  -1.025  -2.528  0.00  0.00    -0.205 F 
ENDBRANCH  25  26
ENDBRANCH   1  25
BRANCH   2  33
ATOM     33  C   UNL     1      -4.911   0.565  -0.387  0.00  0.00    +0.100 C 
BRANCH  33  34
ATOM     34  C   UNL     1      -4.025   1.205   0.684  0.00  0.00    +0.012 C 
ATOM     35  C   UNL     1      -2.551   0.798   0.717  0.00  0.00    +0.031 C 
ATOM     36  C   UNL     1      -3.505   0.302   1.805  0.00  0.00    -0.024 C 
ATOM     37  C   UNL     1      -3.911  -1.173   1.770  0.00  0.00    +0.012 C 
ATOM     38  C   UNL     1      -3.367   0.916   3.200  0.00  0.00    +0.012 C 
BRANCH  35  39
ATOM     39  C   UNL     1      -2.082  -0.203  -0.307  0.00  0.00    -0.016 A 
ATOM     40  C   UNL     1      -2.118  -0.058  -1.641  0.00  0.00    +0.017 A 
ATOM     41  N   UNL     1      -1.606  -1.173  -2.246  0.00  0.00    -0.358 N 
ATOM     42  H   UNL     1      -1.534  -1.304  -3.204  0.00  0.00    +0.166 HD
ATOM     43  C   UNL     1      -1.207  -2.082  -1.291  0.00  0.00    +0.047 A 
ATOM     44  C   UNL     1      -1.486  -1.513  -0.035  0.00  0.00    +0.003 A 
ATOM     45  C   UNL     1      -1.177  -2.216   1.131  0.00  0.00    +0.010 A 
ATOM     46  C   UNL     1      -0.609  -3.456   1.046  0.00  0.00    +0.001 A 
ATOM     47  C   UNL     1      -0.336  -4.022  -0.191  0.00  0.00    +0.002 A 
ATOM     48  C   UNL     1      -0.633  -3.347  -1.355  0.00  0.00    +0.026 A 
ATOM     49  C   UNL     1      -2.655   1.150  -2.365  0.00  0.00    +0.063 C 
ENDBRANCH  35  39
ENDBRANCH  33  34
ENDBRANCH   2  33
TORSDOF 8
