REMARK  Name = ZINC63372365
REMARK  6 active torsions:
REMARK  status: ('A' for Active; 'I' for Inactive)
REMARK    1  A    between atoms: C_1  and  C_2
REMARK    2  A    between atoms: C_2  and  C_3
REMARK    3  A    between atoms: C_6  and  N_9
REMARK    4  A    between atoms: C_12  and  C_19
REMARK    5  A    between atoms: C_26  and  O_31
REMARK    6  A    between atoms: O_31  and  C_32
REMARK                            x       y       z     vdW  Elec       q    Type
REMARK                         _______ _______ _______ _____ _____    ______ ____
ROOT
ATOM      1  N   UNL     1      -5.322  -1.968   0.042  0.00  0.00    -0.229 N 
ATOM      2  C   UNL     1      -5.992  -2.108  -1.119  0.00  0.00    +0.270 A 
ATOM      3  O   UNL     1      -5.459  -1.814  -2.174  0.00  0.00    -0.267 OA
ATOM      4  C   UNL     1      -7.311  -2.596  -1.104  0.00  0.00    +0.101 A 
ATOM      5  C   UNL     1      -7.884  -2.918   0.090  0.00  0.00    +0.263 A 
ATOM      6  N   UNL     1      -7.166  -2.761   1.249  0.00  0.00    -0.274 N 
ATOM      7  H   UNL     1      -7.570  -2.989   2.101  0.00  0.00    +0.173 HD
ATOM      8  C   UNL     1      -5.904  -2.297   1.210  0.00  0.00    +0.337 A 
ATOM      9  O   UNL     1      -5.281  -2.168   2.247  0.00  0.00    -0.246 OA
ATOM     10  O   UNL     1      -9.149  -3.389   0.133  0.00  0.00    -0.267 OA
ENDROOT
BRANCH   4  11
ATOM     11  C   UNL     1      -8.079  -2.760  -2.389  0.00  0.00    +0.121 C 
ATOM     12  C   UNL     1      -8.301  -1.390  -3.036  0.00  0.00    +0.128 C 
ATOM     13  C   UNL     1      -8.927  -1.659  -4.400  0.00  0.00    -0.035 C 
ATOM     14  C   UNL     1     -10.042  -0.945  -4.449  0.00  0.00    +0.003 A 
ATOM     15  C   UNL     1     -11.023  -0.724  -5.522  0.00  0.00    +0.055 A 
ATOM     16  C   UNL     1     -12.085   0.074  -5.224  0.00  0.00    +0.121 A 
ATOM     17  C   UNL     1     -12.284   0.681  -3.975  0.00  0.00    +0.047 A 
ATOM     18  C   UNL     1     -11.440   0.550  -2.919  0.00  0.00    +0.029 A 
ATOM     19  C   UNL     1     -10.250  -0.287  -3.121  0.00  0.00    +0.043 A 
ATOM     20  N   UNL     1      -9.260  -0.569  -2.298  0.00  0.00    -0.376 N 
ATOM     21  C   UNL     1      -8.327  -2.655  -5.363  0.00  0.00    +0.048 C 
ATOM     22  C   UNL     1      -8.048  -3.929  -4.545  0.00  0.00    +0.086 C 
ATOM     23  N   UNL     1      -7.309  -3.595  -3.325  0.00  0.00    -0.307 NA
ATOM     24  H   UNL     1      -6.422  -3.166  -3.546  0.00  0.00    +0.123 HD
ATOM     25  H   UNL     1      -9.177  -0.292  -1.372  0.00  0.00    +0.160 HD
BRANCH  16  26
ATOM     26  O   UNL     1     -13.009   0.297  -6.196  0.00  0.00    -0.495 OA
ATOM     27  C   UNL     1     -14.114   1.138  -5.859  0.00  0.00    +0.277 C 
ENDBRANCH  16  26
ENDBRANCH   4  11
BRANCH   1  31
ATOM     28  C   UNL     1      -1.412  -0.524   0.011  0.00  0.00    -0.047 A 
ATOM     29  C   UNL     1      -1.647  -1.883  -0.090  0.00  0.00    +0.005 A 
ATOM     30  C   UNL     1      -2.941  -2.365  -0.080  0.00  0.00    +0.026 A 
ATOM     31  C   UNL     1      -4.008  -1.483   0.032  0.00  0.00    +0.054 A 
ATOM     32  C   UNL     1      -3.769  -0.119   0.134  0.00  0.00    +0.026 A 
ATOM     33  C   UNL     1      -2.472   0.356   0.128  0.00  0.00    +0.005 A 
BRANCH  28  35
ATOM     34  C   UNL     1       0.536   0.052   1.433  0.00  0.00    +0.009 C 
ATOM     35  C   UNL     1       0.001  -0.002   0.000  0.00  0.00    +0.032 C 
ENDBRANCH  28  35
ENDBRANCH   1  31
TORSDOF 4
