REMARK  Name = ZINC64683778
REMARK  10 active torsions:
REMARK  status: ('A' for Active; 'I' for Inactive)
REMARK    1  A    between atoms: C_1  and  C_2
REMARK    2  A    between atoms: C_5  and  N_9
REMARK    3  A    between atoms: C_6  and  C_8
REMARK    4  A    between atoms: C_10  and  S_15
REMARK    5  A    between atoms: S_15  and  C_16
REMARK    6  A    between atoms: C_16  and  C_17
REMARK    7  A    between atoms: N_19  and  CA_20
REMARK    8  A    between atoms: CA_20  and  CB_22
REMARK    9  A    between atoms: CA_20  and  C_32
REMARK   10  A    between atoms: CB_22  and  CG_23
REMARK                            x       y       z     vdW  Elec       q    Type
REMARK                         _______ _______ _______ _____ _____    ______ ____
ROOT
ATOM      1  C   UNK A   0       0.797  -5.032  -3.005  0.00  0.00    +0.167 C 
ENDROOT
BRANCH   1   2
ATOM      2  C   UNK A   0       0.933  -4.779  -4.484  0.00  0.00    +0.224 C 
ATOM      3  O   UNK A   0      -0.026  -4.407  -5.127  0.00  0.00    -0.275 OA
ATOM      4  N   TRP A   1       2.121  -4.965  -5.093  0.00  0.00    -0.301 N 
ATOM      5  H   TRP A   1       2.888  -5.262  -4.579  0.00  0.00    +0.150 HD
BRANCH   4   6
ATOM      6  CA  TRP A   1       2.254  -4.718  -6.531  0.00  0.00    +0.190 C 
BRANCH   6   7
ATOM      7  C   TRP A   1       1.834  -5.949  -7.293  0.00  0.00    +0.376 C 
ATOM      8  O   TRP A   1       1.345  -5.841  -8.405  0.00  0.00    -0.244 OA
ATOM      9  OXT TRP A   1       1.983  -7.053  -6.797  0.00  0.00    -0.244 OA
ENDBRANCH   6   7
BRANCH   6  10
ATOM     10  CB  TRP A   1       3.711  -4.387  -6.860  0.00  0.00    +0.067 C 
BRANCH  10  11
ATOM     11  CG  TRP A   1       4.094  -3.090  -6.196  0.00  0.00    -0.039 C 
ATOM     12  CD2 TRP A   1       4.712  -2.938  -5.002  0.00  0.00    -0.001 A 
ATOM     13  CE3 TRP A   1       5.193  -3.899  -4.003  0.00  0.00    +0.010 A 
ATOM     14  CZ3 TRP A   1       5.785  -3.435  -2.879  0.00  0.00    +0.001 A 
ATOM     15  CH2 TRP A   1       5.949  -2.063  -2.644  0.00  0.00    +0.002 A 
ATOM     16  CZ2 TRP A   1       5.533  -1.120  -3.516  0.00  0.00    +0.026 A 
ATOM     17  CE2 TRP A   1       4.897  -1.495  -4.732  0.00  0.00    +0.043 A 
ATOM     18  NE1 TRP A   1       4.413  -0.781  -5.719  0.00  0.00    -0.380 N 
ATOM     19  CD1 TRP A   1       3.870  -1.693  -6.732  0.00  0.00    +0.144 C 
ATOM     20  HE1 TRP A   1       4.417   0.187  -5.773  0.00  0.00    +0.160 HD
ENDBRANCH  10  11
ENDBRANCH   6  10
ENDBRANCH   4   6
ENDBRANCH   1   2
BRANCH   1  21
ATOM     21  S   UNK A   0      -0.909  -4.695  -2.489  0.00  0.00    -0.114 S 
BRANCH  21  23
ATOM     22  N   UNK A   0       0.058  -4.167  -0.021  0.00  0.00    -0.254 N 
ATOM     23  C   UNK A   0      -0.905  -5.044  -0.708  0.00  0.00    +0.203 C 
ATOM     24  N   UNK A   0      -0.440  -6.430  -0.457  0.00  0.00    -0.320 NA
ATOM     25  N   UNK A   0       0.984  -6.237  -0.128  0.00  0.00    +0.411 N 
ATOM     26  N   UNK A   0       0.982  -4.968   0.607  0.00  0.00    -0.265 NA
ATOM     27  H   UNK A   0      -0.937  -6.843   0.317  0.00  0.00    +0.106 HD
ATOM     28  H   UNK A   0       1.321  -6.989   0.455  0.00  0.00    -0.031 HD
ATOM     29  H   UNK A   0       0.736  -5.114   1.575  0.00  0.00    +0.125 HD
ATOM     30  H   UNK A   0       1.537  -6.159  -0.968  0.00  0.00    -0.031 HD
BRANCH  22  35
ATOM     31  C   UNK A   0      -0.018   1.503   0.010  0.00  0.00    +0.044 C 
ATOM     32  C   UNK A   0       0.002  -0.004   0.002  0.00  0.00    -0.050 A 
ATOM     33  C   UNK A   0       0.006  -0.687  -1.200  0.00  0.00    +0.005 A 
ATOM     34  C   UNK A   0       0.024  -2.068  -1.212  0.00  0.00    +0.025 A 
ATOM     35  C   UNK A   0       0.040  -2.771  -0.013  0.00  0.00    +0.048 A 
ATOM     36  C   UNK A   0       0.036  -2.081   1.192  0.00  0.00    -0.028 A 
ATOM     37  C   UNK A   0       0.023  -0.700   1.196  0.00  0.00    +0.008 A 
ATOM     38  C   UNK A   0       0.052  -2.839   2.495  0.00  0.00    +0.046 C 
ENDBRANCH  22  35
ENDBRANCH  21  23
ENDBRANCH   1  21
TORSDOF 8
