REMARK  Name = ZINC38613520
REMARK  7 active torsions:
REMARK  status: ('A' for Active; 'I' for Inactive)
REMARK    1  A    between atoms: C_1  and  C_2
REMARK    2  A    between atoms: C_5  and  N_11
REMARK    3  A    between atoms: C_7  and  N_8
REMARK    4  A    between atoms: C_15  and  N_19
REMARK    5  A    between atoms: N_19  and  C_20
REMARK    6  A    between atoms: C_20  and  C_21
REMARK    7  A    between atoms: C_21  and  C_22
REMARK                            x       y       z     vdW  Elec       q    Type
REMARK                         _______ _______ _______ _____ _____    ______ ____
ROOT
ATOM      1  N   UNL     1       0.084  -4.115  -0.564  0.00  0.00    -0.212 N 
ATOM      2  C   UNL     1       0.226  -5.046   0.387  0.00  0.00    +0.225 C 
ATOM      3  O   UNL     1       0.341  -4.826   1.574  0.00  0.00    -0.275 OA
ATOM      4  C   UNL     1       0.220  -6.417  -0.253  0.00  0.00    +0.090 C 
ATOM      5  C   UNL     1       0.048  -6.114  -1.755  0.00  0.00    +0.026 C 
ATOM      6  C   UNL     1      -0.031  -4.603  -1.805  0.00  0.00    +0.213 C 
ATOM      7  O   UNL     1      -0.173  -3.941  -2.810  0.00  0.00    -0.277 OA
ENDROOT
BRANCH   1  12
ATOM      8  C   UNL     1      -0.045   1.443   0.576  0.00  0.00    +0.046 C 
ATOM      9  C   UNL     1      -0.011  -0.033   0.273  0.00  0.00    -0.020 A 
ATOM     10  C   UNL     1      -1.147  -0.668  -0.193  0.00  0.00    +0.007 A 
ATOM     11  C   UNL     1      -1.119  -2.020  -0.471  0.00  0.00    +0.024 A 
ATOM     12  C   UNL     1       0.052  -2.742  -0.283  0.00  0.00    +0.046 A 
ATOM     13  C   UNL     1       1.192  -2.101   0.185  0.00  0.00    +0.057 A 
ATOM     14  C   UNL     1       1.159  -0.747   0.456  0.00  0.00    +0.131 A 
BRANCH  14  15
ATOM     15  N   UNL     1       2.375  -0.062   0.949  0.00  0.00    +0.057 N 
ATOM     16  O   UNL     1       2.627   1.061   0.581  0.00  0.00    -0.126 OA
ATOM     17  O   UNL     1       3.116  -0.626   1.720  0.00  0.00    -0.126 OA
ENDBRANCH  14  15
ENDBRANCH   1  12
BRANCH   5  18
ATOM     18  N   UNL     1       1.204  -6.604  -2.518  0.00  0.00    +0.387 N 
ATOM     19  H   UNL     1       2.029  -6.093  -2.244  0.00  0.00    -0.085 HD
ATOM     20  H   UNL     1       1.339  -7.586  -2.329  0.00  0.00    -0.085 HD
BRANCH  18  21
ATOM     21  C   UNL     1       0.961  -6.411  -3.954  0.00  0.00    -0.077 C 
BRANCH  21  22
ATOM     22  C   UNL     1       2.165  -6.922  -4.748  0.00  0.00    +0.018 C 
BRANCH  22  23
ATOM     23  C   UNL     1       1.916  -6.723  -6.221  0.00  0.00    -0.024 A 
ATOM     24  C   UNL     1       1.412  -7.629  -7.074  0.00  0.00    +0.087 A 
ATOM     25  N   UNL     1       1.330  -7.091  -8.330  0.00  0.00    -0.360 N 
ATOM     26  H   UNL     1       0.997  -7.554  -9.114  0.00  0.00    +0.165 HD
ATOM     27  C   UNL     1       1.790  -5.793  -8.314  0.00  0.00    +0.047 A 
ATOM     28  C   UNL     1       2.172  -5.504  -6.991  0.00  0.00    +0.003 A 
ATOM     29  C   UNL     1       2.677  -4.243  -6.671  0.00  0.00    +0.010 A 
ATOM     30  C   UNL     1       2.796  -3.293  -7.647  0.00  0.00    +0.001 A 
ATOM     31  C   UNL     1       2.418  -3.571  -8.952  0.00  0.00    +0.002 A 
ATOM     32  C   UNL     1       1.925  -4.813  -9.292  0.00  0.00    +0.026 A 
ENDBRANCH  22  23
ENDBRANCH  21  22
ENDBRANCH  18  21
ENDBRANCH   5  18
TORSDOF 6
