REMARK  Name = ZINC37425954
REMARK  13 active torsions:
REMARK  status: ('A' for Active; 'I' for Inactive)
REMARK    1  A    between atoms: C_1  and  C_2
REMARK    2  A    between atoms: C_2  and  C_3
REMARK    3  A    between atoms: C_2  and  C_4
REMARK    4  A    between atoms: C_2  and  C_5
REMARK    5  A    between atoms: N_8  and  C_10
REMARK    6  A    between atoms: N_17  and  C_29
REMARK    7  A    between atoms: C_22  and  C_24
REMARK    8  A    between atoms: C_29  and  C_30
REMARK    9  A    between atoms: N_32  and  C_33
REMARK   10  A    between atoms: C_33  and  C_34
REMARK   11  A    between atoms: C_34  and  N_35
REMARK   12  A    between atoms: N_35  and  C_36
REMARK   13  A    between atoms: N_35  and  C_37
REMARK                            x       y       z     vdW  Elec       q    Type
REMARK                         _______ _______ _______ _____ _____    ______ ____
ROOT
ATOM      1  C   UNL     1      -0.256  -2.664   1.140  0.00  0.00    +0.075 A 
ATOM      2  C   UNL     1       0.869  -2.305   1.883  0.00  0.00    +0.034 A 
ATOM      3  C   UNL     1       1.857  -3.184   1.595  0.00  0.00    +0.136 A 
ATOM      4  N   UNL     1       1.378  -4.074   0.694  0.00  0.00    -0.218 N 
ATOM      5  N   UNL     1       0.044  -3.726   0.430  0.00  0.00    -0.169 NA
ATOM      6  N   UNL     1       3.136  -3.137   2.168  0.00  0.00    -0.246 N 
ATOM      7  C   UNL     1       3.237  -3.009   3.495  0.00  0.00    +0.231 C 
ATOM      8  O   UNL     1       4.289  -2.663   3.991  0.00  0.00    -0.274 OA
ATOM      9  C   UNL     1       2.055  -3.292   4.373  0.00  0.00    +0.166 C 
ATOM     10  S   UNL     1       1.012  -1.807   4.550  0.00  0.00    -0.138 S 
ATOM     11  C   UNL     1       0.999  -1.149   2.842  0.00  0.00    +0.118 C 
ENDROOT
BRANCH   4  12
ATOM     12  C   UNL     1       2.083  -5.146   0.130  0.00  0.00    +0.068 A 
ATOM     13  C   UNL     1       2.895  -5.941   0.929  0.00  0.00    +0.030 A 
ATOM     14  C   UNL     1       3.588  -6.998   0.372  0.00  0.00    +0.040 A 
ATOM     15  C   UNL     1       3.475  -7.264  -0.982  0.00  0.00    +0.124 A 
ATOM     16  C   UNL     1       2.667  -6.473  -1.780  0.00  0.00    +0.040 A 
ATOM     17  C   UNL     1       1.967  -5.419  -1.226  0.00  0.00    +0.030 A 
ATOM     18  F   UNL     1       4.155  -8.298  -1.525  0.00  0.00    -0.205 F 
ENDBRANCH   4  12
BRANCH  11  19
ATOM     19  C   UNL     1      -0.169  -0.214   2.669  0.00  0.00    +0.007 A 
ATOM     20  C   UNL     1      -1.375  -0.230   3.288  0.00  0.00    +0.012 A 
ATOM     21  C   UNL     1      -2.306   0.740   2.968  0.00  0.00    +0.008 A 
ATOM     22  C   UNL     1      -1.986   1.679   2.044  0.00  0.00    +0.045 A 
ATOM     23  S   UNL     1      -0.322   1.208   1.600  0.00  0.00    -0.100 S 
ENDBRANCH  11  19
BRANCH   1  25
ATOM     24  C   UNL     1      -2.526  -2.618   0.143  0.00  0.00    +0.017 C 
ATOM     25  C   UNL     1      -1.587  -1.957   1.154  0.00  0.00    +0.007 C 
ATOM     26  C   UNL     1      -1.388  -0.487   0.780  0.00  0.00    +0.017 C 
ATOM     27  C   UNL     1      -2.198  -2.050   2.554  0.00  0.00    +0.017 C 
ENDBRANCH   1  25
BRANCH   6  28
ATOM     28  C   UNL     1       4.336  -3.226   1.331  0.00  0.00    +0.210 C 
BRANCH  28  29
ATOM     29  C   UNL     1       4.833  -1.838   1.018  0.00  0.00    +0.231 C 
ATOM     30  O   UNL     1       4.245  -0.871   1.452  0.00  0.00    -0.274 OA
ATOM     31  N   UNL     1       5.933  -1.673   0.257  0.00  0.00    -0.316 N 
ATOM     32  H   UNL     1       6.404  -2.446  -0.090  0.00  0.00    +0.149 HD
BRANCH  31  33
ATOM     33  C   UNL     1       6.417  -0.324  -0.048  0.00  0.00    +0.085 C 
BRANCH  33  34
ATOM     34  C   UNL     1       7.669  -0.416  -0.922  0.00  0.00    -0.061 C 
BRANCH  34  35
ATOM     35  N   UNL     1       8.154   0.936  -1.227  0.00  0.00    +0.377 N 
ATOM     36  C   UNL     1       8.594   1.590   0.013  0.00  0.00    -0.097 C 
ATOM     37  C   UNL     1       9.284   0.852  -2.163  0.00  0.00    -0.097 C 
ATOM     38  H   UNL     1       7.410   1.474  -1.645  0.00  0.00    -0.083 HD
ENDBRANCH  34  35
ENDBRANCH  33  34
ENDBRANCH  31  33
ENDBRANCH  28  29
ENDBRANCH   6  28
TORSDOF 8
