REMARK  Name = ZINC03443100
REMARK  8 active torsions:
REMARK  status: ('A' for Active; 'I' for Inactive)
REMARK    1  A    between atoms: N_9  and  C_20
REMARK    2  A    between atoms: C_10  and  S_12
REMARK    3  A    between atoms: S_12  and  C_13
REMARK    4  A    between atoms: C_13  and  C_14
REMARK    5  A    between atoms: C_20  and  C_21
REMARK    6  A    between atoms: C_21  and  C_22
REMARK    7  A    between atoms: C_25  and  S_28
REMARK    8  A    between atoms: S_28  and  N_31
REMARK                            x       y       z     vdW  Elec       q    Type
REMARK                         _______ _______ _______ _____ _____    ______ ____
ROOT
ATOM      1  C   UNL     1       2.381   1.422  -0.013  0.00  0.00    +0.001 A 
ATOM      2  C   UNL     1       1.161   2.086   0.002  0.00  0.00    +0.002 A 
ATOM      3  C   UNL     1      -0.017   1.394   0.010  0.00  0.00    +0.028 A 
ATOM      4  C   UNL     1       0.002  -0.004   0.002  0.00  0.00    +0.079 A 
ATOM      5  C   UNL     1       1.245  -0.677  -0.013  0.00  0.00    +0.065 A 
ATOM      6  C   UNL     1       2.432   0.055  -0.021  0.00  0.00    +0.015 A 
ATOM      7  C   UNL     1       1.239  -2.146  -0.021  0.00  0.00    +0.262 A 
ATOM      8  O   UNL     1       2.277  -2.782  -0.035  0.00  0.00    -0.267 OA
ATOM      9  N   UNL     1       0.036  -2.766  -0.012  0.00  0.00    -0.287 N 
ATOM     10  C   UNL     1      -1.119  -2.036   0.003  0.00  0.00    +0.173 A 
ATOM     11  N   UNL     1      -1.136  -0.726   0.009  0.00  0.00    -0.223 NA
ENDROOT
BRANCH  10  12
ATOM     12  S   UNL     1      -2.656  -2.897   0.014  0.00  0.00    -0.078 S 
BRANCH  12  13
ATOM     13  C   UNL     1      -3.801  -1.496   0.032  0.00  0.00    +0.173 C 
BRANCH  13  14
ATOM     14  C   UNL     1      -5.219  -2.005   0.044  0.00  0.00    +0.231 C 
ATOM     15  O   UNL     1      -5.434  -3.199   0.040  0.00  0.00    -0.274 OA
ATOM     16  N   UNL     1      -6.248  -1.135   0.058  0.00  0.00    -0.240 N 
ATOM     17  C   UNL     1      -7.516  -1.591   0.068  0.00  0.00    +0.303 C 
ATOM     18  O   UNL     1      -7.732  -2.787   0.065  0.00  0.00    -0.253 OA
ATOM     19  N   UNL     1      -8.545  -0.721   0.083  0.00  0.00    -0.313 N 
ATOM     20  H   UNL     1      -6.076  -0.180   0.061  0.00  0.00    +0.159 HD
ATOM     21  H   UNL     1      -8.373   0.234   0.086  0.00  0.00    +0.146 HD
ATOM     22  H   UNL     1      -9.458  -1.049   0.090  0.00  0.00    +0.146 HD
ENDBRANCH  13  14
ENDBRANCH  12  13
ENDBRANCH  10  12
BRANCH   9  23
ATOM     23  C   UNL     1      -0.028  -4.229  -0.018  0.00  0.00    +0.132 C 
BRANCH  23  24
ATOM     24  C   UNL     1      -0.037  -4.746   1.422  0.00  0.00    +0.057 C 
BRANCH  24  25
ATOM     25  C   UNL     1      -0.103  -6.251   1.415  0.00  0.00    -0.046 A 
ATOM     26  C   UNL     1      -1.329  -6.889   1.430  0.00  0.00    +0.005 A 
ATOM     27  C   UNL     1      -1.390  -8.270   1.419  0.00  0.00    +0.029 A 
ATOM     28  C   UNL     1      -0.224  -9.013   1.404  0.00  0.00    +0.105 A 
ATOM     29  C   UNL     1       1.002  -8.375   1.395  0.00  0.00    +0.029 A 
ATOM     30  C   UNL     1       1.063  -6.994   1.401  0.00  0.00    +0.005 A 
BRANCH  28  31
ATOM     31  S   UNL     1      -0.302 -10.774   1.395  0.00  0.00    +0.056 S 
ATOM     32  O   UNL     1      -1.569 -11.122   0.855  0.00  0.00    -0.153 OA
ATOM     33  O   UNL     1       0.919 -11.231   0.829  0.00  0.00    -0.153 OA
BRANCH  31  34
ATOM     34  N   UNL     1      -0.307 -11.271   2.975  0.00  0.00    -0.204 NA
ATOM     35  H   UNL     1      -0.761 -12.092   3.223  0.00  0.00    +0.144 HD
ATOM     36  H   UNL     1       0.144 -10.742   3.651  0.00  0.00    +0.144 HD
ENDBRANCH  31  34
ENDBRANCH  28  31
ENDBRANCH  24  25
ENDBRANCH  23  24
ENDBRANCH   9  23
TORSDOF 8
