REMARK  Name = ZINC20707886
REMARK  3 active torsions:
REMARK  status: ('A' for Active; 'I' for Inactive)
REMARK    1  A    between atoms: C_4  and  O_7
REMARK    2  A    between atoms: O_7  and  C_8
REMARK    3  A    between atoms: C_21  and  C_24
REMARK                            x       y       z     vdW  Elec       q    Type
REMARK                         _______ _______ _______ _____ _____    ______ ____
ROOT
ATOM      1  C   UNL     1       3.683   1.472   0.143  0.00  0.00    +0.129 A 
ATOM      2  C   UNL     1       3.376   2.824   0.179  0.00  0.00    +0.048 A 
ATOM      3  C   UNL     1       4.386   3.764   0.177  0.00  0.00    +0.027 A 
ATOM      4  C   UNL     1       5.716   3.366   0.132  0.00  0.00    +0.032 A 
ATOM      5  C   UNL     1       6.021   2.001   0.080  0.00  0.00    -0.016 A 
ATOM      6  C   UNL     1       5.009   1.067   0.088  0.00  0.00    +0.052 A 
ATOM      7  C   UNL     1       7.449   1.623   0.002  0.00  0.00    +0.049 C 
ATOM      8  C   UNL     1       7.942   0.312   0.496  0.00  0.00    -0.023 C 
ATOM      9  C   UNL     1       9.187   0.465   0.932  0.00  0.00    -0.030 C 
ATOM     10  C   UNL     1       9.616   1.927   0.790  0.00  0.00    +0.033 C 
ATOM     11  C   UNL     1       8.264   2.651   0.843  0.00  0.00    +0.029 C 
ATOM     12  C   UNL     1       8.154   3.966   0.092  0.00  0.00    +0.105 C 
ATOM     13  N   UNL     1       6.724   4.341   0.152  0.00  0.00    -0.336 N 
ATOM     14  H   UNL     1       6.436   5.401   0.214  0.00  0.00    +0.147 HD
ENDROOT
BRANCH  12  15
ATOM     15  C   UNL     1       8.584   3.785  -1.341  0.00  0.00    -0.026 A 
ATOM     16  C   UNL     1       9.925   3.955  -1.682  0.00  0.00    +0.006 A 
ATOM     17  C   UNL     1      10.348   3.795  -2.965  0.00  0.00    +0.009 A 
ATOM     18  C   UNL     1       9.419   3.462  -3.967  0.00  0.00    -0.018 A 
ATOM     19  C   UNL     1       9.818   3.293  -5.304  0.00  0.00    +0.008 A 
ATOM     20  C   UNL     1       8.891   2.971  -6.247  0.00  0.00    +0.001 A 
ATOM     21  C   UNL     1       7.549   2.805  -5.907  0.00  0.00    +0.001 A 
ATOM     22  C   UNL     1       7.127   2.962  -4.623  0.00  0.00    +0.008 A 
ATOM     23  C   UNL     1       8.055   3.294  -3.621  0.00  0.00    -0.018 A 
ATOM     24  C   UNL     1       7.657   3.463  -2.284  0.00  0.00    +0.014 A 
ENDBRANCH  12  15
BRANCH   1  25
ATOM     25  O   UNL     1       2.688   0.546   0.155  0.00  0.00    -0.456 OA
BRANCH  25  29
ATOM     26  C   UNL     1       1.417  -0.882   3.811  0.00  0.00    +0.000 A 
ATOM     27  C   UNL     1       0.850  -1.365   2.647  0.00  0.00    +0.004 A 
ATOM     28  C   UNL     1       1.277  -0.893   1.421  0.00  0.00    +0.046 A 
ATOM     29  C   UNL     1       2.270   0.075   1.360  0.00  0.00    +0.128 A 
ATOM     30  C   UNL     1       2.834   0.562   2.530  0.00  0.00    +0.046 A 
ATOM     31  C   UNL     1       2.407   0.082   3.753  0.00  0.00    +0.004 A 
ENDBRANCH  25  29
ENDBRANCH   1  25
TORSDOF 3
