REMARK  Name = ZINC23358026
REMARK  16 active torsions:
REMARK  status: ('A' for Active; 'I' for Inactive)
REMARK    1  A    between atoms: C_1  and  C_2
REMARK    2  A    between atoms: C_2  and  C_3
REMARK    3  A    between atoms: C_7  and  C_32
REMARK    4  A    between atoms: C_8  and  N_9
REMARK    5  A    between atoms: C_10  and  C_12
REMARK    6  A    between atoms: C_12  and  N_13
REMARK    7  A    between atoms: N_13  and  C_14
REMARK    8  A    between atoms: N_13  and  C_18
REMARK    9  A    between atoms: C_14  and  C_15
REMARK   10  A    between atoms: C_15  and  C_16
REMARK   11  A    between atoms: C_15  and  C_17
REMARK   12  A    between atoms: C_19  and  N_31
REMARK   13  A    between atoms: N_20  and  C_27
REMARK   14  A    between atoms: C_27  and  C_28
REMARK   15  A    between atoms: C_28  and  C_29
REMARK   16  A    between atoms: C_28  and  C_30
REMARK                            x       y       z     vdW  Elec       q    Type
REMARK                         _______ _______ _______ _____ _____    ______ ____
ROOT
ATOM      1  N   UNL     1       0.190  -4.603   1.460  0.00  0.00    -0.314 N 
ENDROOT
BRANCH   1   2
ATOM      2  C   UNL     1      -0.098  -3.859   0.292  0.00  0.00    +0.134 A 
ATOM      3  C   UNL     1      -1.181  -3.023   0.249  0.00  0.00    +0.127 A 
ATOM      4  N   UNL     1      -1.440  -2.311  -0.899  0.00  0.00    -0.280 N 
ATOM      5  C   UNL     1      -0.638  -2.438  -1.973  0.00  0.00    +0.331 A 
ATOM      6  O   UNL     1      -0.885  -1.804  -2.982  0.00  0.00    -0.246 OA
ATOM      7  N   UNL     1       0.434  -3.250  -1.947  0.00  0.00    -0.273 N 
ATOM      8  H   UNL     1       1.082  -3.334  -2.832  0.00  0.00    +0.173 HD
ATOM      9  C   UNL     1       0.725  -3.967  -0.844  0.00  0.00    +0.277 A 
ATOM     10  O   UNL     1       1.696  -4.704  -0.830  0.00  0.00    -0.266 OA
BRANCH   3  11
ATOM     11  N   UNL     1      -2.004  -2.897   1.345  0.00  0.00    -0.343 N 
ATOM     12  H   UNL     1      -2.873  -2.224   1.305  0.00  0.00    +0.144 HD
ATOM     13  H   UNL     1      -1.793  -3.469   2.261  0.00  0.00    +0.144 HD
ENDBRANCH   3  11
BRANCH   4  14
ATOM     14  C   UNL     1      -2.597  -1.414  -0.956  0.00  0.00    +0.131 C 
BRANCH  14  15
ATOM     15  C   UNL     1      -2.183  -0.018  -0.486  0.00  0.00    +0.003 C 
ATOM     16  C   UNL     1      -1.167   0.570  -1.468  0.00  0.00    +0.009 C 
ATOM     17  C   UNL     1      -3.416   0.886  -0.426  0.00  0.00    +0.009 C 
ENDBRANCH  14  15
ENDBRANCH   4  14
ENDBRANCH   1   2
BRANCH   1  18
ATOM     18  C   UNL     1       1.475  -4.194   2.041  0.00  0.00    +0.201 C 
BRANCH  18  20
ATOM     19  N   UNL     1       2.664  -4.431   4.197  0.00  0.00    -0.284 N 
ATOM     20  C   UNL     1       1.569  -4.698   3.458  0.00  0.00    +0.235 C 
ATOM     21  O   UNL     1       0.659  -5.344   3.933  0.00  0.00    -0.274 OA
ATOM     22  H   UNL     1       3.470  -3.809   3.781  0.00  0.00    +0.155 HD
BRANCH  19  28
ATOM     23  C   UNL     1       3.867  -5.730   5.840  0.00  0.00    -0.026 A 
ATOM     24  C   UNL     1       3.973  -6.236   7.121  0.00  0.00    +0.005 A 
ATOM     25  C   UNL     1       2.994  -5.962   8.058  0.00  0.00    +0.001 A 
ATOM     26  C   UNL     1       1.905  -5.181   7.716  0.00  0.00    +0.005 A 
ATOM     27  C   UNL     1       1.796  -4.667   6.439  0.00  0.00    -0.029 A 
ATOM     28  C   UNL     1       2.775  -4.945   5.494  0.00  0.00    +0.040 A 
ATOM     29  C   UNL     1       0.612  -3.811   6.069  0.00  0.00    +0.045 C 
BRANCH  23  31
ATOM     30  C   UNL     1       5.950  -4.886   4.794  0.00  0.00    +0.009 C 
ATOM     31  C   UNL     1       4.934  -6.029   4.820  0.00  0.00    +0.033 C 
ENDBRANCH  23  31
ENDBRANCH  19  28
ENDBRANCH  18  20
ENDBRANCH   1  18
BRANCH   1  32
ATOM     32  C   UNL     1       0.172  -6.045   1.183  0.00  0.00    +0.109 C 
BRANCH  32  33
ATOM     33  C   UNL     1      -1.276  -6.522   1.052  0.00  0.00    +0.000 C 
ATOM     34  C   UNL     1      -1.292  -7.990   0.624  0.00  0.00    +0.009 C 
ATOM     35  C   UNL     1      -1.985  -6.375   2.400  0.00  0.00    +0.009 C 
ENDBRANCH  32  33
ENDBRANCH   1  32
TORSDOF 10
