REMARK  Name = ZINC08914084
REMARK  12 active torsions:
REMARK  status: ('A' for Active; 'I' for Inactive)
REMARK    1  A    between atoms: C_1  and  C_2
REMARK    2  A    between atoms: C_9  and  O_20
REMARK    3  A    between atoms: C_12  and  C_14
REMARK    4  A    between atoms: C_23  and  O_38
REMARK    5  A    between atoms: C_24  and  C_31
REMARK    6  A    between atoms: C_27  and  O_30
REMARK    7  A    between atoms: C_32  and  C_33
REMARK    8  A    between atoms: C_32  and  N_76
REMARK    9  A    between atoms: C_33  and  O_34
REMARK   10  A    between atoms: C_33  and  O_36
REMARK   11  A    between atoms: O_34  and  C_35
REMARK   12  A    between atoms: O_36  and  C_37
REMARK                            x       y       z     vdW  Elec       q    Type
REMARK                         _______ _______ _______ _____ _____    ______ ____
ROOT
ATOM      1  C   UNL     1       0.802   5.715  -1.607  0.00  0.00    +0.014 C 
ATOM      2  C   UNL     1      -0.372   6.242  -2.434  0.00  0.00    +0.004 C 
ATOM      3  C   UNL     1      -1.668   5.643  -1.924  0.00  0.00    +0.010 C 
ATOM      4  C   UNL     1      -1.505   4.113  -1.947  0.00  0.00    +0.005 C 
ATOM      5  C   UNL     1      -1.162   3.611  -3.345  0.00  0.00    +0.009 C 
ATOM      6  C   UNL     1       0.082   4.317  -3.909  0.00  0.00    +0.025 C 
ATOM      7  C   UNL     1      -0.209   5.806  -3.915  0.00  0.00    +0.075 C 
ATOM      8  C   UNL     1       0.931   6.708  -4.400  0.00  0.00    +0.036 C 
ATOM      9  C   UNL     1       0.587   8.077  -3.733  0.00  0.00    +0.011 C 
ATOM     10  C   UNL     1      -0.308   7.764  -2.508  0.00  0.00    +0.027 C 
ATOM     11  C   UNL     1       0.338   3.818  -5.332  0.00  0.00    +0.009 C 
ATOM     12  C   UNL     1       0.581   2.308  -5.306  0.00  0.00    +0.036 C 
ATOM     13  C   UNL     1      -0.649   1.601  -4.734  0.00  0.00    +0.079 C 
ATOM     14  C   UNL     1      -0.913   2.103  -3.313  0.00  0.00    +0.036 C 
ATOM     15  C   UNL     1      -2.145   1.396  -2.743  0.00  0.00    +0.018 C 
ATOM     16  C   UNL     1      -1.899  -0.114  -2.715  0.00  0.00    +0.032 C 
ATOM     17  C   UNL     1      -1.636  -0.615  -4.137  0.00  0.00    +0.117 C 
ATOM     18  C   UNL     1      -0.404   0.091  -4.705  0.00  0.00    +0.067 C 
ENDROOT
BRANCH  10  19
ATOM     19  C   UNL     1       0.311   8.322  -1.253  0.00  0.00    -0.022 C 
ATOM     20  C   UNL     1       1.551   8.788  -1.121  0.00  0.00    +0.094 C 
ATOM     21  C   UNL     1       1.760   9.241   0.257  0.00  0.00    +0.332 C 
ATOM     22  O   UNL     1       2.791   9.720   0.685  0.00  0.00    -0.246 OA
ATOM     23  O   UNL     1       0.641   9.043   0.980  0.00  0.00    -0.457 OA
ATOM     24  C   UNL     1      -0.354   8.454   0.097  0.00  0.00    +0.264 C 
ENDBRANCH  10  19
BRANCH  14  25
ATOM     25  C   UNL     1       0.283   1.808  -2.446  0.00  0.00    +0.060 C 
ATOM     26  N   UNL     1       0.093   1.037  -1.399  0.00  0.00    -0.388 N 
ATOM     27  H   UNL     1      -0.842   0.663  -1.200  0.00  0.00    +0.159 HD
BRANCH  26  28
ATOM     28  C   UNL     1       1.244   0.704  -0.491  0.00  0.00    +0.173 C 
BRANCH  28  29
ATOM     29  C   UNL     1       0.965   1.304   0.888  0.00  0.00    +0.268 C 
BRANCH  29  30
ATOM     30  O   UNL     1       0.880   2.727   0.781  0.00  0.00    -0.353 OA
ATOM     31  C   UNL     1       1.137   3.418   2.004  0.00  0.00    +0.197 C 
ENDBRANCH  29  30
BRANCH  29  32
ATOM     32  O   UNL     1      -0.270   0.789   1.390  0.00  0.00    -0.353 OA
ATOM     33  C   UNL     1      -0.472   1.020   2.786  0.00  0.00    +0.197 C 
ENDBRANCH  29  32
ENDBRANCH  28  29
ENDBRANCH  26  28
ENDBRANCH  14  25
BRANCH   7  34
ATOM     34  O   UNL     1      -1.404   6.075  -4.651  0.00  0.00    -0.388 OA
ATOM     35  H   UNL     1      -1.373   5.786  -5.573  0.00  0.00    +0.210 HD
ENDBRANCH   7  34
BRANCH  17  36
ATOM     36  O   UNL     1      -1.407  -2.025  -4.110  0.00  0.00    -0.392 OA
ATOM     37  H   UNL     1      -2.148  -2.538  -3.760  0.00  0.00    +0.210 HD
ENDBRANCH  17  36
BRANCH  13  38
ATOM     38  O   UNL     1      -1.784   1.881  -5.557  0.00  0.00    -0.388 OA
ATOM     39  H   UNL     1      -1.687   1.590  -6.474  0.00  0.00    +0.210 HD
ENDBRANCH  13  38
TORSDOF 9
