REMARK  Name = ZINC09580782
REMARK  8 active torsions:
REMARK  status: ('A' for Active; 'I' for Inactive)
REMARK    1  A    between atoms: C_1  and  C_2
REMARK    2  A    between atoms: C_2  and  C_24
REMARK    3  A    between atoms: N_3  and  N_4
REMARK    4  A    between atoms: C_5  and  C_7
REMARK    5  A    between atoms: C_11  and  S_13
REMARK    6  A    between atoms: S_13  and  N_16
REMARK    7  A    between atoms: N_16  and  C_17
REMARK    8  A    between atoms: C_27  and  C_30
REMARK                            x       y       z     vdW  Elec       q    Type
REMARK                         _______ _______ _______ _____ _____    ______ ____
ROOT
ATOM      1  C   UNL     1      -2.040   2.043   0.294  0.00  0.00    +0.040 A 
ATOM      2  C   UNL     1      -3.346   1.554   0.356  0.00  0.00    +0.013 A 
ATOM      3  C   UNL     1      -4.410   2.432   0.343  0.00  0.00    +0.003 A 
ATOM      4  C   UNL     1      -4.185   3.795   0.256  0.00  0.00    +0.029 A 
ATOM      5  C   UNL     1      -2.893   4.286   0.188  0.00  0.00    +0.109 A 
ATOM      6  C   UNL     1      -1.820   3.419   0.206  0.00  0.00    +0.042 A 
ENDROOT
BRANCH   1   8
ATOM      7  N   UNL     1      -1.111  -0.219   0.398  0.00  0.00    -0.203 N 
ATOM      8  C   UNL     1      -0.896   1.109   0.314  0.00  0.00    +0.263 C 
ATOM      9  O   UNL     1       0.240   1.537   0.249  0.00  0.00    -0.268 OA
ATOM     10  H   UNL     1      -2.018  -0.561   0.450  0.00  0.00    +0.178 HD
BRANCH   7  13
ATOM     11  C   UNL     1      -1.642  -2.916   0.573  0.00  0.00    +0.068 C 
ATOM     12  C   UNL     1      -0.234  -2.385   0.492  0.00  0.00    +0.063 C 
ATOM     13  N   UNL     1      -0.026  -1.106   0.411  0.00  0.00    -0.184 NA
BRANCH  12  14
ATOM     14  C   UNL     1       0.906  -3.317   0.506  0.00  0.00    -0.002 A 
ATOM     15  C   UNL     1       0.683  -4.695   0.600  0.00  0.00    +0.011 A 
ATOM     16  C   UNL     1       1.740  -5.559   0.605  0.00  0.00    +0.019 A 
ATOM     17  C   UNL     1       3.047  -5.066   0.531  0.00  0.00    +0.052 A 
ATOM     18  C   UNL     1       3.271  -3.689   0.444  0.00  0.00    +0.019 A 
ATOM     19  C   UNL     1       2.213  -2.824   0.431  0.00  0.00    +0.011 A 
BRANCH  17  20
ATOM     20  C   UNL     1       4.156  -5.972   0.544  0.00  0.00    +0.099 C 
ATOM     21  N   UNL     1       5.035  -6.691   0.554  0.00  0.00    -0.191 NA
ENDBRANCH  17  20
ENDBRANCH  12  14
ENDBRANCH   7  13
ENDBRANCH   1   8
BRANCH   5  22
ATOM     22  S   UNL     1      -2.618   6.023   0.078  0.00  0.00    +0.072 S 
ATOM     23  O   UNL     1      -3.816   6.652   0.511  0.00  0.00    -0.150 OA
ATOM     24  O   UNL     1      -1.361   6.274   0.690  0.00  0.00    -0.150 OA
BRANCH  22  25
ATOM     25  N   UNL     1      -2.445   6.390  -1.528  0.00  0.00    -0.216 N 
ATOM     26  H   UNL     1      -1.604   6.746  -1.856  0.00  0.00    +0.174 HD
BRANCH  25  27
ATOM     27  C   UNL     1      -3.510   6.188  -2.410  0.00  0.00    +0.048 A 
ATOM     28  C   UNL     1      -3.479   5.127  -3.306  0.00  0.00    +0.026 A 
ATOM     29  C   UNL     1      -4.535   4.926  -4.172  0.00  0.00    +0.022 A 
ATOM     30  C   UNL     1      -5.619   5.786  -4.156  0.00  0.00    +0.041 A 
ATOM     31  C   UNL     1      -5.650   6.847  -3.268  0.00  0.00    +0.022 A 
ATOM     32  C   UNL     1      -4.599   7.050  -2.395  0.00  0.00    +0.026 A 
ATOM     33 CL   UNL     1      -6.941   5.535  -5.252  0.00  0.00    -0.084 Cl
ENDBRANCH  25  27
ENDBRANCH  22  25
ENDBRANCH   5  22
TORSDOF 7
