REMARK  Name = ZINC20759588
REMARK  7 active torsions:
REMARK  status: ('A' for Active; 'I' for Inactive)
REMARK    1  A    between atoms: C_1  and  C_2
REMARK    2  A    between atoms: C_2  and  C_3
REMARK    3  A    between atoms: C_16  and  C_19
REMARK    4  A    between atoms: N_23  and  C_26
REMARK    5  A    between atoms: C_26  and  C_27
REMARK    6  A    between atoms: C_30  and  O_33
REMARK    7  A    between atoms: O_33  and  C_34
REMARK                            x       y       z     vdW  Elec       q    Type
REMARK                         _______ _______ _______ _____ _____    ______ ____
ROOT
ATOM      1  C   UNL     1      -2.014  -0.215  -3.667  0.00  0.00    +0.073 A 
ATOM      2  C   UNL     1      -1.513   0.606  -4.633  0.00  0.00    +0.260 A 
ATOM      3  N   UNL     1      -2.227   0.802  -5.789  0.00  0.00    -0.275 N 
ATOM      4  C   UNL     1      -3.412   0.190  -5.970  0.00  0.00    +0.332 A 
ATOM      5  N   UNL     1      -3.923  -0.624  -5.028  0.00  0.00    -0.256 N 
ATOM      6  C   UNL     1      -3.251  -0.849  -3.881  0.00  0.00    +0.263 A 
ATOM      7  O   UNL     1      -3.715  -1.591  -3.033  0.00  0.00    -0.267 OA
ATOM      8  O   UNL     1      -4.031   0.376  -7.000  0.00  0.00    -0.246 OA
ATOM      9  O   UNL     1      -0.326   1.221  -4.455  0.00  0.00    -0.267 OA
ATOM     10  H   UNL     1      -1.875   1.385  -6.479  0.00  0.00    +0.173 HD
ENDROOT
BRANCH   1  23
ATOM     11  C   UNL     1      -1.433  -0.534   0.013  0.00  0.00    -0.066 C 
ATOM     12  C   UNL     1      -1.413  -2.064   0.131  0.00  0.00    +0.022 C 
ATOM     13  C   UNL     1      -0.897  -2.620  -1.173  0.00  0.00    -0.022 A 
ATOM     14  C   UNL     1      -0.409  -3.946  -1.478  0.00  0.00    +0.003 A 
ATOM     15  C   UNL     1      -0.256  -5.104  -0.710  0.00  0.00    +0.010 A 
ATOM     16  C   UNL     1       0.253  -6.209  -1.346  0.00  0.00    +0.001 A 
ATOM     17  C   UNL     1       0.604  -6.190  -2.686  0.00  0.00    +0.002 A 
ATOM     18  C   UNL     1       0.464  -5.058  -3.470  0.00  0.00    +0.026 A 
ATOM     19  C   UNL     1      -0.051  -3.921  -2.852  0.00  0.00    +0.047 A 
ATOM     20  N   UNL     1      -0.312  -2.665  -3.319  0.00  0.00    -0.359 N 
ATOM     21  H   UNL     1      -0.161  -2.365  -4.229  0.00  0.00    +0.166 HD
ATOM     22  C   UNL     1      -0.819  -1.892  -2.310  0.00  0.00    +0.011 A 
ATOM     23  C   UNL     1      -1.248  -0.446  -2.389  0.00  0.00    +0.018 C 
ATOM     24  N   UNL     1      -2.107  -0.147  -1.234  0.00  0.00    +0.390 N 
ATOM     25  H   UNL     1      -2.972  -0.659  -1.319  0.00  0.00    -0.084 HD
ATOM     26  H   UNL     1      -2.307   0.842  -1.213  0.00  0.00    -0.084 HD
BRANCH  11  28
ATOM     27  C   UNL     1      -0.019   1.526   0.010  0.00  0.00    +0.002 C 
ATOM     28  C   UNL     1       0.002  -0.004   0.002  0.00  0.00    -0.019 C 
ENDBRANCH  11  28
ENDBRANCH   1  23
BRANCH   5  29
ATOM     29  C   UNL     1      -5.216  -1.275  -5.252  0.00  0.00    +0.165 C 
BRANCH  29  30
ATOM     30  C   UNL     1      -4.998  -2.605  -5.927  0.00  0.00    -0.027 A 
ATOM     31  C   UNL     1      -4.973  -2.683  -7.307  0.00  0.00    +0.009 A 
ATOM     32  C   UNL     1      -4.774  -3.901  -7.928  0.00  0.00    +0.046 A 
ATOM     33  C   UNL     1      -4.598  -5.046  -7.165  0.00  0.00    +0.120 A 
ATOM     34  C   UNL     1      -4.623  -4.965  -5.780  0.00  0.00    +0.046 A 
ATOM     35  C   UNL     1      -4.817  -3.744  -5.164  0.00  0.00    +0.009 A 
BRANCH  33  36
ATOM     36  O   UNL     1      -4.403  -6.245  -7.773  0.00  0.00    -0.495 OA
ATOM     37  C   UNL     1      -4.229  -7.382  -6.925  0.00  0.00    +0.277 C 
ENDBRANCH  33  36
ENDBRANCH  29  30
ENDBRANCH   5  29
TORSDOF 5
