REMARK  Name = ZINC64871190
REMARK  6 active torsions:
REMARK  status: ('A' for Active; 'I' for Inactive)
REMARK    1  A    between atoms: C_1  and  C_2
REMARK    2  A    between atoms: C_5  and  C_9
REMARK    3  A    between atoms: C_7  and  C_8
REMARK    4  A    between atoms: C_12  and  C_16
REMARK    5  A    between atoms: N_26  and  C_29
REMARK    6  A    between atoms: C_29  and  C_30
REMARK                            x       y       z     vdW  Elec       q    Type
REMARK                         _______ _______ _______ _____ _____    ______ ____
ROOT
ATOM      1  C   UNL     1      -2.566  -6.301  -1.577  0.00  0.00    -0.000 A 
ATOM      2  C   UNL     1      -3.287  -5.265  -2.151  0.00  0.00    +0.008 A 
ATOM      3  C   UNL     1      -4.379  -5.532  -2.949  0.00  0.00    +0.016 A 
ATOM      4  C   UNL     1      -4.756  -6.854  -3.176  0.00  0.00    +0.063 A 
ATOM      5  C   UNL     1      -4.025  -7.904  -2.594  0.00  0.00    +0.056 A 
ATOM      6  C   UNL     1      -2.926  -7.616  -1.799  0.00  0.00    +0.034 A 
ATOM      7  N   UNL     1      -4.423  -9.210  -2.837  0.00  0.00    -0.307 N 
ATOM      8  H   UNL     1      -3.929  -9.945  -2.442  0.00  0.00    +0.170 HD
ATOM      9  C   UNL     1      -5.489  -9.468  -3.615  0.00  0.00    +0.330 A 
ATOM     10  O   UNL     1      -5.805 -10.626  -3.804  0.00  0.00    -0.246 OA
ATOM     11  N   UNL     1      -6.218  -8.501  -4.193  0.00  0.00    -0.256 N 
ATOM     12  C   UNL     1      -5.915  -7.196  -4.020  0.00  0.00    +0.265 A 
ATOM     13  O   UNL     1      -6.581  -6.325  -4.548  0.00  0.00    -0.267 OA
ENDROOT
BRANCH   1  16
ATOM     14  C   UNL     1       0.938  -6.274  -0.510  0.00  0.00    +0.180 C 
ATOM     15  N   UNL     1      -0.294  -6.986  -0.925  0.00  0.00    -0.265 NA
ATOM     16  C   UNL     1      -1.375  -5.990  -0.709  0.00  0.00    +0.242 C 
ATOM     17  O   UNL     1      -0.763  -4.742  -1.105  0.00  0.00    -0.274 OA
ATOM     18  N   UNL     1       0.629  -4.833  -0.622  0.00  0.00    -0.177 NA
ATOM     19  H   UNL     1      -0.243  -7.260  -1.895  0.00  0.00    +0.127 HD
ATOM     20  H   UNL     1       0.735  -4.370   0.268  0.00  0.00    +0.156 HD
BRANCH  14  25
ATOM     21  C   UNL     1       5.315  -7.651  -4.023  0.00  0.00    +0.044 C 
ATOM     22  C   UNL     1       4.174  -7.292  -3.107  0.00  0.00    -0.048 A 
ATOM     23  C   UNL     1       3.176  -8.215  -2.851  0.00  0.00    +0.004 A 
ATOM     24  C   UNL     1       2.130  -7.885  -2.010  0.00  0.00    +0.007 A 
ATOM     25  C   UNL     1       2.080  -6.633  -1.426  0.00  0.00    -0.014 A 
ATOM     26  C   UNL     1       3.078  -5.712  -1.681  0.00  0.00    +0.010 A 
ATOM     27  C   UNL     1       4.127  -6.043  -2.518  0.00  0.00    -0.047 A 
ATOM     28  C   UNL     1       5.217  -5.039  -2.793  0.00  0.00    +0.044 C 
ENDBRANCH  14  25
ENDBRANCH   1  16
BRANCH  11  29
ATOM     29  C   UNL     1      -7.365  -8.867  -5.028  0.00  0.00    +0.165 C 
BRANCH  29  30
ATOM     30  C   UNL     1      -8.603  -8.948  -4.173  0.00  0.00    -0.027 A 
ATOM     31  C   UNL     1      -8.948 -10.142  -3.568  0.00  0.00    +0.007 A 
ATOM     32  C   UNL     1     -10.084 -10.217  -2.784  0.00  0.00    +0.020 A 
ATOM     33  C   UNL     1     -10.875  -9.096  -2.604  0.00  0.00    +0.041 A 
ATOM     34  C   UNL     1     -10.529  -7.901  -3.209  0.00  0.00    +0.020 A 
ATOM     35  C   UNL     1      -9.390  -7.826  -3.988  0.00  0.00    +0.007 A 
ATOM     36 CL   UNL     1     -12.302  -9.190  -1.619  0.00  0.00    -0.084 Cl
ENDBRANCH  29  30
ENDBRANCH  11  29
TORSDOF 4
