REMARK  Name = ZINC20681406
REMARK  6 active torsions:
REMARK  status: ('A' for Active; 'I' for Inactive)
REMARK    1  A    between atoms: C_4  and  N_7
REMARK    2  A    between atoms: N_7  and  S_8
REMARK    3  A    between atoms: S_8  and  C_11
REMARK    4  A    between atoms: C_24  and  C_27
REMARK    5  A    between atoms: C_30  and  O_34
REMARK    6  A    between atoms: C_32  and  O_33
REMARK                            x       y       z     vdW  Elec       q    Type
REMARK                         _______ _______ _______ _____ _____    ______ ____
ROOT
ATOM      1  C   UNL     1       6.123  -3.144   1.988  0.00  0.00    +0.109 A 
ATOM      2  C   UNL     1       6.527  -3.424   0.696  0.00  0.00    +0.030 A 
ATOM      3  C   UNL     1       5.652  -3.249  -0.357  0.00  0.00    +0.025 A 
ATOM      4  C   UNL     1       4.360  -2.790  -0.127  0.00  0.00    +0.031 A 
ATOM      5  C   UNL     1       3.963  -2.496   1.183  0.00  0.00    -0.018 A 
ATOM      6  C   UNL     1       4.843  -2.681   2.228  0.00  0.00    +0.034 A 
ATOM      7  C   UNL     1       2.591  -1.982   1.381  0.00  0.00    +0.049 C 
ATOM      8  C   UNL     1       1.849  -2.186   2.651  0.00  0.00    -0.023 C 
ATOM      9  C   UNL     1       0.553  -2.262   2.378  0.00  0.00    -0.030 C 
ATOM     10  C   UNL     1       0.329  -2.146   0.869  0.00  0.00    +0.033 C 
ATOM     11  C   UNL     1       1.661  -2.672   0.334  0.00  0.00    +0.029 C 
ATOM     12  C   UNL     1       2.107  -2.135  -1.014  0.00  0.00    +0.108 C 
ATOM     13  N   UNL     1       3.486  -2.634  -1.209  0.00  0.00    -0.336 N 
ATOM     14  H   UNL     1       3.841  -2.890  -2.218  0.00  0.00    +0.147 HD
ENDROOT
BRANCH  12  15
ATOM     15  C   UNL     1       2.096  -0.627  -1.004  0.00  0.00    +0.015 A 
ATOM     16  C   UNL     1       3.268   0.070  -0.785  0.00  0.00    +0.012 A 
ATOM     17  C   UNL     1       3.261   1.452  -0.775  0.00  0.00    +0.046 A 
ATOM     18  C   UNL     1       2.076   2.142  -0.984  0.00  0.00    +0.120 A 
ATOM     19  C   UNL     1       0.898   1.445  -1.203  0.00  0.00    +0.091 A 
ATOM     20  C   UNL     1       0.908   0.058  -1.213  0.00  0.00    +0.125 A 
BRANCH  20  21
ATOM     21  O   UNL     1      -0.245  -0.628  -1.427  0.00  0.00    -0.506 OA
ATOM     22  H   UNL     1      -1.187  -0.084  -1.593  0.00  0.00    +0.292 HD
ENDBRANCH  20  21
BRANCH  18  23
ATOM     23  O   UNL     1       2.070   3.501  -0.975  0.00  0.00    -0.507 OA
ATOM     24  H   UNL     1       1.130   4.048  -1.141  0.00  0.00    +0.292 HD
ENDBRANCH  18  23
ENDBRANCH  12  15
BRANCH   1  25
ATOM     25  S   UNL     1       7.241  -3.377   3.330  0.00  0.00    +0.072 S 
ATOM     26  O   UNL     1       8.546  -3.423   2.769  0.00  0.00    -0.150 OA
ATOM     27  O   UNL     1       6.875  -2.437   4.332  0.00  0.00    -0.150 OA
BRANCH  25  28
ATOM     28  N   UNL     1       6.943  -4.879   3.961  0.00  0.00    -0.216 N 
ATOM     29  H   UNL     1       6.580  -4.980   4.994  0.00  0.00    +0.174 HD
BRANCH  28  33
ATOM     30  C   UNL     1       7.569  -8.275   1.634  0.00  0.00    +0.000 A 
ATOM     31  C   UNL     1       8.650  -7.581   2.147  0.00  0.00    +0.002 A 
ATOM     32  C   UNL     1       8.446  -6.454   2.919  0.00  0.00    +0.024 A 
ATOM     33  C   UNL     1       7.153  -6.018   3.180  0.00  0.00    +0.048 A 
ATOM     34  C   UNL     1       6.070  -6.720   2.667  0.00  0.00    +0.024 A 
ATOM     35  C   UNL     1       6.281  -7.843   1.892  0.00  0.00    +0.002 A 
ENDBRANCH  28  33
ENDBRANCH  25  28
ENDBRANCH   1  25
TORSDOF 6
