REMARK  Name = ZINC22875146
REMARK  7 active torsions:
REMARK  status: ('A' for Active; 'I' for Inactive)
REMARK    1  A    between atoms: C_1  and  C_2
REMARK    2  A    between atoms: C_2  and  C_30
REMARK    3  A    between atoms: C_4  and  N_10
REMARK    4  A    between atoms: C_6  and  C_8
REMARK    5  A    between atoms: C_6  and  C_9
REMARK    6  A    between atoms: C_18  and  C_20
REMARK    7  A    between atoms: C_20  and  N_21
REMARK                            x       y       z     vdW  Elec       q    Type
REMARK                         _______ _______ _______ _____ _____    ______ ____
ROOT
ATOM      1  N   UNL     1      -0.629   4.316   0.034  0.00  0.00    -0.326 N 
ATOM      2  C   UNL     1      -1.643   3.375   0.036  0.00  0.00    +0.131 A 
ATOM      3  C   UNL     1      -1.338   1.986   0.020  0.00  0.00    +0.051 A 
ATOM      4  C   UNL     1      -0.016   1.338   0.009  0.00  0.00    -0.025 A 
ATOM      5  C   UNL     1       0.002  -0.004   0.002  0.00  0.00    -0.004 A 
ATOM      6  S   UNL     1      -1.708  -0.491   0.012  0.00  0.00    -0.073 S 
ATOM      7  C   UNL     1      -2.447   1.120   0.028  0.00  0.00    +0.114 A 
ATOM      8  N   UNL     1      -3.683   1.583   0.041  0.00  0.00    -0.223 NA
ATOM      9  C   UNL     1      -3.905   2.883   0.050  0.00  0.00    +0.146 A 
ATOM     10  N   UNL     1      -2.911   3.753   0.048  0.00  0.00    -0.216 NA
ATOM     11  C   UNL     1       1.403  -0.554  -0.011  0.00  0.00    +0.043 C 
ATOM     12  C   UNL     1       2.289   0.633   0.428  0.00  0.00    +0.010 C 
ATOM     13  C   UNL     1       1.431   1.839  -0.002  0.00  0.00    +0.037 C 
ATOM     14  H   UNL     1       0.422   3.992   0.024  0.00  0.00    +0.148 HD
ENDROOT
BRANCH   1  18
ATOM     15  C   UNL     1      -1.080   8.340   1.763  0.00  0.00    -0.010 C 
ATOM     16  C   UNL     1      -0.085   8.023   0.639  0.00  0.00    -0.072 C 
ATOM     17  C   UNL     1       0.219   6.527   0.635  0.00  0.00    +0.009 C 
ATOM     18  C   UNL     1      -0.956   5.747   0.045  0.00  0.00    +0.069 C 
ATOM     19  C   UNL     1      -1.184   6.223  -1.389  0.00  0.00    +0.009 C 
ATOM     20  C   UNL     1      -1.503   7.715  -1.410  0.00  0.00    -0.072 C 
ATOM     21  N   UNL     1      -0.567   8.505  -0.638  0.00  0.00    +0.386 N 
ATOM     22  C   UNL     1      -2.943   7.938  -0.931  0.00  0.00    -0.010 C 
ATOM     23  C   UNL     1      -1.433   8.185  -2.880  0.00  0.00    -0.010 C 
ATOM     24  C   UNL     1       1.229   8.764   0.970  0.00  0.00    -0.010 C 
ATOM     25  H   UNL     1      -1.087   9.464  -0.495  0.00  0.00    -0.084 HD
ATOM     26  H   UNL     1       0.283   8.647  -1.321  0.00  0.00    -0.084 HD
ENDBRANCH   1  18
BRANCH   9  27
ATOM     27  C   UNL     1      -5.325   3.387   0.064  0.00  0.00    +0.160 C 
BRANCH  27  28
ATOM     28  N   UNL     1      -5.776   3.542   1.453  0.00  0.00    -0.291 NA
ATOM     29  C   UNL     1      -5.869   2.239   2.126  0.00  0.00    +0.113 C 
ATOM     30  C   UNL     1      -6.283   2.452   3.584  0.00  0.00    +0.175 C 
ATOM     31  O   UNL     1      -7.519   3.170   3.623  0.00  0.00    -0.377 OA
ATOM     32  C   UNL     1      -7.465   4.444   2.977  0.00  0.00    +0.175 C 
ATOM     33  C   UNL     1      -7.062   4.252   1.513  0.00  0.00    +0.113 C 
ENDBRANCH  27  28
ENDBRANCH   9  27
TORSDOF 3
