REMARK  Name = ZINC16646989
REMARK  12 active torsions:
REMARK  status: ('A' for Active; 'I' for Inactive)
REMARK    1  A    between atoms: C_1  and  C_2
REMARK    2  A    between atoms: C_2  and  C_3
REMARK    3  A    between atoms: C_2  and  C_4
REMARK    4  A    between atoms: C_2  and  N_5
REMARK    5  A    between atoms: N_8  and  C_9
REMARK    6  A    between atoms: N_8  and  C_34
REMARK    7  A    between atoms: C_9  and  C_10
REMARK    8  A    between atoms: N_12  and  C_13
REMARK    9  A    between atoms: N_12  and  C_25
REMARK   10  A    between atoms: C_13  and  C_14
REMARK   11  A    between atoms: C_14  and  C_15
REMARK   12  A    between atoms: C_25  and  C_26
REMARK                            x       y       z     vdW  Elec       q    Type
REMARK                         _______ _______ _______ _____ _____    ______ ____
ROOT
ATOM      1  C   UNL     1      -3.850  -1.242  -1.137  0.00  0.00    +0.233 C 
ATOM      2  O   UNL     1      -3.807  -0.049  -0.923  0.00  0.00    -0.274 OA
ATOM      3  N   UNL     1      -2.708  -1.953  -1.222  0.00  0.00    -0.296 N 
ENDROOT
BRANCH   1   4
ATOM      4  C   UNL     1      -5.180  -1.929  -1.308  0.00  0.00    +0.205 C 
BRANCH   4   8
ATOM      5  N   UNL     1      -7.867   0.178   0.051  0.00  0.00    -0.294 N 
ATOM      6  C   UNL     1      -6.811  -0.656  -0.021  0.00  0.00    +0.303 C 
ATOM      7  O   UNL     1      -6.359  -1.153   0.992  0.00  0.00    -0.253 OA
ATOM      8  N   UNL     1      -6.257  -0.940  -1.216  0.00  0.00    -0.274 N 
ATOM      9  H   UNL     1      -8.274   0.517  -0.762  0.00  0.00    +0.151 HD
BRANCH   5  11
ATOM     10  C   UNL     1      -7.312   1.284   2.160  0.00  0.00    +0.031 C 
ATOM     11  C   UNL     1      -8.402   0.571   1.357  0.00  0.00    +0.028 C 
ATOM     12  C   UNL     1      -9.590   1.515   1.158  0.00  0.00    +0.031 C 
ATOM     13  C   UNL     1      -8.863  -0.675   2.116  0.00  0.00    +0.031 C 
ENDBRANCH   5  11
BRANCH   8  14
ATOM     14  C   UNL     1      -6.730  -0.258  -2.424  0.00  0.00    +0.078 C 
ATOM     15  C   UNL     1      -6.110  -0.674  -3.759  0.00  0.00    +0.024 C 
ATOM     16  C   UNL     1      -5.752   0.678  -3.136  0.00  0.00    +0.024 C 
ENDBRANCH   8  14
ENDBRANCH   4   8
ENDBRANCH   1   4
BRANCH   3  17
ATOM     17  C   UNL     1      -1.414  -1.270  -1.166  0.00  0.00    +0.113 C 
BRANCH  17  18
ATOM     18  C   UNL     1      -0.948  -1.178   0.288  0.00  0.00    +0.056 C 
BRANCH  18  19
ATOM     19  C   UNL     1       0.384  -0.475   0.346  0.00  0.00    -0.021 A 
ATOM     20  C   UNL     1       1.594  -1.057   0.369  0.00  0.00    +0.087 A 
ATOM     21  N   UNL     1       2.570  -0.100   0.422  0.00  0.00    -0.360 N 
ATOM     22  H   UNL     1       3.524  -0.278   0.448  0.00  0.00    +0.165 HD
ATOM     23  C   UNL     1       1.998   1.153   0.435  0.00  0.00    +0.047 A 
ATOM     24  C   UNL     1       0.604   0.973   0.388  0.00  0.00    +0.003 A 
ATOM     25  C   UNL     1      -0.242   2.083   0.395  0.00  0.00    +0.010 A 
ATOM     26  C   UNL     1       0.289   3.341   0.438  0.00  0.00    +0.001 A 
ATOM     27  C   UNL     1       1.664   3.524   0.484  0.00  0.00    +0.002 A 
ATOM     28  C   UNL     1       2.518   2.442   0.484  0.00  0.00    +0.026 A 
ENDBRANCH  18  19
ENDBRANCH  17  18
ENDBRANCH   3  17
BRANCH   3  29
ATOM     29  C   UNL     1      -2.762  -3.410  -1.371  0.00  0.00    +0.143 C 
BRANCH  29  30
ATOM     30  C   UNL     1      -2.692  -3.769  -2.832  0.00  0.00    -0.029 A 
ATOM     31  C   UNL     1      -3.854  -4.009  -3.542  0.00  0.00    +0.007 A 
ATOM     32  C   UNL     1      -3.791  -4.332  -4.884  0.00  0.00    +0.022 A 
ATOM     33  C   UNL     1      -2.564  -4.428  -5.516  0.00  0.00    +0.059 A 
ATOM     34  C   UNL     1      -1.400  -4.193  -4.804  0.00  0.00    +0.060 A 
ATOM     35  C   UNL     1      -1.465  -3.863  -3.462  0.00  0.00    +0.026 A 
ATOM     36 CL   UNL     1       0.141  -4.311  -5.596  0.00  0.00    -0.082 Cl
ATOM     37 CL   UNL     1      -2.484  -4.841  -7.200  0.00  0.00    -0.082 Cl
ENDBRANCH  29  30
ENDBRANCH   3  29
TORSDOF 9
