REMARK  Name = ZINC03377009
REMARK  6 active torsions:
REMARK  status: ('A' for Active; 'I' for Inactive)
REMARK    1  A    between atoms: C_1  and  C_2
REMARK    2  A    between atoms: C_3  and  N_15
REMARK    3  A    between atoms: N_6  and  C_9
REMARK    4  A    between atoms: N_7  and  C_8
REMARK    5  A    between atoms: C_16  and  C_18
REMARK    6  A    between atoms: C_18  and  N_19
REMARK                            x       y       z     vdW  Elec       q    Type
REMARK                         _______ _______ _______ _____ _____    ______ ____
ROOT
ATOM      1  N   UNL     1       7.193   2.765  -0.090  0.00  0.00    -0.278 N 
ATOM      2  C   UNL     1       7.847   1.594   0.041  0.00  0.00    +0.235 C 
ATOM      3  O   UNL     1       7.229   0.577   0.278  0.00  0.00    -0.274 OA
ATOM      4  H   UNL     1       7.692   3.589  -0.206  0.00  0.00    +0.155 HD
ENDROOT
BRANCH   1   7
ATOM      5  C   UNL     1       5.524   4.409   1.892  0.00  0.00    +0.067 C 
ATOM      6  C   UNL     1       5.016   3.503   0.800  0.00  0.00    +0.059 A 
ATOM      7  C   UNL     1       5.785   2.793  -0.057  0.00  0.00    +0.121 A 
ATOM      8  C   UNL     1       4.881   2.059  -0.944  0.00  0.00    +0.293 A 
ATOM      9  O   UNL     1       5.203   1.310  -1.848  0.00  0.00    -0.264 OA
ATOM     10  N   UNL     1       3.623   2.371  -0.568  0.00  0.00    -0.216 N 
ATOM     11  N   UNL     1       3.700   3.267   0.504  0.00  0.00    -0.282 N 
ATOM     12  C   UNL     1       2.554   3.856   1.202  0.00  0.00    +0.171 C 
BRANCH  10  13
ATOM     13  C   UNL     1       2.448   1.887  -1.152  0.00  0.00    +0.067 A 
ATOM     14  C   UNL     1       2.304   1.894  -2.533  0.00  0.00    +0.028 A 
ATOM     15  C   UNL     1       1.142   1.416  -3.107  0.00  0.00    +0.002 A 
ATOM     16  C   UNL     1       0.123   0.932  -2.307  0.00  0.00    +0.000 A 
ATOM     17  C   UNL     1       0.263   0.924  -0.932  0.00  0.00    +0.002 A 
ATOM     18  C   UNL     1       1.423   1.401  -0.352  0.00  0.00    +0.028 A 
ENDBRANCH  10  13
ENDBRANCH   1   7
BRANCH   2  19
ATOM     19  C   UNL     1       9.346   1.547  -0.106  0.00  0.00    +0.214 C 
BRANCH  19  20
ATOM     20  N   UNL     1       9.812   0.171   0.079  0.00  0.00    -0.215 N 
ATOM     21  C   UNL     1      10.172  -0.354   1.269  0.00  0.00    +0.247 C 
ATOM     22  O   UNL     1      10.172   0.201   2.346  0.00  0.00    -0.273 OA
ATOM     23  C   UNL     1      10.573  -1.781   0.974  0.00  0.00    +0.117 C 
ATOM     24  C   UNL     1      12.035  -2.008   1.350  0.00  0.00    +0.040 C 
ATOM     25  C   UNL     1      12.233  -1.590   2.806  0.00  0.00    +0.038 C 
ATOM     26  C   UNL     1      11.196  -2.234   3.689  0.00  0.00    -0.044 A 
ATOM     27  C   UNL     1      11.452  -2.285   5.053  0.00  0.00    +0.004 A 
ATOM     28  C   UNL     1      10.542  -2.857   5.917  0.00  0.00    +0.000 A 
ATOM     29  C   UNL     1       9.363  -3.383   5.423  0.00  0.00    +0.000 A 
ATOM     30  C   UNL     1       9.107  -3.334   4.068  0.00  0.00    +0.004 A 
ATOM     31  C   UNL     1      10.024  -2.763   3.196  0.00  0.00    -0.042 A 
ATOM     32  C   UNL     1       9.689  -2.762   1.727  0.00  0.00    +0.070 C 
ATOM     33  N   UNL     1      10.387  -1.913  -0.476  0.00  0.00    -0.285 N 
ATOM     34  C   UNL     1       9.940  -0.720  -0.912  0.00  0.00    +0.310 C 
ATOM     35  O   UNL     1       9.680  -0.480  -2.075  0.00  0.00    -0.252 OA
ATOM     36  H   UNL     1      10.554  -2.704  -1.013  0.00  0.00    +0.151 HD
ENDBRANCH  19  20
ENDBRANCH   2  19
TORSDOF 4
