REMARK  Name = ZINC14004749
REMARK  12 active torsions:
REMARK  status: ('A' for Active; 'I' for Inactive)
REMARK    1  A    between atoms: C_1  and  C_2
REMARK    2  A    between atoms: C_2  and  C_4
REMARK    3  A    between atoms: C_2  and  O_29
REMARK    4  A    between atoms: N_6  and  N_7
REMARK    5  A    between atoms: C_8  and  C_10
REMARK    6  A    between atoms: C_13  and  N_16
REMARK    7  A    between atoms: C_17  and  C_19
REMARK    8  A    between atoms: C_22  and  C_25
REMARK    9  A    between atoms: C_25  and  C_26
REMARK   10  A    between atoms: C_25  and  C_27
REMARK   11  A    between atoms: C_25  and  C_28
REMARK   12  A    between atoms: O_29  and  C_30
REMARK                            x       y       z     vdW  Elec       q    Type
REMARK                         _______ _______ _______ _____ _____    ______ ____
ROOT
ATOM      1  C   UNL     1       3.478   4.101  -0.490  0.00  0.00    +0.038 A 
ATOM      2  C   UNL     1       2.144   4.521  -0.501  0.00  0.00    +0.015 A 
ATOM      3  C   UNL     1       1.144   3.624  -0.802  0.00  0.00    +0.024 A 
ATOM      4  C   UNL     1       1.459   2.301  -1.095  0.00  0.00    +0.034 A 
ATOM      5  C   UNL     1       2.785   1.879  -1.081  0.00  0.00    +0.024 A 
ATOM      6  C   UNL     1       3.790   2.772  -0.786  0.00  0.00    +0.015 A 
ENDROOT
BRANCH   1   8
ATOM      7  N   UNL     1       5.837   4.654  -0.159  0.00  0.00    -0.230 N 
ATOM      8  C   UNL     1       4.552   5.060  -0.169  0.00  0.00    +0.260 C 
ATOM      9  O   UNL     1       4.279   6.217   0.088  0.00  0.00    -0.269 OA
ATOM     10  H   UNL     1       6.056   3.731  -0.364  0.00  0.00    +0.173 HD
BRANCH   7  13
ATOM     11  C   UNL     1       8.143   5.157   0.156  0.00  0.00    +0.270 C 
ATOM     12  O   UNL     1       8.416   4.003  -0.100  0.00  0.00    -0.270 OA
ATOM     13  N   UNL     1       6.858   5.564   0.146  0.00  0.00    -0.231 N 
ATOM     14  H   UNL     1       6.639   6.486   0.351  0.00  0.00    +0.173 HD
BRANCH  11  16
ATOM     15  C   UNL     1       9.303   7.214  -0.600  0.00  0.00    +0.062 C 
ATOM     16  C   UNL     1       9.240   6.136   0.484  0.00  0.00    +0.257 C 
BRANCH  16  17
ATOM     17  O   UNL     1      10.491   5.447   0.544  0.00  0.00    -0.480 OA
BRANCH  17  18
ATOM     18  C   UNL     1      11.467   6.006   1.306  0.00  0.00    +0.122 A 
ATOM     19  C   UNL     1      12.663   5.332   1.507  0.00  0.00    +0.045 A 
ATOM     20  C   UNL     1      13.656   5.905   2.278  0.00  0.00    +0.004 A 
ATOM     21  C   UNL     1      13.456   7.144   2.857  0.00  0.00    +0.000 A 
ATOM     22  C   UNL     1      12.263   7.816   2.662  0.00  0.00    +0.004 A 
ATOM     23  C   UNL     1      11.268   7.250   1.888  0.00  0.00    +0.045 A 
ENDBRANCH  17  18
ENDBRANCH  16  17
ENDBRANCH  11  16
ENDBRANCH   7  13
ENDBRANCH   1   8
BRANCH   4  24
ATOM     24  N   UNL     1       0.444   1.396  -1.400  0.00  0.00    -0.282 N 
ATOM     25  C   UNL     1       0.668   0.405  -2.285  0.00  0.00    +0.248 C 
ATOM     26  O   UNL     1       1.724   0.354  -2.886  0.00  0.00    -0.270 OA
ATOM     27  H   UNL     1      -0.425   1.482  -0.977  0.00  0.00    +0.155 HD
BRANCH  25  28
ATOM     28  C   UNL     1      -0.369  -0.621  -2.524  0.00  0.00    +0.037 A 
ATOM     29  C   UNL     1      -1.579  -0.568  -1.831  0.00  0.00    +0.013 A 
ATOM     30  C   UNL     1      -2.545  -1.526  -2.063  0.00  0.00    +0.005 A 
ATOM     31  C   UNL     1      -2.312  -2.542  -2.972  0.00  0.00    -0.042 A 
ATOM     32  C   UNL     1      -1.112  -2.603  -3.659  0.00  0.00    +0.005 A 
ATOM     33  C   UNL     1      -0.140  -1.649  -3.440  0.00  0.00    +0.013 A 
BRANCH  31  34
ATOM     34  C   UNL     1      -3.369  -3.588  -3.216  0.00  0.00    -0.013 C 
ATOM     35  C   UNL     1      -2.810  -4.969  -2.867  0.00  0.00    +0.015 C 
ATOM     36  C   UNL     1      -4.588  -3.295  -2.339  0.00  0.00    +0.015 C 
ATOM     37  C   UNL     1      -3.782  -3.563  -4.689  0.00  0.00    +0.015 C 
ENDBRANCH  31  34
ENDBRANCH  25  28
ENDBRANCH   4  24
TORSDOF 8
