REMARK  Name = ZINC66214827
REMARK  9 active torsions:
REMARK  status: ('A' for Active; 'I' for Inactive)
REMARK    1  A    between atoms: C_1  and  C_2
REMARK    2  A    between atoms: C_2  and  C_3
REMARK    3  A    between atoms: C_3  and  C_5
REMARK    4  A    between atoms: C_3  and  N_6
REMARK    5  A    between atoms: C_7  and  C_9
REMARK    6  A    between atoms: C_12  and  N_15
REMARK    7  A    between atoms: C_16  and  C_18
REMARK    8  A    between atoms: C_18  and  N_19
REMARK    9  A    between atoms: N_19  and  C_20
REMARK                            x       y       z     vdW  Elec       q    Type
REMARK                         _______ _______ _______ _____ _____    ______ ____
ROOT
ATOM      1  N   UNL     1      -2.416   1.505  -8.189  0.00  0.00    -0.284 N 
ATOM      2  C   UNL     1      -3.567   2.193  -8.049  0.00  0.00    +0.234 C 
ATOM      3  O   UNL     1      -3.915   2.574  -6.952  0.00  0.00    -0.274 OA
ATOM      4  H   UNL     1      -2.098   1.267  -9.074  0.00  0.00    +0.155 HD
ENDROOT
BRANCH   1   8
ATOM      5  C   UNL     1      -0.227   0.399  -4.823  0.00  0.00    +0.037 A 
ATOM      6  C   UNL     1      -1.622   0.451  -4.765  0.00  0.00    +0.015 A 
ATOM      7  C   UNL     1      -2.343   0.817  -5.879  0.00  0.00    +0.024 A 
ATOM      8  C   UNL     1      -1.683   1.135  -7.062  0.00  0.00    +0.033 A 
ATOM      9  C   UNL     1      -0.294   1.085  -7.123  0.00  0.00    +0.024 A 
ATOM     10  C   UNL     1       0.433   0.725  -6.011  0.00  0.00    +0.015 A 
BRANCH   5  12
ATOM     11  N   UNL     1      -0.088  -0.306  -2.485  0.00  0.00    -0.309 N 
ATOM     12  C   UNL     1       0.549   0.007  -3.630  0.00  0.00    +0.244 C 
ATOM     13  O   UNL     1       1.763  -0.032  -3.680  0.00  0.00    -0.270 OA
ATOM     14  H   UNL     1      -1.057  -0.275  -2.444  0.00  0.00    +0.149 HD
BRANCH  11  15
ATOM     15  C   UNL     1       0.682  -0.695  -1.300  0.00  0.00    +0.070 C 
ATOM     16  C   UNL     1       0.995  -2.192  -1.365  0.00  0.00    +0.028 C 
BRANCH  15  18
ATOM     17  C   UNL     1      -0.341   1.112   0.089  0.00  0.00    +0.005 C 
ATOM     18  C   UNL     1      -0.135  -0.398  -0.041  0.00  0.00    +0.018 C 
ENDBRANCH  15  18
ENDBRANCH  11  15
ENDBRANCH   5  12
ENDBRANCH   1   8
BRANCH   2  19
ATOM     19  C   UNL     1      -4.419   2.490  -9.256  0.00  0.00    +0.198 C 
BRANCH  19  20
ATOM     20  N   UNL     1      -5.605   3.244  -8.843  0.00  0.00    -0.334 N 
ATOM     21  H   UNL     1      -5.734   3.471  -7.908  0.00  0.00    +0.147 HD
BRANCH  20  22
ATOM     22  C   UNL     1      -6.551   3.635  -9.794  0.00  0.00    +0.048 A 
ATOM     23  C   UNL     1      -6.371   3.306 -11.131  0.00  0.00    +0.045 A 
ATOM     24  C   UNL     1      -7.307   3.695 -12.070  0.00  0.00    +0.061 A 
ATOM     25  C   UNL     1      -8.425   4.413 -11.679  0.00  0.00    +0.061 A 
ATOM     26  C   UNL     1      -8.608   4.742 -10.348  0.00  0.00    +0.043 A 
ATOM     27  C   UNL     1      -7.677   4.351  -9.404  0.00  0.00    +0.063 A 
ATOM     28 CL   UNL     1      -7.911   4.758  -7.732  0.00  0.00    -0.082 Cl
ATOM     29 CL   UNL     1      -9.600   4.900 -12.861  0.00  0.00    -0.082 Cl
ATOM     30 CL   UNL     1      -7.082   3.284 -13.742  0.00  0.00    -0.082 Cl
ENDBRANCH  20  22
ENDBRANCH  19  20
ENDBRANCH   2  19
TORSDOF 7
