REMARK  Name = ZINC64380700
REMARK  9 active torsions:
REMARK  status: ('A' for Active; 'I' for Inactive)
REMARK    1  A    between atoms: C_7  and  C_10
REMARK    2  A    between atoms: C_10  and  C_11
REMARK    3  A    between atoms: C_11  and  C_13
REMARK    4  A    between atoms: C_11  and  N_20
REMARK    5  A    between atoms: N_15  and  C_16
REMARK    6  A    between atoms: C_16  and  C_17
REMARK    7  A    between atoms: C_17  and  C_18
REMARK    8  A    between atoms: C_18  and  O_19
REMARK    9  A    between atoms: C_21  and  O_32
REMARK                            x       y       z     vdW  Elec       q    Type
REMARK                         _______ _______ _______ _____ _____    ______ ____
ROOT
ATOM      1  C   UNL     1       0.358  -3.575  -1.466  0.00  0.00    +0.170 C 
ENDROOT
BRANCH   1   2
ATOM      2  N   UNL     1       1.542  -4.161  -2.099  0.00  0.00    -0.244 N 
ATOM      3  C   UNL     1       2.176  -3.466  -3.220  0.00  0.00    +0.300 C 
ATOM      4  N   UNL     1       2.752  -4.435  -4.159  0.00  0.00    -0.303 N 
ATOM      5  C   UNL     1       3.456  -5.521  -3.652  0.00  0.00    +0.042 A 
ATOM      6  C   UNL     1       4.480  -6.123  -4.365  0.00  0.00    +0.024 A 
ATOM      7  C   UNL     1       5.144  -7.207  -3.824  0.00  0.00    +0.002 A 
ATOM      8  C   UNL     1       4.793  -7.698  -2.577  0.00  0.00    +0.001 A 
ATOM      9  C   UNL     1       3.778  -7.108  -1.852  0.00  0.00    +0.015 A 
ATOM     10  C   UNL     1       3.104  -6.010  -2.383  0.00  0.00    +0.058 A 
ATOM     11  C   UNL     1       2.033  -5.327  -1.634  0.00  0.00    +0.252 C 
ATOM     12  O   UNL     1       1.593  -5.813  -0.610  0.00  0.00    -0.270 OA
ATOM     13  H   UNL     1       2.644  -4.319  -5.116  0.00  0.00    +0.150 HD
BRANCH   3  14
ATOM     14  O   UNL     1       3.213  -2.617  -2.725  0.00  0.00    -0.359 OA
ATOM     15  H   UNL     1       3.679  -2.123  -3.413  0.00  0.00    +0.213 HD
ENDBRANCH   3  14
ENDBRANCH   1   2
BRANCH   1  16
ATOM     16  C   UNL     1      -0.811  -4.512  -1.624  0.00  0.00    +0.234 C 
ATOM     17  O   UNL     1      -0.670  -5.565  -2.208  0.00  0.00    -0.274 OA
ATOM     18  N   UNL     1      -2.015  -4.179  -1.117  0.00  0.00    -0.314 N 
ATOM     19  H   UNL     1      -2.128  -3.337  -0.650  0.00  0.00    +0.149 HD
BRANCH  18  20
ATOM     20  C   UNL     1      -3.152  -5.090  -1.271  0.00  0.00    +0.106 C 
BRANCH  20  21
ATOM     21  C   UNL     1      -4.389  -4.478  -0.610  0.00  0.00    +0.046 C 
BRANCH  21  22
ATOM     22  C   UNL     1      -5.576  -5.430  -0.771  0.00  0.00    +0.157 C 
BRANCH  22  23
ATOM     23  O   UNL     1      -6.731  -4.858  -0.153  0.00  0.00    -0.395 OA
ATOM     24  H   UNL     1      -7.524  -5.409  -0.217  0.00  0.00    +0.209 HD
ENDBRANCH  22  23
ENDBRANCH  21  22
ENDBRANCH  20  21
ENDBRANCH  18  20
ENDBRANCH   1  16
BRANCH   1  25
ATOM     25  C   UNL     1       0.634  -3.350   0.022  0.00  0.00    +0.065 C 
BRANCH  25  32
ATOM     26  C   UNL     1       0.695   1.210   0.527  0.00  0.00    +0.001 A 
ATOM     27  C   UNL     1       1.986   1.746   0.642  0.00  0.00    +0.002 A 
ATOM     28  C   UNL     1       3.098   0.982   0.607  0.00  0.00    +0.026 A 
ATOM     29  C   UNL     1       2.997  -0.428   0.448  0.00  0.00    +0.043 A 
ATOM     30  N   UNL     1       3.910  -1.367   0.384  0.00  0.00    -0.380 N 
ATOM     31  C   UNL     1       3.239  -2.660   0.212  0.00  0.00    +0.144 C 
ATOM     32  C   UNL     1       1.757  -2.358   0.181  0.00  0.00    -0.039 C 
ATOM     33  C   UNL     1       1.645  -1.018   0.324  0.00  0.00    -0.001 A 
ATOM     34  C   UNL     1       0.487  -0.117   0.373  0.00  0.00    +0.010 A 
ATOM     35  H   UNL     1       4.868  -1.229   0.440  0.00  0.00    +0.160 HD
ENDBRANCH  25  32
ENDBRANCH   1  25
TORSDOF 9
