REMARK  Name = ZINC38700845
REMARK  13 active torsions:
REMARK  status: ('A' for Active; 'I' for Inactive)
REMARK    1  A    between atoms: C_1  and  C_2
REMARK    2  A    between atoms: C_2  and  C_3
REMARK    3  A    between atoms: C_3  and  C_4
REMARK    4  A    between atoms: C_4  and  O_5
REMARK    5  A    between atoms: O_5  and  C_6
REMARK    6  A    between atoms: C_11  and  C_12
REMARK    7  A    between atoms: C_17  and  O_26
REMARK    8  A    between atoms: C_21  and  N_25
REMARK    9  A    between atoms: C_22  and  C_23
REMARK   10  A    between atoms: O_26  and  C_27
REMARK   11  A    between atoms: C_27  and  C_29
REMARK   12  A    between atoms: C_30  and  C_39
REMARK   13  A    between atoms: C_33  and  C_38
REMARK                            x       y       z     vdW  Elec       q    Type
REMARK                         _______ _______ _______ _____ _____    ______ ____
ROOT
ATOM      1  C   UNL     1      -5.449  -3.565  -0.001  0.00  0.00    +0.101 C 
ATOM      2  C   UNL     1      -6.244  -3.835   1.248  0.00  0.00    +0.008 A 
ATOM      3  C   UNL     1      -5.749  -3.421   2.473  0.00  0.00    +0.012 A 
ATOM      4  C   UNL     1      -6.464  -3.659   3.629  0.00  0.00    +0.047 A 
ATOM      5  C   UNL     1      -7.685  -4.316   3.567  0.00  0.00    +0.136 A 
ATOM      6  C   UNL     1      -8.183  -4.733   2.343  0.00  0.00    +0.093 A 
ATOM      7  C   UNL     1      -7.462  -4.492   1.180  0.00  0.00    +0.138 A 
ATOM      8  O   UNL     1      -7.964  -4.905  -0.010  0.00  0.00    -0.441 OA
ATOM      9  C   UNL     1      -7.508  -4.366  -1.153  0.00  0.00    +0.199 C 
ATOM     10  C   UNL     1      -6.324  -3.719  -1.214  0.00  0.00    +0.098 C 
ENDROOT
BRANCH   1  16
ATOM     11  C   UNL     1      -2.997  -4.079  -0.107  0.00  0.00    +0.125 A 
ATOM     12  C   UNL     1      -1.945  -4.981  -0.179  0.00  0.00    +0.046 A 
ATOM     13  C   UNL     1      -2.202  -6.337  -0.234  0.00  0.00    +0.004 A 
ATOM     14  C   UNL     1      -3.506  -6.796  -0.217  0.00  0.00    +0.001 A 
ATOM     15  C   UNL     1      -4.556  -5.899  -0.146  0.00  0.00    +0.008 A 
ATOM     16  C   UNL     1      -4.304  -4.542  -0.085  0.00  0.00    +0.007 A 
BRANCH  11  17
ATOM     17  O   UNL     1      -2.746  -2.744  -0.052  0.00  0.00    -0.492 OA
BRANCH  17  18
ATOM     18  C   UNL     1      -1.376  -2.339  -0.078  0.00  0.00    +0.229 C 
BRANCH  18  19
ATOM     19  C   UNL     1      -1.294  -0.813  -0.009  0.00  0.00    +0.041 C 
BRANCH  19  21
ATOM     20  C   UNL     1       0.256   1.146   0.032  0.00  0.00    +0.004 C 
ATOM     21  C   UNL     1       0.174  -0.380  -0.037  0.00  0.00    -0.000 C 
ENDBRANCH  19  21
ENDBRANCH  18  19
ENDBRANCH  17  18
ENDBRANCH  11  17
ENDBRANCH   1  16
BRANCH   9  22
ATOM     22  N   UNL     1      -8.268  -4.477  -2.291  0.00  0.00    -0.328 N 
ATOM     23  H   UNL     1      -9.120  -4.940  -2.262  0.00  0.00    +0.145 HD
ATOM     24  H   UNL     1      -7.952  -4.092  -3.124  0.00  0.00    +0.145 HD
ENDBRANCH   9  22
BRANCH  10  25
ATOM     25  C   UNL     1      -5.894  -3.167  -2.463  0.00  0.00    +0.101 C 
ATOM     26  N   UNL     1      -5.554  -2.729  -3.455  0.00  0.00    -0.191 NA
ENDBRANCH  10  25
BRANCH   5  27
ATOM     27  O   UNL     1      -8.391  -4.552   4.704  0.00  0.00    -0.420 OA
BRANCH  27  28
ATOM     28  C   UNL     1      -8.501  -5.827   5.129  0.00  0.00    +0.380 C 
ATOM     29  O   UNL     1      -7.891  -6.712   4.559  0.00  0.00    -0.241 OA
BRANCH  28  30
ATOM     30  C   UNL     1      -9.355  -6.147   6.278  0.00  0.00    +0.216 A 
ATOM     31  C   UNL     1      -9.538  -7.390   6.796  0.00  0.00    +0.010 A 
ATOM     32  C   UNL     1     -10.460  -7.230   7.919  0.00  0.00    +0.024 A 
ATOM     33  C   UNL     1     -11.032  -8.109   8.842  0.00  0.00    +0.015 A 
ATOM     34  C   UNL     1     -11.882  -7.628   9.798  0.00  0.00    -0.050 A 
ATOM     35  C   UNL     1     -12.179  -6.274   9.858  0.00  0.00    +0.007 A 
ATOM     36  C   UNL     1     -11.625  -5.390   8.957  0.00  0.00    +0.047 A 
ATOM     37  C   UNL     1     -10.758  -5.856   7.975  0.00  0.00    +0.136 A 
ATOM     38  O   UNL     1     -10.075  -5.250   6.985  0.00  0.00    -0.448 OA
ATOM     39  C   UNL     1     -12.500  -8.575  10.794  0.00  0.00    +0.044 C 
ATOM     40  C   UNL     1      -8.915  -8.674   6.310  0.00  0.00    +0.048 C 
ENDBRANCH  28  30
ENDBRANCH  27  28
ENDBRANCH   5  27
TORSDOF 10
