REMARK  Name = ZINC38596143
REMARK  12 active torsions:
REMARK  status: ('A' for Active; 'I' for Inactive)
REMARK    1  A    between atoms: C_1  and  C_2
REMARK    2  A    between atoms: C_4  and  C_36
REMARK    3  A    between atoms: C_5  and  S_9
REMARK    4  A    between atoms: C_6  and  C_8
REMARK    5  A    between atoms: S_9  and  N_12
REMARK    6  A    between atoms: N_12  and  C_13
REMARK    7  A    between atoms: C_13  and  C_15
REMARK    8  A    between atoms: C_13  and  C_16
REMARK    9  A    between atoms: C_16  and  C_18
REMARK   10  A    between atoms: C_16  and  N_23
REMARK   11  A    between atoms: N_26  and  C_29
REMARK   12  A    between atoms: C_29  and  C_30
REMARK                            x       y       z     vdW  Elec       q    Type
REMARK                         _______ _______ _______ _____ _____    ______ ____
ROOT
ATOM      1  C   UNL     1       2.699  -5.499   0.807  0.00  0.00    +0.112 C 
ENDROOT
BRANCH   1   2
ATOM      2  N   UNL     1       3.535  -5.604   2.010  0.00  0.00    -0.297 NA
ATOM      3  C   UNL     1       3.358  -4.431   2.879  0.00  0.00    +0.066 C 
ATOM      4  C   UNL     1       4.199  -4.606   4.145  0.00  0.00    -0.063 C 
ATOM      5  N   UNL     1       5.613  -4.755   3.777  0.00  0.00    +0.384 N 
ATOM      6  C   UNL     1       5.778  -5.944   2.930  0.00  0.00    -0.063 C 
ATOM      7  C   UNL     1       4.950  -5.780   1.654  0.00  0.00    +0.066 C 
ATOM      8  H   UNL     1       5.917  -3.937   3.271  0.00  0.00    -0.081 HD
BRANCH   5   9
ATOM      9  C   UNL     1       6.422  -4.905   4.994  0.00  0.00    -0.043 C 
BRANCH   9  10
ATOM     10  C   UNL     1       7.883  -4.934   4.626  0.00  0.00    -0.064 A 
ATOM     11  C   UNL     1       8.500  -6.138   4.339  0.00  0.00    +0.002 A 
ATOM     12  C   UNL     1       9.840  -6.165   4.001  0.00  0.00    +0.000 A 
ATOM     13  C   UNL     1      10.563  -4.988   3.950  0.00  0.00    +0.000 A 
ATOM     14  C   UNL     1       9.947  -3.784   4.235  0.00  0.00    +0.000 A 
ATOM     15  C   UNL     1       8.605  -3.757   4.569  0.00  0.00    +0.002 A 
ENDBRANCH   9  10
ENDBRANCH   5   9
ENDBRANCH   1   2
BRANCH   1  16
ATOM     16  C   UNL     1       2.838  -6.756  -0.012  0.00  0.00    +0.008 A 
ATOM     17  C   UNL     1       2.927  -6.893  -1.358  0.00  0.00    +0.013 A 
ATOM     18  C   UNL     1       3.051  -8.160  -1.896  0.00  0.00    +0.008 A 
ATOM     19  C   UNL     1       3.080  -9.228  -1.063  0.00  0.00    +0.045 A 
ATOM     20  S   UNL     1       2.936  -8.452   0.538  0.00  0.00    -0.100 S 
ENDBRANCH   1  16
BRANCH   1  21
ATOM     21  C   UNL     1       1.236  -5.317   1.218  0.00  0.00    +0.095 C 
ATOM     22  C   UNL     1       0.823  -6.456   2.151  0.00  0.00    +0.027 C 
BRANCH  21  23
ATOM     23  N   UNL     1       0.388  -5.332   0.023  0.00  0.00    -0.185 NA
ATOM     24  H   UNL     1       0.616  -5.905  -0.726  0.00  0.00    +0.148 HD
BRANCH  23  25
ATOM     25  S   UNL     1      -0.960  -4.373  -0.048  0.00  0.00    +0.059 S 
ATOM     26  O   UNL     1      -1.672  -4.583   1.163  0.00  0.00    -0.153 OA
ATOM     27  O   UNL     1      -1.546  -4.590  -1.324  0.00  0.00    -0.153 OA
BRANCH  25  32
ATOM     28  C   UNL     1       0.927   1.357   0.034  0.00  0.00    +0.044 C 
ATOM     29  C   UNL     1       0.456  -0.074   0.013  0.00  0.00    -0.050 A 
ATOM     30  C   UNL     1       0.110  -0.704   1.194  0.00  0.00    +0.008 A 
ATOM     31  C   UNL     1      -0.323  -2.017   1.175  0.00  0.00    -0.024 A 
ATOM     32  C   UNL     1      -0.409  -2.699  -0.024  0.00  0.00    +0.111 A 
ATOM     33  C   UNL     1      -0.064  -2.068  -1.205  0.00  0.00    -0.024 A 
ATOM     34  C   UNL     1       0.364  -0.754  -1.186  0.00  0.00    +0.008 A 
ATOM     35  C   UNL     1      -0.158  -2.812  -2.512  0.00  0.00    +0.046 C 
ATOM     36  C   UNL     1      -0.699  -2.705   2.462  0.00  0.00    +0.046 C 
ENDBRANCH  25  32
ENDBRANCH  23  25
ENDBRANCH  21  23
ENDBRANCH   1  21
TORSDOF 8
