REMARK  Name = ZINC36597104
REMARK  19 active torsions:
REMARK  status: ('A' for Active; 'I' for Inactive)
REMARK    1  A    between atoms: C_1  and  C_2
REMARK    2  A    between atoms: C_5  and  C_7
REMARK    3  A    between atoms: C_7  and  N_8
REMARK    4  A    between atoms: N_8  and  C_9
REMARK    5  A    between atoms: C_9  and  C_11
REMARK    6  A    between atoms: C_9  and  C_20
REMARK    7  A    between atoms: C_14  and  O_19
REMARK    8  A    between atoms: C_15  and  O_17
REMARK    9  A    between atoms: O_17  and  C_18
REMARK   10  A    between atoms: N_22  and  C_23
REMARK   11  A    between atoms: C_23  and  C_24
REMARK   12  A    between atoms: C_23  and  C_25
REMARK   13  A    between atoms: C_23  and  C_26
REMARK   14  A    between atoms: C_26  and  C_27
REMARK   15  A    between atoms: C_27  and  C_28
REMARK   16  A    between atoms: C_27  and  C_29
REMARK   17  A    between atoms: C_27  and  C_30
REMARK   18  A    between atoms: C_31  and  C_33
REMARK   19  A    between atoms: C_34  and  C_35
REMARK                            x       y       z     vdW  Elec       q    Type
REMARK                         _______ _______ _______ _____ _____    ______ ____
ROOT
ATOM      1  C   UNL     1       4.459  -3.482  -3.013  0.00  0.00    +0.194 C 
ENDROOT
BRANCH   1   2
ATOM      2  C   UNL     1       3.722  -2.185  -3.231  0.00  0.00    -0.014 A 
ATOM      3  C   UNL     1       2.759  -1.779  -2.325  0.00  0.00    +0.010 A 
ATOM      4  C   UNL     1       2.080  -0.591  -2.521  0.00  0.00    +0.049 A 
ATOM      5  C   UNL     1       2.365   0.196  -3.626  0.00  0.00    +0.158 A 
ATOM      6  C   UNL     1       3.334  -0.213  -4.536  0.00  0.00    +0.162 A 
ATOM      7  C   UNL     1       4.015  -1.403  -4.332  0.00  0.00    +0.055 A 
BRANCH   6   8
ATOM      8  O   UNL     1       3.617   0.556  -5.622  0.00  0.00    -0.491 OA
ATOM      9  C   UNL     1       4.624   0.074  -6.514  0.00  0.00    +0.277 C 
ENDBRANCH   6   8
BRANCH   5  10
ATOM     10  O   UNL     1       1.698   1.365  -3.819  0.00  0.00    -0.503 OA
ATOM     11  H   UNL     1       2.122   2.132  -3.411  0.00  0.00    +0.292 HD
ENDBRANCH   5  10
ENDBRANCH   1   2
BRANCH   1  12
ATOM     12  C   UNL     1       5.448  -3.314  -1.888  0.00  0.00    +0.239 C 
ATOM     13  O   UNL     1       5.248  -3.852  -0.820  0.00  0.00    -0.273 OA
ATOM     14  N   UNL     1       6.555  -2.567  -2.069  0.00  0.00    -0.308 N 
ATOM     15  H   UNL     1       6.715  -2.137  -2.924  0.00  0.00    +0.149 HD
BRANCH  14  16
ATOM     16  C   UNL     1       7.516  -2.404  -0.976  0.00  0.00    +0.030 C 
ATOM     17  C   UNL     1       6.949  -1.434   0.062  0.00  0.00    +0.031 C 
ATOM     18  C   UNL     1       7.775  -3.761  -0.318  0.00  0.00    +0.031 C 
BRANCH  16  19
ATOM     19  C   UNL     1       8.829  -1.847  -1.530  0.00  0.00    +0.031 C 
BRANCH  19  20
ATOM     20  C   UNL     1       9.116  -2.478  -2.894  0.00  0.00    -0.036 C 
ATOM     21  C   UNL     1       8.317  -1.744  -3.973  0.00  0.00    +0.010 C 
ATOM     22  C   UNL     1      10.610  -2.369  -3.203  0.00  0.00    +0.010 C 
ATOM     23  C   UNL     1       8.706  -3.952  -2.871  0.00  0.00    +0.010 C 
ENDBRANCH  19  20
ENDBRANCH  16  19
ENDBRANCH  14  16
ENDBRANCH   1  12
BRANCH   1  24
ATOM     24  N   UNL     1       3.502  -4.536  -2.668  0.00  0.00    -0.268 N 
ATOM     25  C   UNL     1       2.409  -4.729  -3.433  0.00  0.00    +0.293 C 
ATOM     26  O   UNL     1       2.217  -4.029  -4.409  0.00  0.00    -0.260 OA
BRANCH  25  27
ATOM     27  C   UNL     1       1.473  -5.760  -3.096  0.00  0.00    -0.003 C 
ATOM     28  C   UNL     1       0.706  -6.604  -2.820  0.00  0.00    -0.057 C 
BRANCH  28  29
ATOM     29  C   UNL     1      -0.230  -7.635  -2.484  0.00  0.00    +0.025 A 
ATOM     30  C   UNL     1      -0.016  -8.438  -1.359  0.00  0.00    +0.017 A 
ATOM     31  C   UNL     1      -0.922  -9.428  -1.042  0.00  0.00    +0.001 A 
ATOM     32  C   UNL     1      -2.040  -9.628  -1.832  0.00  0.00    +0.000 A 
ATOM     33  C   UNL     1      -2.259  -8.837  -2.947  0.00  0.00    +0.001 A 
ATOM     34  C   UNL     1      -1.365  -7.839  -3.274  0.00  0.00    +0.017 A 
ENDBRANCH  28  29
ENDBRANCH  25  27
BRANCH  24  35
ATOM     35  C   UNL     1       3.733  -5.380  -1.493  0.00  0.00    +0.184 C 
BRANCH  35  40
ATOM     36  C   UNL     1       2.435  -2.653   2.547  0.00  0.00    +0.086 C 
ATOM     37  C   UNL     1       2.374  -3.661   1.429  0.00  0.00    +0.102 A 
ATOM     38  C   UNL     1       1.351  -4.498   1.178  0.00  0.00    +0.045 A 
ATOM     39  C   UNL     1       1.715  -5.262   0.045  0.00  0.00    +0.046 A 
ATOM     40  C   UNL     1       2.939  -4.847  -0.328  0.00  0.00    +0.122 A 
ATOM     41  O   UNL     1       3.331  -3.873   0.510  0.00  0.00    -0.463 OA
ENDBRANCH  35  40
ENDBRANCH  24  35
ENDBRANCH   1  24
TORSDOF 12
