REMARK  Name = ZINC39226240
REMARK  6 active torsions:
REMARK  status: ('A' for Active; 'I' for Inactive)
REMARK    1  A    between atoms: C_1  and  C_2
REMARK    2  A    between atoms: C_7  and  N_10
REMARK    3  A    between atoms: C_11  and  C_13
REMARK    4  A    between atoms: C_16  and  C_19
REMARK    5  A    between atoms: C_25  and  O_36
REMARK    6  A    between atoms: N_32  and  C_35
REMARK                            x       y       z     vdW  Elec       q    Type
REMARK                         _______ _______ _______ _____ _____    ______ ____
ROOT
ATOM      1  C   UNL     1      -6.250  -5.760   1.772  0.00  0.00    -0.017 A 
ATOM      2  C   UNL     1      -7.289  -4.979   1.267  0.00  0.00    +0.012 A 
ATOM      3  C   UNL     1      -8.577  -5.463   1.278  0.00  0.00    +0.046 A 
ATOM      4  C   UNL     1      -8.851  -6.729   1.791  0.00  0.00    +0.127 A 
ATOM      5  C   UNL     1      -7.821  -7.505   2.298  0.00  0.00    +0.023 A 
ATOM      6  C   UNL     1      -6.524  -7.027   2.282  0.00  0.00    +0.018 A 
ATOM      7  C   UNL     1      -8.081  -8.874   2.874  0.00  0.00    +0.152 C 
ATOM      8  C   UNL     1      -9.442  -9.386   2.396  0.00  0.00    +0.084 C 
ATOM      9  C   UNL     1     -10.476  -8.275   2.607  0.00  0.00    +0.110 C 
ATOM     10  O   UNL     1     -10.136  -7.168   1.774  0.00  0.00    -0.485 OA
ATOM     11  C   UNL     1     -11.866  -8.795   2.234  0.00  0.00    +0.029 C 
ATOM     12  C   UNL     1     -12.905  -7.709   2.523  0.00  0.00    -0.075 C 
ATOM     13  N   UNL     1     -12.873  -7.364   3.950  0.00  0.00    +0.378 N 
ATOM     14  C   UNL     1     -11.565  -6.794   4.295  0.00  0.00    -0.075 C 
ATOM     15  C   UNL     1     -10.473  -7.843   4.074  0.00  0.00    +0.029 C 
ATOM     16  C   UNL     1     -13.925  -6.381   4.239  0.00  0.00    -0.096 C 
ATOM     17  H   UNL     1     -13.032  -8.196   4.499  0.00  0.00    -0.082 HD
ENDROOT
BRANCH   1  21
ATOM     18  C   UNL     1      -2.258  -4.287   1.743  0.00  0.00    +0.037 A 
ATOM     19  C   UNL     1      -3.298  -3.500   1.241  0.00  0.00    +0.013 A 
ATOM     20  C   UNL     1      -4.589  -3.978   1.250  0.00  0.00    +0.009 A 
ATOM     21  C   UNL     1      -4.860  -5.247   1.762  0.00  0.00    -0.018 A 
ATOM     22  C   UNL     1      -3.822  -6.034   2.264  0.00  0.00    +0.009 A 
ATOM     23  C   UNL     1      -2.530  -5.561   2.250  0.00  0.00    +0.013 A 
BRANCH  18  25
ATOM     24  N   UNL     1      -0.612  -2.548   1.244  0.00  0.00    -0.308 N 
ATOM     25  C   UNL     1      -0.873  -3.776   1.733  0.00  0.00    +0.244 C 
ATOM     26  O   UNL     1       0.032  -4.463   2.165  0.00  0.00    -0.270 OA
ATOM     27  H   UNL     1      -1.333  -2.000   0.898  0.00  0.00    +0.149 HD
BRANCH  24  33
ATOM     28  C   UNL     1      -0.019   1.526   0.010  0.00  0.00    +0.007 C 
ATOM     29  C   UNL     1       0.002  -0.004   0.002  0.00  0.00    -0.012 C 
ATOM     30  C   UNL     1       0.718  -0.497  -1.257  0.00  0.00    +0.003 C 
ATOM     31  C   UNL     1       0.739  -2.027  -1.265  0.00  0.00    +0.002 C 
ATOM     32  C   UNL     1       1.479  -2.534  -0.026  0.00  0.00    +0.022 C 
ATOM     33  C   UNL     1       0.763  -2.041   1.233  0.00  0.00    +0.073 C 
ATOM     34  C   UNL     1       0.742  -0.511   1.242  0.00  0.00    +0.025 C 
ENDBRANCH  24  33
ENDBRANCH  18  25
ENDBRANCH   1  21
BRANCH   7  35
ATOM     35  O   UNL     1      -7.057  -9.774   2.442  0.00  0.00    -0.387 OA
ATOM     36  H   UNL     1      -6.166  -9.514   2.712  0.00  0.00    +0.210 HD
ENDBRANCH   7  35
TORSDOF 4
