REMARK  Name = ZINC39490853
REMARK  10 active torsions:
REMARK  status: ('A' for Active; 'I' for Inactive)
REMARK    1  A    between atoms: C_1  and  C_2
REMARK    2  A    between atoms: C_2  and  C_3
REMARK    3  A    between atoms: C_2  and  S_4
REMARK    4  A    between atoms: S_4  and  C_7
REMARK    5  A    between atoms: C_7  and  C_34
REMARK    6  A    between atoms: N_12  and  C_13
REMARK    7  A    between atoms: C_13  and  C_14
REMARK    8  A    between atoms: C_14  and  C_27
REMARK    9  A    between atoms: N_17  and  C_20
REMARK   10  A    between atoms: C_20  and  C_21
REMARK                            x       y       z     vdW  Elec       q    Type
REMARK                         _______ _______ _______ _____ _____    ______ ____
ROOT
ATOM      1  C   UNL     1      -5.368  -1.807   1.664  0.00  0.00    -0.014 C 
ATOM      2  C   UNL     1      -5.473  -0.455   0.952  0.00  0.00    -0.010 C 
ATOM      3  C   UNL     1      -4.992  -0.608  -0.493  0.00  0.00    -0.078 C 
ATOM      4  N   UNL     1      -5.826  -1.595  -1.188  0.00  0.00    +0.382 N 
ATOM      5  C   UNL     1      -5.675  -2.910  -0.554  0.00  0.00    -0.078 C 
ATOM      6  C   UNL     1      -6.181  -2.847   0.888  0.00  0.00    -0.010 C 
ATOM      7  H   UNL     1      -6.793  -1.310  -1.142  0.00  0.00    -0.081 HD
ENDROOT
BRANCH   1   8
ATOM      8  C   UNL     1      -5.920  -1.683   3.086  0.00  0.00    -0.003 C 
ATOM      9  C   UNL     1      -6.210  -3.077   3.644  0.00  0.00    +0.004 C 
ATOM     10  C   UNL     1      -6.762  -2.953   5.066  0.00  0.00    +0.000 C 
ATOM     11  C   UNL     1      -8.054  -2.134   5.041  0.00  0.00    +0.000 C 
ATOM     12  C   UNL     1      -7.763  -0.739   4.483  0.00  0.00    +0.000 C 
ATOM     13  C   UNL     1      -7.212  -0.864   3.062  0.00  0.00    +0.004 C 
ENDBRANCH   1   8
BRANCH   1  14
ATOM     14  C   UNL     1      -3.902  -2.243   1.721  0.00  0.00    +0.118 C 
BRANCH  14  20
ATOM     15  C   UNL     1      -3.752  -4.814   2.135  0.00  0.00    +0.170 C 
ATOM     16  C   UNL     1      -3.603  -5.623   3.438  0.00  0.00    +0.178 C 
ATOM     17  N   UNL     1      -3.557  -4.595   4.488  0.00  0.00    -0.194 N 
ATOM     18  C   UNL     1      -3.659  -3.384   3.924  0.00  0.00    +0.320 C 
ATOM     19  O   UNL     1      -3.650  -2.351   4.564  0.00  0.00    -0.251 OA
ATOM     20  N   UNL     1      -3.775  -3.416   2.589  0.00  0.00    -0.258 N 
ATOM     21 CL   UNL     1      -3.397  -4.896   6.164  0.00  0.00    +0.005 Cl
ATOM     22  C   UNL     1      -2.560  -5.059   1.208  0.00  0.00    +0.059 C 
BRANCH  15  23
ATOM     23  S   UNL     1      -5.305  -5.236   1.298  0.00  0.00    -0.006 S 
ATOM     24  O   UNL     1      -5.244  -4.749  -0.035  0.00  0.00    -0.172 OA
ATOM     25  O   UNL     1      -6.387  -4.839   2.130  0.00  0.00    -0.172 OA
BRANCH  23  27
ATOM     26  C   UNL     1      -6.307  -7.563   0.266  0.00  0.00    +0.031 C 
ATOM     27  C   UNL     1      -5.254  -7.049   1.250  0.00  0.00    +0.127 C 
ATOM     28  C   UNL     1      -3.867  -7.508   0.798  0.00  0.00    +0.031 C 
ENDBRANCH  23  27
ENDBRANCH  15  23
ENDBRANCH  14  20
ENDBRANCH   1  14
BRANCH   4  29
ATOM     29  C   UNL     1      -5.411  -1.680  -2.595  0.00  0.00    -0.043 C 
BRANCH  29  30
ATOM     30  C   UNL     1      -6.402  -2.518  -3.361  0.00  0.00    -0.064 A 
ATOM     31  C   UNL     1      -6.221  -3.885  -3.459  0.00  0.00    +0.002 A 
ATOM     32  C   UNL     1      -7.130  -4.654  -4.162  0.00  0.00    +0.000 A 
ATOM     33  C   UNL     1      -8.220  -4.056  -4.766  0.00  0.00    +0.000 A 
ATOM     34  C   UNL     1      -8.402  -2.690  -4.667  0.00  0.00    +0.000 A 
ATOM     35  C   UNL     1      -7.495  -1.921  -3.960  0.00  0.00    +0.002 A 
ENDBRANCH  29  30
ENDBRANCH   4  29
TORSDOF 7
