REMARK  Name = ZINC27259513
REMARK  14 active torsions:
REMARK  status: ('A' for Active; 'I' for Inactive)
REMARK    1  A    between atoms: C_1  and  C_2
REMARK    2  A    between atoms: C_2  and  O_3
REMARK    3  A    between atoms: O_3  and  C_4
REMARK    4  A    between atoms: C_7  and  C_10
REMARK    5  A    between atoms: C_10  and  C_11
REMARK    6  A    between atoms: C_10  and  C_18
REMARK    7  A    between atoms: C_10  and  O_36
REMARK    8  A    between atoms: C_11  and  C_12
REMARK    9  A    between atoms: C_18  and  C_20
REMARK   10  A    between atoms: C_18  and  C_30
REMARK   11  A    between atoms: C_20  and  N_21
REMARK   12  A    between atoms: N_21  and  C_22
REMARK   13  A    between atoms: N_21  and  C_23
REMARK   14  A    between atoms: C_23  and  C_24
REMARK                            x       y       z     vdW  Elec       q    Type
REMARK                         _______ _______ _______ _____ _____    ______ ____
ROOT
ATOM      1  C   UNL     1      -2.453   1.101   0.025  0.00  0.00    +0.100 C 
ENDROOT
BRANCH   1   5
ATOM      2  C   UNL     1       0.547   3.951  -1.044  0.00  0.00    +0.121 A 
ATOM      3  C   UNL     1       0.879   2.611  -0.906  0.00  0.00    +0.046 A 
ATOM      4  C   UNL     1      -0.092   1.692  -0.556  0.00  0.00    +0.010 A 
ATOM      5  C   UNL     1      -1.395   2.106  -0.350  0.00  0.00    -0.015 A 
ATOM      6  C   UNL     1      -1.727   3.442  -0.481  0.00  0.00    +0.010 A 
ATOM      7  C   UNL     1      -0.760   4.365  -0.830  0.00  0.00    +0.046 A 
BRANCH   2   8
ATOM      8  O   UNL     1       1.500   4.856  -1.388  0.00  0.00    -0.492 OA
BRANCH   8  10
ATOM      9  C   UNL     1       2.287   7.082  -1.902  0.00  0.00    +0.048 C 
ATOM     10  C   UNL     1       1.086   6.218  -1.512  0.00  0.00    +0.225 C 
ENDBRANCH   8  10
ENDBRANCH   2   8
ENDBRANCH   1   5
BRANCH   1  11
ATOM     11  O   UNL     1      -2.126  -0.169  -0.543  0.00  0.00    -0.383 OA
ATOM     12  H   UNL     1      -2.787  -1.032  -0.376  0.00  0.00    +0.211 HD
ENDBRANCH   1  11
BRANCH   1  13
ATOM     13  C   UNL     1      -2.521   0.976   1.548  0.00  0.00    +0.075 C 
BRANCH  13  14
ATOM     14  C   UNL     1      -1.155   0.639   2.087  0.00  0.00    -0.044 A 
ATOM     15  C   UNL     1      -0.776  -0.683   2.232  0.00  0.00    +0.004 A 
ATOM     16  C   UNL     1       0.479  -0.992   2.721  0.00  0.00    +0.000 A 
ATOM     17  C   UNL     1       1.352   0.019   3.075  0.00  0.00    +0.000 A 
ATOM     18  C   UNL     1       0.972   1.341   2.934  0.00  0.00    +0.000 A 
ATOM     19  C   UNL     1      -0.282   1.651   2.440  0.00  0.00    +0.004 A 
ENDBRANCH  13  14
ENDBRANCH   1  13
BRANCH   1  20
ATOM     20  C   UNL     1      -3.809   1.565  -0.510  0.00  0.00    +0.039 C 
BRANCH  20  21
ATOM     21  C   UNL     1      -3.751   1.659  -2.013  0.00  0.00    -0.043 A 
ATOM     22  C   UNL     1      -3.673   0.509  -2.775  0.00  0.00    +0.004 A 
ATOM     23  C   UNL     1      -3.624   0.595  -4.154  0.00  0.00    +0.000 A 
ATOM     24  C   UNL     1      -3.643   1.832  -4.770  0.00  0.00    +0.000 A 
ATOM     25  C   UNL     1      -3.716   2.983  -4.008  0.00  0.00    +0.000 A 
ATOM     26  C   UNL     1      -3.769   2.897  -2.629  0.00  0.00    +0.004 A 
ENDBRANCH  20  21
BRANCH  20  27
ATOM     27  C   UNL     1      -4.889   0.560  -0.103  0.00  0.00    -0.067 C 
BRANCH  27  28
ATOM     28  N   UNL     1      -6.206   1.065  -0.513  0.00  0.00    +0.381 N 
ATOM     29  C   UNL     1      -6.560   2.279   0.234  0.00  0.00    -0.096 C 
ATOM     30  H   UNL     1      -6.151   1.328  -1.579  0.00  0.00    -0.082 HD
BRANCH  28  31
ATOM     31  C   UNL     1      -7.238   0.031  -0.356  0.00  0.00    -0.043 C 
BRANCH  31  32
ATOM     32  C   UNL     1      -8.516   0.493  -1.008  0.00  0.00    -0.064 A 
ATOM     33  C   UNL     1      -9.449   1.200  -0.274  0.00  0.00    +0.002 A 
ATOM     34  C   UNL     1     -10.619   1.629  -0.873  0.00  0.00    +0.000 A 
ATOM     35  C   UNL     1     -10.860   1.340  -2.203  0.00  0.00    +0.000 A 
ATOM     36  C   UNL     1      -9.929   0.627  -2.936  0.00  0.00    +0.000 A 
ATOM     37  C   UNL     1      -8.757   0.204  -2.338  0.00  0.00    +0.002 A 
ENDBRANCH  31  32
ENDBRANCH  28  31
ENDBRANCH  27  28
ENDBRANCH  20  27
ENDBRANCH   1  20
TORSDOF 12
