REMARK  Name = ZINC64665829
REMARK  8 active torsions:
REMARK  status: ('A' for Active; 'I' for Inactive)
REMARK    1  A    between atoms: C_7  and  C_10
REMARK    2  A    between atoms: C_10  and  C_11
REMARK    3  A    between atoms: C_11  and  N_12
REMARK    4  A    between atoms: C_13  and  C_15
REMARK    5  A    between atoms: C_15  and  C_16
REMARK    6  A    between atoms: C_16  and  C_17
REMARK    7  A    between atoms: C_20  and  N_23
REMARK    8  A    between atoms: C_24  and  C_26
REMARK                            x       y       z     vdW  Elec       q    Type
REMARK                         _______ _______ _______ _____ _____    ______ ____
ROOT
ATOM      1  C   UNL     1      -1.752  -6.557  -2.622  0.00  0.00    +0.101 C 
ENDROOT
BRANCH   1   3
ATOM      2  N   UNL     1      -0.458  -4.798  -1.460  0.00  0.00    -0.315 N 
ATOM      3  C   UNL     1      -0.811  -5.380  -2.623  0.00  0.00    +0.213 C 
ATOM      4  O   UNL     1      -0.371  -4.957  -3.671  0.00  0.00    -0.276 OA
ATOM      5  H   UNL     1      -0.810  -5.136  -0.622  0.00  0.00    +0.149 HD
BRANCH   2   6
ATOM      6  C   UNL     1       0.457  -3.653  -1.462  0.00  0.00    +0.108 C 
BRANCH   6   7
ATOM      7  C   UNL     1       0.691  -3.186  -0.024  0.00  0.00    +0.052 C 
BRANCH   7  14
ATOM      8  C   UNL     1      -0.016   1.348   0.009  0.00  0.00    +0.001 A 
ATOM      9  C   UNL     1       1.166   2.101   0.002  0.00  0.00    +0.002 A 
ATOM     10  C   UNL     1       2.391   1.535  -0.013  0.00  0.00    +0.026 A 
ATOM     11  C   UNL     1       2.529   0.120  -0.022  0.00  0.00    +0.043 A 
ATOM     12  N   UNL     1       3.587  -0.654  -0.037  0.00  0.00    -0.380 N 
ATOM     13  C   UNL     1       3.143  -2.053  -0.041  0.00  0.00    +0.144 C 
ATOM     14  C   UNL     1       1.631  -2.008  -0.025  0.00  0.00    -0.040 C 
ATOM     15  C   UNL     1       1.295  -0.698  -0.014  0.00  0.00    -0.001 A 
ATOM     16  C   UNL     1       0.002  -0.004   0.002  0.00  0.00    +0.010 A 
ATOM     17  H   UNL     1       4.509  -0.353  -0.045  0.00  0.00    +0.160 HD
ENDBRANCH   7  14
ENDBRANCH   6   7
ENDBRANCH   2   6
ENDBRANCH   1   3
BRANCH   1  18
ATOM     18  C   UNL     1      -1.986  -7.025  -4.059  0.00  0.00    +0.060 C 
BRANCH  18  19
ATOM     19  C   UNL     1      -2.927  -8.202  -4.058  0.00  0.00    +0.027 C 
ATOM     20  C   UNL     1      -3.335  -8.871  -5.363  0.00  0.00    +0.123 C 
ATOM     21  S   UNL     1      -4.075 -10.430  -4.702  0.00  0.00    -0.110 S 
ATOM     22  C   UNL     1      -4.313  -9.804  -2.981  0.00  0.00    +0.251 C 
ATOM     23  N   UNL     1      -3.386  -8.654  -2.979  0.00  0.00    -0.259 NA
BRANCH  22  24
ATOM     24  N   UNL     1      -3.909 -10.807  -1.993  0.00  0.00    -0.281 N 
ATOM     25  C   UNL     1      -4.712 -11.859  -1.734  0.00  0.00    +0.246 C 
ATOM     26  O   UNL     1      -5.770 -11.974  -2.320  0.00  0.00    -0.270 OA
ATOM     27  H   UNL     1      -3.064 -10.715  -1.525  0.00  0.00    +0.152 HD
BRANCH  25  28
ATOM     28  C   UNL     1      -4.305 -12.870  -0.737  0.00  0.00    +0.037 A 
ATOM     29  C   UNL     1      -3.092 -12.737  -0.058  0.00  0.00    +0.016 A 
ATOM     30  C   UNL     1      -2.717 -13.684   0.871  0.00  0.00    +0.039 A 
ATOM     31  C   UNL     1      -3.542 -14.768   1.131  0.00  0.00    +0.123 A 
ATOM     32  C   UNL     1      -4.747 -14.905   0.460  0.00  0.00    +0.039 A 
ATOM     33  C   UNL     1      -5.135 -13.961  -0.467  0.00  0.00    +0.016 A 
ATOM     34  F   UNL     1      -3.169 -15.694   2.042  0.00  0.00    -0.205 F 
ENDBRANCH  25  28
ENDBRANCH  22  24
ENDBRANCH  18  19
ENDBRANCH   1  18
TORSDOF 8
