REMARK  Name = ZINC39654194
REMARK  11 active torsions:
REMARK  status: ('A' for Active; 'I' for Inactive)
REMARK    1  A    between atoms: C_1  and  C_2
REMARK    2  A    between atoms: C_2  and  C_3
REMARK    3  A    between atoms: C_3  and  C_4
REMARK    4  A    between atoms: C_4  and  C_6
REMARK    5  A    between atoms: C_4  and  C_7
REMARK    6  A    between atoms: C_11  and  C_20
REMARK    7  A    between atoms: N_22  and  C_23
REMARK    8  A    between atoms: C_23  and  C_24
REMARK    9  A    between atoms: C_24  and  C_25
REMARK   10  A    between atoms: C_28  and  C_31
REMARK   11  A    between atoms: C_31  and  C_32
REMARK                            x       y       z     vdW  Elec       q    Type
REMARK                         _______ _______ _______ _____ _____    ______ ____
ROOT
ATOM      1  C   UNL     1       1.432  -2.532  -2.693  0.00  0.00    +0.218 C 
ATOM      2  O   UNL     1       1.761  -1.758  -3.567  0.00  0.00    -0.275 OA
ATOM      3  N   UNL     1       1.505  -3.861  -2.906  0.00  0.00    -0.300 N 
ATOM      4  C   UNL     1       1.145  -4.952  -1.970  0.00  0.00    +0.121 C 
ATOM      5  C   UNL     1       0.461  -6.017  -2.857  0.00  0.00    +0.100 C 
ATOM      6  C   UNL     1       1.004  -5.756  -4.272  0.00  0.00    -0.004 C 
ATOM      7  C   UNL     1       1.958  -4.561  -4.132  0.00  0.00    +0.115 C 
ATOM      8  C   UNL     1       1.760  -6.980  -4.781  0.00  0.00    -0.010 C 
ATOM      9  C   UNL     1       2.240  -6.718  -6.212  0.00  0.00    -0.082 C 
ATOM     10  N   UNL     1       1.086  -6.437  -7.074  0.00  0.00    +0.379 N 
ATOM     11  C   UNL     1       0.419  -5.207  -6.632  0.00  0.00    -0.082 C 
ATOM     12  C   UNL     1      -0.138  -5.404  -5.220  0.00  0.00    -0.010 C 
ATOM     13  H   UNL     1       1.399  -6.326  -8.027  0.00  0.00    -0.086 HD
ATOM     14  H   UNL     1       0.436  -7.207  -7.024  0.00  0.00    -0.086 HD
ENDROOT
BRANCH   5  15
ATOM     15  C   UNL     1       0.835  -7.402  -2.395  0.00  0.00    +0.218 C 
ATOM     16  O   UNL     1       1.916  -7.599  -1.883  0.00  0.00    -0.275 OA
ATOM     17  N   UNL     1      -0.033  -8.421  -2.552  0.00  0.00    -0.315 N 
ATOM     18  H   UNL     1      -0.897  -8.263  -2.962  0.00  0.00    +0.149 HD
BRANCH  17  19
ATOM     19  C   UNL     1       0.331  -9.768  -2.104  0.00  0.00    +0.109 C 
BRANCH  19  20
ATOM     20  C   UNL     1      -0.822 -10.731  -2.396  0.00  0.00    +0.054 C 
BRANCH  20  21
ATOM     21  C   UNL     1      -0.448 -12.116  -1.935  0.00  0.00    -0.046 A 
ATOM     22  C   UNL     1       0.196 -12.982  -2.799  0.00  0.00    +0.004 A 
ATOM     23  C   UNL     1       0.539 -14.252  -2.376  0.00  0.00    +0.004 A 
ATOM     24  C   UNL     1       0.238 -14.657  -1.089  0.00  0.00    -0.048 A 
ATOM     25  C   UNL     1      -0.406 -13.791  -0.225  0.00  0.00    +0.004 A 
ATOM     26  C   UNL     1      -0.745 -12.519  -0.646  0.00  0.00    +0.004 A 
BRANCH  24  27
ATOM     27  C   UNL     1       0.611 -16.043  -0.628  0.00  0.00    +0.032 C 
ATOM     28  C   UNL     1       2.013 -16.017  -0.017  0.00  0.00    +0.009 C 
ENDBRANCH  24  27
ENDBRANCH  20  21
ENDBRANCH  19  20
ENDBRANCH  17  19
ENDBRANCH   5  15
BRANCH   1  29
ATOM     29  C   UNL     1       0.942  -2.007  -1.368  0.00  0.00    +0.072 C 
ATOM     30  C   UNL     1       1.856  -2.511  -0.250  0.00  0.00    +0.017 C 
BRANCH  29  31
ATOM     31  C   UNL     1       0.956  -0.477  -1.389  0.00  0.00    +0.012 C 
BRANCH  31  33
ATOM     32  C   UNL     1       0.357   1.586  -0.113  0.00  0.00    +0.004 C 
ATOM     33  C   UNL     1       0.342   0.056  -0.093  0.00  0.00    -0.003 C 
ENDBRANCH  31  33
ENDBRANCH  29  31
ENDBRANCH   1  29
TORSDOF 8
