REMARK  Name = ZINC04236165
REMARK  7 active torsions:
REMARK  status: ('A' for Active; 'I' for Inactive)
REMARK    1  A    between atoms: C_1  and  C_2
REMARK    2  A    between atoms: C_2  and  C_3
REMARK    3  A    between atoms: C_2  and  C_4
REMARK    4  A    between atoms: C_2  and  C_5
REMARK    5  A    between atoms: C_5  and  C_6
REMARK    6  A    between atoms: C_19  and  N_24
REMARK    7  A    between atoms: N_27  and  C_28
REMARK                            x       y       z     vdW  Elec       q    Type
REMARK                         _______ _______ _______ _____ _____    ______ ____
ROOT
ATOM      1  C   UNL     1       3.089  -0.761   1.501  0.00  0.00    +0.216 C 
ATOM      2  O   UNL     1       4.211  -0.301   1.529  0.00  0.00    -0.276 OA
ATOM      3  N   UNL     1       2.029   0.057   1.347  0.00  0.00    -0.301 N 
ATOM      4  C   UNL     1       2.213   1.507   1.213  0.00  0.00    +0.113 C 
ATOM      5  C   UNL     1       1.447   2.027   0.005  0.00  0.00    +0.027 C 
ATOM      6  C   UNL     1      -0.001   1.535   0.016  0.00  0.00    +0.018 C 
ATOM      7  C   UNL     1       0.011   0.004   0.005  0.00  0.00    +0.054 C 
ATOM      8  C   UNL     1       0.661  -0.484   1.311  0.00  0.00    +0.117 C 
ATOM      9  C   UNL     1       0.860  -0.492  -1.142  0.00  0.00    +0.027 A 
ATOM     10  C   UNL     1       0.582  -1.729  -1.633  0.00  0.00    +0.024 A 
ATOM     11  C   UNL     1       1.363  -2.286  -2.651  0.00  0.00    +0.030 A 
ATOM     12  C   UNL     1       2.427  -1.572  -3.132  0.00  0.00    +0.100 A 
ATOM     13  C   UNL     1       2.684  -0.293  -2.604  0.00  0.00    +0.273 A 
ATOM     14  O   UNL     1       3.658   0.335  -2.990  0.00  0.00    -0.266 OA
ATOM     15  N   UNL     1       1.863   0.250  -1.672  0.00  0.00    -0.310 N 
ATOM     16  C   UNL     1       2.112   1.644  -1.304  0.00  0.00    +0.130 C 
ENDROOT
BRANCH  12  17
ATOM     17  N   UNL     1       3.248  -2.107  -4.135  0.00  0.00    -0.265 N 
ATOM     18  C   UNL     1       3.377  -1.466  -5.313  0.00  0.00    +0.308 C 
ATOM     19  O   UNL     1       2.852  -0.381  -5.476  0.00  0.00    -0.252 OA
ATOM     20  N   UNL     1       4.086  -2.028  -6.312  0.00  0.00    -0.269 N 
ATOM     21  H   UNL     1       3.723  -2.939  -3.980  0.00  0.00    +0.157 HD
ATOM     22  H   UNL     1       4.449  -2.922  -6.206  0.00  0.00    +0.156 HD
BRANCH  20  23
ATOM     23  C   UNL     1       4.301  -1.322  -7.502  0.00  0.00    +0.035 A 
ATOM     24  C   UNL     1       3.313  -0.483  -8.000  0.00  0.00    +0.025 A 
ATOM     25  C   UNL     1       3.529   0.217  -9.171  0.00  0.00    +0.022 A 
ATOM     26  C   UNL     1       4.724   0.073  -9.854  0.00  0.00    +0.041 A 
ATOM     27  C   UNL     1       5.707  -0.767  -9.362  0.00  0.00    +0.022 A 
ATOM     28  C   UNL     1       5.499  -1.465  -8.189  0.00  0.00    +0.025 A 
ATOM     29 CL   UNL     1       4.989   0.948 -11.330  0.00  0.00    -0.084 Cl
ENDBRANCH  20  23
ENDBRANCH  12  17
BRANCH   1  30
ATOM     30  C   UNL     1       2.881  -2.247   1.638  0.00  0.00    +0.102 C 
BRANCH  30  32
ATOM     31  C   UNL     1       4.937  -2.405   3.049  0.00  0.00    +0.011 C 
ATOM     32  C   UNL     1       4.236  -2.939   1.798  0.00  0.00    -0.029 C 
ATOM     33  C   UNL     1       4.024  -4.448   1.938  0.00  0.00    +0.011 C 
ATOM     34  C   UNL     1       5.101  -2.657   0.569  0.00  0.00    +0.011 C 
ENDBRANCH  30  32
ENDBRANCH   1  30
TORSDOF 4
