REMARK  Name = ZINC35198690
REMARK  14 active torsions:
REMARK  status: ('A' for Active; 'I' for Inactive)
REMARK    1  A    between atoms: C_1  and  C_2
REMARK    2  A    between atoms: C_2  and  C_3
REMARK    3  A    between atoms: C_3  and  C_4
REMARK    4  A    between atoms: C_4  and  C_5
REMARK    5  A    between atoms: C_8  and  C_11
REMARK    6  A    between atoms: N_13  and  C_14
REMARK    7  A    between atoms: C_14  and  C_16
REMARK    8  A    between atoms: C_14  and  C_17
REMARK    9  A    between atoms: C_20  and  S_31
REMARK   10  A    between atoms: N_21  and  C_22
REMARK   11  A    between atoms: C_25  and  N_28
REMARK   12  A    between atoms: S_31  and  C_32
REMARK   13  A    between atoms: C_32  and  C_33
REMARK   14  A    between atoms: C_37  and  C_39
REMARK                            x       y       z     vdW  Elec       q    Type
REMARK                         _______ _______ _______ _____ _____    ______ ____
ROOT
ATOM      1  C   UNL     1      -9.100  -5.531  -2.393  0.00  0.00    +0.159 A 
ATOM      2  N   UNL     1      -8.780  -5.136  -3.592  0.00  0.00    -0.131 NA
ATOM      3  N   UNL     1      -9.162  -6.002  -4.461  0.00  0.00    -0.122 NA
ATOM      4  C   UNL     1      -9.752  -7.009  -3.860  0.00  0.00    +0.196 A 
ATOM      5  N   UNL     1      -9.726  -6.744  -2.518  0.00  0.00    -0.273 N 
ENDROOT
BRANCH   5   6
ATOM      6  C   UNL     1     -10.238  -7.544  -1.486  0.00  0.00    +0.050 A 
ATOM      7  C   UNL     1      -9.380  -8.096  -0.544  0.00  0.00    +0.028 A 
ATOM      8  C   UNL     1      -9.886  -8.884   0.471  0.00  0.00    +0.035 A 
ATOM      9  C   UNL     1     -11.246  -9.122   0.550  0.00  0.00    +0.126 A 
ATOM     10  C   UNL     1     -12.103  -8.573  -0.386  0.00  0.00    +0.035 A 
ATOM     11  C   UNL     1     -11.603  -7.779  -1.400  0.00  0.00    +0.028 A 
BRANCH   9  12
ATOM     12  N   UNL     1     -11.786  -9.967   1.640  0.00  0.00    +0.056 N 
ATOM     13  O   UNL     1     -11.037 -10.448   2.458  0.00  0.00    -0.126 OA
ATOM     14  O   UNL     1     -12.974 -10.176   1.710  0.00  0.00    -0.126 OA
ENDBRANCH   9  12
ENDBRANCH   5   6
BRANCH   1  15
ATOM     15  C   UNL     1      -8.827  -4.795  -1.107  0.00  0.00    +0.139 C 
ATOM     16  C   UNL     1      -9.802  -3.624  -0.972  0.00  0.00    +0.036 C 
BRANCH  15  19
ATOM     17  C   UNL     1      -6.811  -4.056   0.045  0.00  0.00    +0.245 C 
ATOM     18  O   UNL     1      -7.373  -4.268   1.102  0.00  0.00    -0.270 OA
ATOM     19  N   UNL     1      -7.453  -4.288  -1.117  0.00  0.00    -0.302 N 
ATOM     20  H   UNL     1      -7.004  -4.119  -1.960  0.00  0.00    +0.150 HD
BRANCH  17  24
ATOM     21  C   UNL     1      -2.826  -2.585   0.015  0.00  0.00    -0.047 A 
ATOM     22  C   UNL     1      -3.463  -2.825   1.220  0.00  0.00    +0.004 A 
ATOM     23  C   UNL     1      -4.757  -3.302   1.237  0.00  0.00    +0.013 A 
ATOM     24  C   UNL     1      -5.424  -3.544   0.035  0.00  0.00    +0.037 A 
ATOM     25  C   UNL     1      -4.776  -3.300  -1.177  0.00  0.00    +0.013 A 
ATOM     26  C   UNL     1      -3.484  -2.817  -1.180  0.00  0.00    +0.004 A 
BRANCH  21  27
ATOM     27  C   UNL     1      -1.413  -2.063   0.004  0.00  0.00    +0.035 C 
BRANCH  27  28
ATOM     28  C   UNL     1      -1.433  -0.534   0.013  0.00  0.00    +0.004 C 
BRANCH  28  30
ATOM     29  C   UNL     1      -0.019   1.526   0.010  0.00  0.00    +0.004 C 
ATOM     30  C   UNL     1       0.002  -0.004   0.002  0.00  0.00    -0.003 C 
ENDBRANCH  28  30
ENDBRANCH  27  28
ENDBRANCH  21  27
ENDBRANCH  17  24
ENDBRANCH  15  19
ENDBRANCH   1  15
BRANCH   4  31
ATOM     31  S   UNL     1     -10.439  -8.435  -4.633  0.00  0.00    -0.081 S 
BRANCH  31  32
ATOM     32  C   UNL     1     -10.133  -8.166  -6.401  0.00  0.00    +0.112 C 
BRANCH  32  33
ATOM     33  C   UNL     1     -10.679  -9.330  -7.188  0.00  0.00    -0.037 A 
ATOM     34  C   UNL     1      -9.878 -10.426  -7.447  0.00  0.00    +0.004 A 
ATOM     35  C   UNL     1     -10.379 -11.493  -8.169  0.00  0.00    +0.001 A 
ATOM     36  C   UNL     1     -11.682 -11.464  -8.631  0.00  0.00    +0.003 A 
ATOM     37  C   UNL     1     -12.483 -10.368  -8.371  0.00  0.00    -0.050 A 
ATOM     38  C   UNL     1     -11.983  -9.303  -7.645  0.00  0.00    +0.007 A 
ATOM     39  C   UNL     1     -13.903 -10.337  -8.875  0.00  0.00    +0.044 C 
ENDBRANCH  32  33
ENDBRANCH  31  32
ENDBRANCH   4  31
TORSDOF 11
