REMARK  Name = ZINC22014598
REMARK  13 active torsions:
REMARK  status: ('A' for Active; 'I' for Inactive)
REMARK    1  A    between atoms: C_1  and  C_2
REMARK    2  A    between atoms: C_2  and  C_3
REMARK    3  A    between atoms: C_3  and  C_4
REMARK    4  A    between atoms: C_4  and  N_5
REMARK    5  A    between atoms: C_6  and  N_36
REMARK    6  A    between atoms: C_7  and  N_14
REMARK    7  A    between atoms: N_14  and  C_15
REMARK    8  A    between atoms: C_15  and  C_16
REMARK    9  A    between atoms: C_22  and  C_24
REMARK   10  A    between atoms: C_24  and  N_25
REMARK   11  A    between atoms: C_29  and  C_31
REMARK   12  A    between atoms: N_33  and  C_34
REMARK   13  A    between atoms: N_33  and  C_35
REMARK                            x       y       z     vdW  Elec       q    Type
REMARK                         _______ _______ _______ _____ _____    ______ ____
ROOT
ATOM      1  N   UNL     1       4.466  -1.396  -2.083  0.00  0.00    -0.261 N 
ATOM      2  C   UNL     1       3.442  -1.960  -2.756  0.00  0.00    +0.204 C 
ATOM      3  O   UNL     1       3.249  -1.672  -3.919  0.00  0.00    -0.277 OA
ENDROOT
BRANCH   1   6
ATOM      4  N   UNL     1       7.120  -0.187  -4.317  0.00  0.00    -0.280 N 
ATOM      5  C   UNL     1       6.259  -1.046  -3.675  0.00  0.00    +0.127 A 
ATOM      6  C   UNL     1       5.366  -0.541  -2.753  0.00  0.00    +0.140 A 
ATOM      7  C   UNL     1       5.372   0.842  -2.489  0.00  0.00    +0.277 A 
ATOM      8  O   UNL     1       4.596   1.315  -1.675  0.00  0.00    -0.266 OA
ATOM      9  N   UNL     1       6.239   1.640  -3.141  0.00  0.00    -0.273 N 
ATOM     10  H   UNL     1       6.250   2.721  -2.941  0.00  0.00    +0.173 HD
ATOM     11  C   UNL     1       7.099   1.130  -4.041  0.00  0.00    +0.331 A 
ATOM     12  O   UNL     1       7.872   1.873  -4.616  0.00  0.00    -0.246 OA
BRANCH   5  13
ATOM     13  N   UNL     1       6.285  -2.392  -3.954  0.00  0.00    -0.343 N 
ATOM     14  H   UNL     1       5.593  -3.073  -3.437  0.00  0.00    +0.144 HD
ATOM     15  H   UNL     1       6.996  -2.787  -4.693  0.00  0.00    +0.144 HD
ENDBRANCH   5  13
BRANCH   4  16
ATOM     16  C   UNL     1       8.070  -0.709  -5.303  0.00  0.00    +0.128 C 
BRANCH  16  17
ATOM     17  C   UNL     1       9.373  -1.095  -4.600  0.00  0.00    +0.021 C 
BRANCH  17  19
ATOM     18  C   UNL     1      11.669  -2.026  -4.927  0.00  0.00    +0.004 C 
ATOM     19  C   UNL     1      10.365  -1.640  -5.630  0.00  0.00    -0.002 C 
ENDBRANCH  17  19
ENDBRANCH  16  17
ENDBRANCH   4  16
ENDBRANCH   1   6
BRANCH   1  20
ATOM     20  C   UNL     1       4.644  -1.671  -0.655  0.00  0.00    +0.149 C 
BRANCH  20  21
ATOM     21  C   UNL     1       5.634  -2.794  -0.479  0.00  0.00    -0.030 A 
ATOM     22  C   UNL     1       6.990  -2.526  -0.482  0.00  0.00    +0.005 A 
ATOM     23  C   UNL     1       7.898  -3.555  -0.321  0.00  0.00    +0.000 A 
ATOM     24  C   UNL     1       7.450  -4.853  -0.156  0.00  0.00    +0.000 A 
ATOM     25  C   UNL     1       6.094  -5.120  -0.152  0.00  0.00    +0.000 A 
ATOM     26  C   UNL     1       5.186  -4.091  -0.315  0.00  0.00    +0.005 A 
ENDBRANCH  20  21
ENDBRANCH   1  20
BRANCH   2  27
ATOM     27  C   UNL     1       2.538  -2.947  -2.064  0.00  0.00    +0.020 C 
BRANCH  27  28
ATOM     28  N   UNL     1       1.427  -3.304  -2.957  0.00  0.00    +0.393 N 
ATOM     29  C   UNL     1       1.921  -3.992  -4.169  0.00  0.00    -0.077 C 
ATOM     30  C   UNL     1       1.004  -3.572  -5.333  0.00  0.00    -0.020 C 
ATOM     31  C   UNL     1      -0.011  -2.587  -4.711  0.00  0.00    -0.008 C 
ATOM     32  C   UNL     1       0.722  -2.089  -3.441  0.00  0.00    +0.020 C 
ATOM     33  H   UNL     1       0.765  -3.953  -2.367  0.00  0.00    -0.080 HD
BRANCH  32  34
ATOM     34  C   UNL     1      -0.266  -1.602  -2.412  0.00  0.00    +0.202 C 
ATOM     35  O   UNL     1      -0.390  -2.197  -1.362  0.00  0.00    -0.277 OA
ATOM     36  N   UNL     1      -1.011  -0.507  -2.658  0.00  0.00    -0.309 N 
ATOM     37  C   UNL     1      -1.971  -0.034  -1.658  0.00  0.00    +0.131 C 
ATOM     38  C   UNL     1      -0.860   0.211  -3.926  0.00  0.00    +0.131 C 
ENDBRANCH  32  34
ENDBRANCH  27  28
ENDBRANCH   2  27
TORSDOF 10
