REMARK  Name = ZINC06918535
REMARK  5 active torsions:
REMARK  status: ('A' for Active; 'I' for Inactive)
REMARK    1  A    between atoms: C_1  and  C_2
REMARK    2  A    between atoms: C_5  and  C_22
REMARK    3  A    between atoms: C_6  and  C_8
REMARK    4  A    between atoms: C_8  and  S_9
REMARK    5  A    between atoms: S_9  and  C_10
REMARK                            x       y       z     vdW  Elec       q    Type
REMARK                         _______ _______ _______ _____ _____    ______ ____
ROOT
ATOM      1  C   UNL     1       1.337   1.272  -4.541  0.00  0.00    +0.180 C 
ATOM      2  N   UNL     1       0.097   1.455  -4.864  0.00  0.00    -0.106 NA
ATOM      3  S   UNL     1      -0.312   2.274  -6.246  0.00  0.00    +0.103 S 
ATOM      4  O   UNL     1      -0.612   1.294  -7.230  0.00  0.00    -0.146 OA
ATOM      5  O   UNL     1      -1.235   3.285  -5.866  0.00  0.00    -0.146 OA
ATOM      6  C   UNL     1       1.159   3.093  -6.775  0.00  0.00    +0.134 A 
ATOM      7  C   UNL     1       1.109   4.090  -7.723  0.00  0.00    +0.031 A 
ATOM      8  C   UNL     1       2.276   4.720  -8.121  0.00  0.00    +0.002 A 
ATOM      9  C   UNL     1       3.487   4.346  -7.567  0.00  0.00    +0.002 A 
ATOM     10  C   UNL     1       3.540   3.346  -6.617  0.00  0.00    +0.025 A 
ATOM     11  C   UNL     1       2.372   2.710  -6.213  0.00  0.00    +0.060 A 
ATOM     12  N   UNL     1       2.413   1.703  -5.256  0.00  0.00    -0.291 N 
ATOM     13  H   UNL     1       3.267   1.274  -5.089  0.00  0.00    +0.154 HD
ENDROOT
BRANCH   1  14
ATOM     14  S   UNL     1       1.660   0.399  -3.045  0.00  0.00    -0.084 S 
BRANCH  14  15
ATOM     15  C   UNL     1      -0.035   0.072  -2.499  0.00  0.00    +0.112 C 
BRANCH  15  21
ATOM     16  C   UNL     1       0.059  -4.275  -0.021  0.00  0.00    +0.044 C 
ATOM     17  C   UNL     1       0.039  -2.768  -0.013  0.00  0.00    -0.050 A 
ATOM     18  C   UNL     1       0.041  -2.084   1.188  0.00  0.00    +0.003 A 
ATOM     19  C   UNL     1       0.023  -0.702   1.196  0.00  0.00    +0.004 A 
ATOM     20  C   UNL     1       0.002  -0.004   0.002  0.00  0.00    -0.046 A 
ATOM     21  C   UNL     1      -0.006  -0.689  -1.199  0.00  0.00    -0.034 A 
ATOM     22  C   UNL     1       0.018  -2.071  -1.206  0.00  0.00    +0.008 A 
ATOM     23  C   UNL     1      -0.018   1.503   0.010  0.00  0.00    +0.044 C 
ENDBRANCH  15  21
ENDBRANCH  14  15
ENDBRANCH   1  14
TORSDOF 3
