REMARK  Name = ZINC39562022
REMARK  8 active torsions:
REMARK  status: ('A' for Active; 'I' for Inactive)
REMARK    1  A    between atoms: C_1  and  C_2
REMARK    2  A    between atoms: C_11  and  O_15
REMARK    3  A    between atoms: O_15  and  C_16
REMARK    4  A    between atoms: C_16  and  C_17
REMARK    5  A    between atoms: N_19  and  C_20
REMARK    6  A    between atoms: C_20  and  C_21
REMARK    7  A    between atoms: C_24  and  S_27
REMARK    8  A    between atoms: S_27  and  N_30
REMARK                            x       y       z     vdW  Elec       q    Type
REMARK                         _______ _______ _______ _____ _____    ______ ____
ROOT
ATOM      1  C   UNL     1       0.553  -5.190  -4.652  0.00  0.00    +0.251 C 
ATOM      2  O   UNL     1       0.277  -4.014  -4.759  0.00  0.00    -0.272 OA
ATOM      3  N   UNL     1       0.505  -5.994  -5.733  0.00  0.00    -0.308 N 
ATOM      4  H   UNL     1       0.726  -6.934  -5.648  0.00  0.00    +0.149 HD
ENDROOT
BRANCH   1   5
ATOM      5  C   UNL     1       0.950  -5.752  -3.312  0.00  0.00    +0.326 C 
BRANCH   5   6
ATOM      6  O   UNL     1       0.927  -4.712  -2.333  0.00  0.00    -0.466 OA
BRANCH   6  16
ATOM      7  C   UNL     1      -0.019   1.526   0.010  0.00  0.00    +0.008 C 
ATOM      8  C   UNL     1       0.002  -0.004   0.002  0.00  0.00    -0.009 C 
ATOM      9  C   UNL     1       0.726  -0.501  -1.253  0.00  0.00    +0.008 C 
ATOM     10  C   UNL     1       0.536  -2.011  -1.396  0.00  0.00    +0.037 C 
ATOM     11  C   UNL     1       0.950  -2.688  -0.092  0.00  0.00    -0.023 A 
ATOM     12  C   UNL     1       1.032  -1.976   1.055  0.00  0.00    -0.004 A 
ATOM     13  S   UNL     1       1.537  -3.143   2.295  0.00  0.00    -0.073 S 
ATOM     14  C   UNL     1       1.640  -4.580   1.279  0.00  0.00    +0.116 A 
ATOM     15  C   UNL     1       1.273  -4.103  -0.006  0.00  0.00    +0.073 A 
ATOM     16  C   UNL     1       1.261  -5.052  -1.065  0.00  0.00    +0.227 A 
ATOM     17  N   UNL     1       1.597  -6.295  -0.733  0.00  0.00    -0.201 NA
ATOM     18  C   UNL     1       1.928  -6.669   0.487  0.00  0.00    +0.226 A 
ATOM     19  N   UNL     1       1.960  -5.835   1.520  0.00  0.00    -0.228 NA
ATOM     20  C   UNL     1       0.751  -0.516   1.240  0.00  0.00    +0.046 C 
ENDBRANCH   6  16
ENDBRANCH   5   6
ENDBRANCH   1   5
BRANCH   3  21
ATOM     21  C   UNL     1       0.119  -5.447  -7.036  0.00  0.00    +0.139 C 
BRANCH  21  22
ATOM     22  C   UNL     1       0.144  -6.545  -8.068  0.00  0.00    -0.030 A 
ATOM     23  C   UNL     1       1.304  -6.804  -8.774  0.00  0.00    +0.007 A 
ATOM     24  C   UNL     1       1.327  -7.810  -9.721  0.00  0.00    +0.029 A 
ATOM     25  C   UNL     1       0.190  -8.558  -9.962  0.00  0.00    +0.105 A 
ATOM     26  C   UNL     1      -0.970  -8.300  -9.256  0.00  0.00    +0.029 A 
ATOM     27  C   UNL     1      -0.992  -7.296  -8.306  0.00  0.00    +0.007 A 
BRANCH  25  28
ATOM     28  S   UNL     1       0.219  -9.841 -11.170  0.00  0.00    +0.056 S 
ATOM     29  O   UNL     1      -1.125 -10.030 -11.594  0.00  0.00    -0.153 OA
ATOM     30  O   UNL     1       1.265  -9.521 -12.077  0.00  0.00    -0.153 OA
BRANCH  28  31
ATOM     31  N   UNL     1       0.672 -11.232 -10.396  0.00  0.00    -0.204 NA
ATOM     32  H   UNL     1       0.862 -11.219  -9.445  0.00  0.00    +0.144 HD
ATOM     33  H   UNL     1       0.748 -12.062 -10.894  0.00  0.00    +0.144 HD
ENDBRANCH  28  31
ENDBRANCH  25  28
ENDBRANCH  21  22
ENDBRANCH   3  21
TORSDOF 7
