REMARK  Name = ZINC17640031
REMARK  10 active torsions:
REMARK  status: ('A' for Active; 'I' for Inactive)
REMARK    1  A    between atoms: C_1  and  C_2
REMARK    2  A    between atoms: C_3  and  C_35
REMARK    3  A    between atoms: C_11  and  C_13
REMARK    4  A    between atoms: C_13  and  S_14
REMARK    5  A    between atoms: S_14  and  C_15
REMARK    6  A    between atoms: C_15  and  C_17
REMARK    7  A    between atoms: C_15  and  C_18
REMARK    8  A    between atoms: N_20  and  N_21
REMARK    9  A    between atoms: C_22  and  C_24
REMARK   10  A    between atoms: C_31  and  C_34
REMARK                            x       y       z     vdW  Elec       q    Type
REMARK                         _______ _______ _______ _____ _____    ______ ____
ROOT
ATOM      1  C   UNL     1      -5.977   2.458   0.043  0.00  0.00    +0.242 C 
ATOM      2  O   UNL     1      -5.782   3.655   0.049  0.00  0.00    -0.273 OA
ATOM      3  N   UNL     1      -4.933   1.606   0.034  0.00  0.00    -0.233 N 
ATOM      4  H   UNL     1      -5.088   0.648   0.029  0.00  0.00    +0.173 HD
ENDROOT
BRANCH   3   5
ATOM      5  N   UNL     1      -3.623   2.102   0.030  0.00  0.00    -0.230 N 
ATOM      6  C   UNL     1      -2.579   1.250   0.021  0.00  0.00    +0.267 C 
ATOM      7  O   UNL     1      -2.774   0.049   0.015  0.00  0.00    -0.268 OA
ATOM      8  H   UNL     1      -3.467   3.060   0.035  0.00  0.00    +0.173 HD
BRANCH   6   9
ATOM      9  C   UNL     1      -1.208   1.770   0.017  0.00  0.00    +0.076 A 
ATOM     10  C   UNL     1      -0.013   1.076   0.008  0.00  0.00    +0.024 A 
ATOM     11  C   UNL     1       1.166   1.804   0.001  0.00  0.00    -0.036 A 
ATOM     12  C   UNL     1       1.049   3.164   0.008  0.00  0.00    -0.006 A 
ATOM     13  S   UNL     1      -0.647   3.464   0.026  0.00  0.00    -0.088 S 
ATOM     14  C   UNL     1       2.162   4.167   0.002  0.00  0.00    +0.043 C 
ATOM     15  C   UNL     1       3.460   3.446  -0.389  0.00  0.00    +0.009 C 
ATOM     16  C   UNL     1       3.584   2.167   0.444  0.00  0.00    -0.009 C 
ATOM     17  C   UNL     1       2.543   1.145  -0.014  0.00  0.00    +0.039 C 
ATOM     18  C   UNL     1       4.985   1.579   0.268  0.00  0.00    +0.008 C 
ENDBRANCH   6   9
ENDBRANCH   3   5
BRANCH   1  19
ATOM     19  C   UNL     1      -7.386   1.924   0.047  0.00  0.00    +0.131 C 
ATOM     20  C   UNL     1      -7.811   1.617   1.484  0.00  0.00    +0.029 C 
BRANCH  19  21
ATOM     21  S   UNL     1      -8.504   3.162  -0.664  0.00  0.00    -0.141 S 
BRANCH  21  22
ATOM     22  C   UNL     1     -10.109   2.319  -0.728  0.00  0.00    +0.144 C 
BRANCH  22  33
ATOM     23  C   UNL     1     -15.327   5.739  -3.184  0.00  0.00    +0.045 C 
ATOM     24  C   UNL     1     -13.861   5.989  -2.936  0.00  0.00    -0.026 A 
ATOM     25  C   UNL     1     -13.313   7.176  -3.242  0.00  0.00    -0.008 A 
ATOM     26  S   UNL     1     -11.605   6.974  -2.773  0.00  0.00    -0.073 S 
ATOM     27  C   UNL     1     -11.678   5.304  -2.180  0.00  0.00    +0.116 A 
ATOM     28  C   UNL     1     -13.026   4.949  -2.363  0.00  0.00    +0.075 A 
ATOM     29  C   UNL     1     -13.378   3.620  -1.959  0.00  0.00    +0.260 A 
ATOM     30  O   UNL     1     -14.523   3.219  -2.078  0.00  0.00    -0.267 OA
ATOM     31  N   UNL     1     -12.422   2.819  -1.452  0.00  0.00    -0.310 N 
ATOM     32  H   UNL     1     -12.653   1.917  -1.180  0.00  0.00    +0.170 HD
ATOM     33  C   UNL     1     -11.143   3.250  -1.307  0.00  0.00    +0.121 A 
ATOM     34  N   UNL     1     -10.791   4.456  -1.665  0.00  0.00    -0.226 NA
ATOM     35  C   UNL     1     -13.982   8.387  -3.839  0.00  0.00    +0.052 C 
ENDBRANCH  22  33
ENDBRANCH  21  22
ENDBRANCH  19  21
ENDBRANCH   1  19
TORSDOF 6
