REMARK  Name = ZINC22320434
REMARK  11 active torsions:
REMARK  status: ('A' for Active; 'I' for Inactive)
REMARK    1  A    between atoms: C_1  and  C_2
REMARK    2  A    between atoms: C_5  and  S_8
REMARK    3  A    between atoms: S_8  and  N_11
REMARK    4  A    between atoms: N_11  and  C_12
REMARK    5  A    between atoms: N_11  and  C_31
REMARK    6  A    between atoms: C_12  and  C_13
REMARK    7  A    between atoms: N_15  and  C_16
REMARK    8  A    between atoms: C_19  and  C_29
REMARK    9  A    between atoms: C_19  and  C_30
REMARK   10  A    between atoms: C_25  and  O_27
REMARK   11  A    between atoms: O_27  and  C_28
REMARK                            x       y       z     vdW  Elec       q    Type
REMARK                         _______ _______ _______ _____ _____    ______ ____
ROOT
ATOM      1  C   UNL     1      -3.720  -1.333  -1.909  0.00  0.00    +0.227 C 
ENDROOT
BRANCH   1   2
ATOM      2  C   UNL     1      -2.293  -1.229  -1.434  0.00  0.00    +0.233 C 
ATOM      3  O   UNL     1      -2.056  -1.076  -0.254  0.00  0.00    -0.274 OA
ATOM      4  N   UNL     1      -1.281  -1.307  -2.320  0.00  0.00    -0.307 N 
ATOM      5  H   UNL     1      -1.496  -1.446  -3.390  0.00  0.00    +0.149 HD
BRANCH   4   6
ATOM      6  C   UNL     1       0.106  -1.206  -1.859  0.00  0.00    +0.110 C 
ATOM      7  C   UNL     1       1.026  -1.920  -2.852  0.00  0.00    +0.074 C 
ATOM      8  C   UNL     1       2.477  -1.554  -2.514  0.00  0.00    +0.107 C 
ATOM      9  O   UNL     1       2.650  -0.153  -2.732  0.00  0.00    -0.486 OA
ATOM     10  C   UNL     1       1.734   0.692  -2.191  0.00  0.00    +0.130 A 
ATOM     11  C   UNL     1       0.497   0.247  -1.758  0.00  0.00    +0.015 A 
ATOM     12  C   UNL     1      -0.408   1.143  -1.213  0.00  0.00    +0.012 A 
ATOM     13  C   UNL     1      -0.087   2.481  -1.106  0.00  0.00    +0.046 A 
ATOM     14  C   UNL     1       1.153   2.932  -1.536  0.00  0.00    +0.124 A 
ATOM     15  C   UNL     1       2.062   2.038  -2.078  0.00  0.00    +0.091 A 
ATOM     16  C   UNL     1       2.764  -1.886  -1.048  0.00  0.00    +0.055 C 
ATOM     17  C   UNL     1       3.431  -2.339  -3.416  0.00  0.00    +0.055 C 
BRANCH  14  18
ATOM     18  O   UNL     1       1.474   4.248  -1.426  0.00  0.00    -0.495 OA
ATOM     19  C   UNL     1       0.488   5.112  -0.858  0.00  0.00    +0.277 C 
ENDBRANCH  14  18
ENDBRANCH   4   6
ENDBRANCH   1   2
BRANCH   1  20
ATOM     20  N   UNL     1      -4.625  -1.220  -0.762  0.00  0.00    -0.194 N 
BRANCH  20  21
ATOM     21  C   UNL     1      -4.936  -2.351  -0.004  0.00  0.00    +0.053 A 
ATOM     22  C   UNL     1      -3.923  -3.080   0.606  0.00  0.00    +0.025 A 
ATOM     23  C   UNL     1      -4.233  -4.198   1.355  0.00  0.00    +0.003 A 
ATOM     24  C   UNL     1      -5.551  -4.591   1.500  0.00  0.00    +0.020 A 
ATOM     25  C   UNL     1      -6.563  -3.867   0.895  0.00  0.00    +0.043 A 
ATOM     26  C   UNL     1      -6.259  -2.744   0.147  0.00  0.00    +0.044 A 
ATOM     27 CL   UNL     1      -8.216  -4.365   1.079  0.00  0.00    -0.083 Cl
ENDBRANCH  20  21
BRANCH  20  28
ATOM     28  S   UNL     1      -5.279   0.249  -0.366  0.00  0.00    +0.075 S 
ATOM     29  O   UNL     1      -5.737   0.141   0.975  0.00  0.00    -0.150 OA
ATOM     30  O   UNL     1      -4.341   1.235  -0.774  0.00  0.00    -0.150 OA
BRANCH  28  35
ATOM     31  C   UNL     1     -10.180   1.004  -3.805  0.00  0.00    +0.044 C 
ATOM     32  C   UNL     1      -8.956   0.816  -2.946  0.00  0.00    -0.050 A 
ATOM     33  C   UNL     1      -9.081   0.312  -1.665  0.00  0.00    +0.005 A 
ATOM     34  C   UNL     1      -7.959   0.139  -0.877  0.00  0.00    +0.029 A 
ATOM     35  C   UNL     1      -6.710   0.470  -1.370  0.00  0.00    +0.109 A 
ATOM     36  C   UNL     1      -6.585   0.978  -2.649  0.00  0.00    +0.029 A 
ATOM     37  C   UNL     1      -7.707   1.147  -3.439  0.00  0.00    +0.005 A 
ENDBRANCH  28  35
ENDBRANCH  20  28
ENDBRANCH   1  20
TORSDOF 7
