REMARK  Name = ZINC25680132
REMARK  9 active torsions:
REMARK  status: ('A' for Active; 'I' for Inactive)
REMARK    1  A    between atoms: C_1  and  C_2
REMARK    2  A    between atoms: C_2  and  C_26
REMARK    3  A    between atoms: N_5  and  N_9
REMARK    4  A    between atoms: C_10  and  C_12
REMARK    5  A    between atoms: C_12  and  N_13
REMARK    6  A    between atoms: C_16  and  C_19
REMARK    7  A    between atoms: C_22  and  O_25
REMARK    8  A    between atoms: C_26  and  C_27
REMARK    9  A    between atoms: C_27  and  C_28
REMARK                            x       y       z     vdW  Elec       q    Type
REMARK                         _______ _______ _______ _____ _____    ______ ____
ROOT
ATOM      1  N   UNL     1      -0.404   9.425  -0.364  0.00  0.00    -0.225 N 
ATOM      2  C   UNL     1      -0.037   8.130  -0.287  0.00  0.00    +0.213 C 
ATOM      3  O   UNL     1      -0.821   7.258  -0.598  0.00  0.00    -0.276 OA
ATOM      4  H   UNL     1       0.307  10.216  -0.082  0.00  0.00    +0.173 HD
ENDROOT
BRANCH   1   9
ATOM      5  C   UNL     1      -5.039   9.518  -0.508  0.00  0.00    +0.041 C 
ATOM      6  C   UNL     1      -3.873  10.431  -0.895  0.00  0.00    +0.112 C 
ATOM      7  C   UNL     1      -2.681  10.185   0.007  0.00  0.00    +0.263 C 
ATOM      8  O   UNL     1      -2.629  10.337   1.209  0.00  0.00    -0.271 OA
ATOM      9  N   UNL     1      -1.691   9.763  -0.803  0.00  0.00    -0.137 N 
ATOM     10  C   UNL     1      -2.086   9.713  -2.080  0.00  0.00    +0.326 C 
ATOM     11  O   UNL     1      -1.367   9.367  -2.997  0.00  0.00    -0.251 OA
ATOM     12  N   UNL     1      -3.369  10.086  -2.236  0.00  0.00    -0.284 N 
ATOM     13  H   UNL     1      -4.032  10.166  -3.110  0.00  0.00    +0.151 HD
BRANCH   6  14
ATOM     14  C   UNL     1      -4.299  11.899  -0.838  0.00  0.00    +0.040 C 
BRANCH  14  15
ATOM     15  C   UNL     1      -5.503  12.117  -1.757  0.00  0.00    +0.038 C 
BRANCH  15  16
ATOM     16  C   UNL     1      -5.922  13.564  -1.700  0.00  0.00    -0.047 A 
ATOM     17  C   UNL     1      -6.858  13.976  -0.770  0.00  0.00    +0.003 A 
ATOM     18  C   UNL     1      -7.239  15.304  -0.714  0.00  0.00    +0.000 A 
ATOM     19  C   UNL     1      -6.692  16.217  -1.596  0.00  0.00    +0.000 A 
ATOM     20  C   UNL     1      -5.761  15.804  -2.530  0.00  0.00    +0.000 A 
ATOM     21  C   UNL     1      -5.376  14.477  -2.582  0.00  0.00    +0.003 A 
ENDBRANCH  15  16
ENDBRANCH  14  15
ENDBRANCH   6  14
ENDBRANCH   1   9
BRANCH   2  22
ATOM     22  C   UNL     1       1.347   7.766   0.185  0.00  0.00    +0.021 C 
BRANCH  22  23
ATOM     23  N   UNL     1       1.497   6.305   0.180  0.00  0.00    +0.388 N 
ATOM     24  C   UNL     1       1.231   5.752  -1.159  0.00  0.00    -0.073 C 
ATOM     25  C   UNL     1       1.712   4.297  -1.185  0.00  0.00    +0.017 C 
ATOM     26  C   UNL     1       1.168   3.564   0.010  0.00  0.00    -0.048 C 
ATOM     27  C   UNL     1       0.683   4.185   1.063  0.00  0.00    -0.041 C 
ATOM     28  C   UNL     1       0.614   5.681   1.173  0.00  0.00    -0.050 C 
ATOM     29  H   UNL     1       2.539   6.077   0.452  0.00  0.00    -0.081 HD
BRANCH  26  30
ATOM     30  C   UNL     1       1.184   2.087   0.002  0.00  0.00    -0.022 A 
ATOM     31  C   UNL     1      -0.017   1.374   0.010  0.00  0.00    +0.012 A 
ATOM     32  C   UNL     1       0.002  -0.004   0.002  0.00  0.00    +0.046 A 
ATOM     33  C   UNL     1       1.213  -0.684  -0.013  0.00  0.00    +0.117 A 
ATOM     34  C   UNL     1       2.409   0.021  -0.021  0.00  0.00    +0.046 A 
ATOM     35  C   UNL     1       2.399   1.400  -0.013  0.00  0.00    +0.012 A 
BRANCH  33  36
ATOM     36  O   UNL     1       1.227  -2.042  -0.020  0.00  0.00    -0.507 OA
ATOM     37  H   UNL     1       2.186  -2.582  -0.032  0.00  0.00    +0.292 HD
ENDBRANCH  33  36
ENDBRANCH  26  30
ENDBRANCH  22  23
ENDBRANCH   2  22
TORSDOF 8
