REMARK  Name = ZINC08770258
REMARK  7 active torsions:
REMARK  status: ('A' for Active; 'I' for Inactive)
REMARK    1  A    between atoms: C_6  and  S_7
REMARK    2  A    between atoms: S_7  and  N_10
REMARK    3  A    between atoms: N_10  and  C_11
REMARK    4  A    between atoms: C_11  and  C_12
REMARK    5  A    between atoms: C_12  and  C_13
REMARK    6  A    between atoms: N_15  and  C_16
REMARK    7  A    between atoms: C_19  and  N_23
REMARK                            x       y       z     vdW  Elec       q    Type
REMARK                         _______ _______ _______ _____ _____    ______ ____
ROOT
ATOM      1  C   UNL     1       2.292   4.074   2.439  0.00  0.00    +0.115 C 
ENDROOT
BRANCH   1   2
ATOM      2  N   UNL     1       1.133   4.355   1.589  0.00  0.00    -0.189 NA
ATOM      3  H   UNL     1       0.367   4.826   1.952  0.00  0.00    +0.148 HD
BRANCH   2   4
ATOM      4  S   UNL     1       1.131   3.869   0.005  0.00  0.00    +0.058 S 
ATOM      5  O   UNL     1       2.367   4.294  -0.552  0.00  0.00    -0.153 OA
ATOM      6  O   UNL     1      -0.123   4.258  -0.537  0.00  0.00    -0.153 OA
BRANCH   4  12
ATOM      7  C   UNL     1       2.362   1.431  -0.006  0.00  0.00    +0.029 A 
ATOM      8  C   UNL     1       2.373   0.051  -0.012  0.00  0.00    +0.006 A 
ATOM      9  C   UNL     1       1.183  -0.665  -0.010  0.00  0.00    -0.044 A 
ATOM     10  C   UNL     1      -0.018   0.009   0.002  0.00  0.00    -0.042 A 
ATOM     11  C   UNL     1      -0.027   1.398   0.007  0.00  0.00    +0.032 A 
ATOM     12  C   UNL     1       1.156   2.107   0.002  0.00  0.00    +0.106 A 
ATOM     13  C   UNL     1      -1.346  -0.702   0.015  0.00  0.00    +0.035 C 
ATOM     14  C   UNL     1      -1.181  -2.156  -0.421  0.00  0.00    +0.005 C 
ATOM     15  C   UNL     1      -0.059  -2.786   0.411  0.00  0.00    +0.005 C 
ATOM     16  C   UNL     1       1.269  -2.169  -0.024  0.00  0.00    +0.035 C 
ENDBRANCH   4  12
ENDBRANCH   2   4
ENDBRANCH   1   2
BRANCH   1  17
ATOM     17  C   UNL     1       2.214   4.929   3.706  0.00  0.00    +0.113 C 
BRANCH  17  18
ATOM     18  C   UNL     1       3.406   4.640   4.581  0.00  0.00    +0.218 C 
ATOM     19  O   UNL     1       4.237   3.830   4.227  0.00  0.00    -0.275 OA
ATOM     20  N   UNL     1       3.550   5.281   5.758  0.00  0.00    -0.285 N 
ATOM     21  H   UNL     1       2.923   5.977   6.011  0.00  0.00    +0.155 HD
BRANCH  20  22
ATOM     22  C   UNL     1       4.605   4.943   6.616  0.00  0.00    +0.036 A 
ATOM     23  C   UNL     1       4.422   4.987   7.992  0.00  0.00    +0.045 A 
ATOM     24  C   UNL     1       5.461   4.649   8.838  0.00  0.00    +0.065 A 
ATOM     25  C   UNL     1       6.692   4.277   8.313  0.00  0.00    +0.062 A 
ATOM     26  C   UNL     1       6.876   4.239   6.936  0.00  0.00    +0.065 A 
ATOM     27  C   UNL     1       5.835   4.571   6.090  0.00  0.00    +0.045 A 
ATOM     28 CL   UNL     1       8.414   3.774   6.279  0.00  0.00    -0.082 Cl
ATOM     29 CL   UNL     1       5.229   4.697  10.558  0.00  0.00    -0.082 Cl
BRANCH  25  30
ATOM     30  N   UNL     1       7.747   3.940   9.170  0.00  0.00    -0.356 N 
ATOM     31  H   UNL     1       8.606   3.680   8.803  0.00  0.00    +0.142 HD
ATOM     32  H   UNL     1       7.618   3.966  10.131  0.00  0.00    +0.142 HD
ENDBRANCH  25  30
ENDBRANCH  20  22
ENDBRANCH  17  18
ENDBRANCH   1  17
TORSDOF 7
