REMARK  Name = ZINC39641322
REMARK  12 active torsions:
REMARK  status: ('A' for Active; 'I' for Inactive)
REMARK    1  A    between atoms: C_1  and  C_2
REMARK    2  A    between atoms: C_5  and  C_8
REMARK    3  A    between atoms: N_10  and  C_11
REMARK    4  A    between atoms: C_11  and  C_13
REMARK    5  A    between atoms: C_11  and  C_16
REMARK    6  A    between atoms: C_13  and  C_14
REMARK    7  A    between atoms: C_13  and  C_15
REMARK    8  A    between atoms: C_16  and  O_18
REMARK    9  A    between atoms: O_18  and  C_19
REMARK   10  A    between atoms: C_19  and  C_20
REMARK   11  A    between atoms: C_22  and  O_23
REMARK   12  A    between atoms: C_32  and  C_34
REMARK                            x       y       z     vdW  Elec       q    Type
REMARK                         _______ _______ _______ _____ _____    ______ ____
ROOT
ATOM      1  O   UNL     1       0.715  -8.740   2.061  0.00  0.00    -0.459 OA
ENDROOT
BRANCH   1   2
ATOM      2  C   UNL     1       0.273  -7.545   1.638  0.00  0.00    +0.328 C 
ATOM      3  O   UNL     1       0.224  -6.613   2.405  0.00  0.00    -0.249 OA
BRANCH   2   4
ATOM      4  C   UNL     1      -0.162  -7.367   0.206  0.00  0.00    +0.185 C 
BRANCH   4   7
ATOM      5  C   UNL     1      -0.340  -5.462  -1.302  0.00  0.00    +0.245 C 
ATOM      6  O   UNL     1      -0.035  -6.198  -2.220  0.00  0.00    -0.270 OA
ATOM      7  N   UNL     1      -0.431  -5.950  -0.050  0.00  0.00    -0.298 N 
ATOM      8  H   UNL     1      -0.675  -5.363   0.683  0.00  0.00    +0.150 HD
BRANCH   5  13
ATOM      9  C   UNL     1      -1.400   0.104  -2.307  0.00  0.00    +0.044 C 
ATOM     10  C   UNL     1      -1.122  -1.353  -2.044  0.00  0.00    -0.050 A 
ATOM     11  C   UNL     1      -0.774  -2.188  -3.091  0.00  0.00    +0.004 A 
ATOM     12  C   UNL     1      -0.519  -3.523  -2.857  0.00  0.00    +0.013 A 
ATOM     13  C   UNL     1      -0.612  -4.032  -1.560  0.00  0.00    +0.037 A 
ATOM     14  C   UNL     1      -0.964  -3.184  -0.509  0.00  0.00    +0.013 A 
ATOM     15  C   UNL     1      -1.211  -1.850  -0.755  0.00  0.00    +0.004 A 
ENDBRANCH   5  13
ENDBRANCH   4   7
BRANCH   4  16
ATOM     16  C   UNL     1      -1.433  -8.181  -0.046  0.00  0.00    +0.014 C 
ATOM     17  C   UNL     1      -1.945  -7.901  -1.460  0.00  0.00    +0.009 C 
ATOM     18  C   UNL     1      -1.120  -9.672   0.097  0.00  0.00    +0.009 C 
ENDBRANCH   4  16
ENDBRANCH   2   4
ENDBRANCH   1   2
BRANCH   1  19
ATOM     19  C   UNL     1       1.216  -8.810   3.398  0.00  0.00    +0.268 C 
BRANCH  19  20
ATOM     20  C   UNL     1       1.775 -10.186   3.653  0.00  0.00    +0.007 A 
ATOM     21  C   UNL     1       2.871 -10.644   2.949  0.00  0.00    +0.095 A 
ATOM     22  C   UNL     1       3.372 -11.914   3.198  0.00  0.00    +0.285 A 
ATOM     23  O   UNL     1       2.815 -12.715   4.113  0.00  0.00    -0.425 OA
ATOM     24  C   UNL     1       1.744 -12.317   4.829  0.00  0.00    +0.141 A 
ATOM     25  C   UNL     1       1.195 -11.032   4.621  0.00  0.00    +0.024 A 
ATOM     26  C   UNL     1       0.081 -10.612   5.370  0.00  0.00    +0.014 A 
ATOM     27  C   UNL     1      -0.464 -11.442   6.298  0.00  0.00    +0.024 A 
ATOM     28  C   UNL     1       0.079 -12.720   6.516  0.00  0.00    +0.037 A 
ATOM     29  C   UNL     1       1.177 -13.156   5.773  0.00  0.00    +0.070 A 
ATOM     30  N   UNL     1      -0.476 -13.542   7.448  0.00  0.00    -0.286 N 
ATOM     31  C   UNL     1       0.190 -14.595   7.879  0.00  0.00    +0.214 C 
ATOM     32  O   UNL     1       1.347 -14.765   7.540  0.00  0.00    -0.276 OA
ATOM     33  C   UNL     1      -0.481 -15.590   8.791  0.00  0.00    +0.109 C 
ATOM     34  H   UNL     1      -1.362 -13.352   7.796  0.00  0.00    +0.155 HD
BRANCH  22  35
ATOM     35  O   UNL     1       4.441 -12.348   2.504  0.00  0.00    -0.480 OA
ATOM     36  H   UNL     1       4.725 -13.242   2.738  0.00  0.00    +0.295 HD
ENDBRANCH  22  35
ENDBRANCH  19  20
ENDBRANCH   1  19
TORSDOF 8
