REMARK  Name = ZINC40008558
REMARK  17 active torsions:
REMARK  status: ('A' for Active; 'I' for Inactive)
REMARK    1  A    between atoms: C_1  and  C_2
REMARK    2  A    between atoms: C_2  and  N_3
REMARK    3  A    between atoms: N_3  and  C_4
REMARK    4  A    between atoms: N_3  and  C_6
REMARK    5  A    between atoms: C_4  and  C_5
REMARK    6  A    between atoms: C_6  and  C_7
REMARK    7  A    between atoms: C_7  and  C_8
REMARK    8  A    between atoms: C_8  and  N_9
REMARK    9  A    between atoms: C_10  and  C_26
REMARK   10  A    between atoms: C_17  and  C_25
REMARK   11  A    between atoms: C_29  and  O_34
REMARK   12  A    between atoms: C_30  and  O_32
REMARK   13  A    between atoms: O_32  and  C_33
REMARK   14  A    between atoms: O_34  and  C_35
REMARK   15  A    between atoms: C_35  and  C_36
REMARK   16  A    between atoms: C_36  and  C_37
REMARK   17  A    between atoms: C_36  and  C_38
REMARK                            x       y       z     vdW  Elec       q    Type
REMARK                         _______ _______ _______ _____ _____    ______ ____
ROOT
ATOM      1  N   UNL     1      -4.274  -4.657   0.098  0.00  0.00    -0.284 N 
ATOM      2  C   UNL     1      -5.242  -4.808   1.197  0.00  0.00    +0.145 C 
ATOM      3  C   UNL     1      -6.482  -5.361   0.575  0.00  0.00    +0.072 A 
ATOM      4  C   UNL     1      -7.775  -5.729   1.161  0.00  0.00    +0.199 A 
ATOM      5  O   UNL     1      -8.090  -5.460   2.307  0.00  0.00    -0.287 OA
ATOM      6  C   UNL     1      -8.664  -6.462   0.225  0.00  0.00    +0.065 A 
ATOM      7  C   UNL     1      -9.841  -7.053   0.684  0.00  0.00    +0.018 A 
ATOM      8  C   UNL     1     -10.647  -7.729  -0.190  0.00  0.00    -0.050 A 
ATOM      9  C   UNL     1     -10.297  -7.827  -1.529  0.00  0.00    +0.007 A 
ATOM     10  C   UNL     1      -9.140  -7.248  -2.000  0.00  0.00    +0.047 A 
ATOM     11  C   UNL     1      -8.302  -6.552  -1.129  0.00  0.00    +0.139 A 
ATOM     12  O   UNL     1      -7.176  -5.982  -1.616  0.00  0.00    -0.450 OA
ATOM     13  C   UNL     1      -6.247  -5.508  -0.762  0.00  0.00    +0.199 A 
ATOM     14  C   UNL     1      -4.870  -5.063  -1.042  0.00  0.00    +0.283 C 
ATOM     15  O   UNL     1      -4.348  -5.064  -2.138  0.00  0.00    -0.267 OA
ATOM     16  C   UNL     1     -11.919  -8.369   0.303  0.00  0.00    +0.044 C 
ENDROOT
BRANCH   2  17
ATOM     17  C   UNL     1      -5.527  -3.469   1.827  0.00  0.00    -0.019 A 
ATOM     18  C   UNL     1      -5.664  -2.347   1.030  0.00  0.00    +0.009 A 
ATOM     19  C   UNL     1      -5.925  -1.116   1.602  0.00  0.00    +0.050 A 
ATOM     20  C   UNL     1      -6.051  -1.005   2.978  0.00  0.00    +0.162 A 
ATOM     21  C   UNL     1      -5.914  -2.134   3.780  0.00  0.00    +0.162 A 
ATOM     22  C   UNL     1      -5.657  -3.365   3.199  0.00  0.00    +0.055 A 
BRANCH  21  23
ATOM     23  O   UNL     1      -6.037  -2.029   5.130  0.00  0.00    -0.491 OA
ATOM     24  C   UNL     1      -5.883  -3.229   5.890  0.00  0.00    +0.277 C 
ENDBRANCH  21  23
BRANCH  20  25
ATOM     25  O   UNL     1      -6.308   0.205   3.542  0.00  0.00    -0.488 OA
BRANCH  25  26
ATOM     26  C   UNL     1      -6.436   1.320   2.658  0.00  0.00    +0.232 C 
BRANCH  26  27
ATOM     27  C   UNL     1      -6.722   2.585   3.469  0.00  0.00    +0.020 C 
ATOM     28  C   UNL     1      -6.735   3.798   2.536  0.00  0.00    +0.010 C 
ATOM     29  C   UNL     1      -8.083   2.455   4.155  0.00  0.00    +0.010 C 
ENDBRANCH  26  27
ENDBRANCH  25  26
ENDBRANCH  20  25
ENDBRANCH   2  17
BRANCH   1  30
ATOM     30  C   UNL     1      -2.906  -4.148   0.220  0.00  0.00    +0.107 C 
BRANCH  30  31
ATOM     31  C   UNL     1      -2.907  -2.630   0.033  0.00  0.00    +0.000 C 
BRANCH  31  32
ATOM     32  C   UNL     1      -1.478  -2.099   0.160  0.00  0.00    -0.077 C 
BRANCH  32  33
ATOM     33  N   UNL     1      -1.462  -0.661  -0.141  0.00  0.00    +0.379 N 
ATOM     34  H   UNL     1      -1.872  -0.502  -1.048  0.00  0.00    -0.082 HD
BRANCH  33  36
ATOM     35  C   UNL     1      -2.321   1.541   0.499  0.00  0.00    -0.017 C 
ATOM     36  C   UNL     1      -2.233   0.062   0.879  0.00  0.00    -0.082 C 
ENDBRANCH  33  36
BRANCH  33  37
ATOM     37  C   UNL     1      -0.075  -0.176  -0.139  0.00  0.00    -0.082 C 
ATOM     38  C   UNL     1       0.689  -0.812  -1.303  0.00  0.00    -0.017 C 
ENDBRANCH  33  37
ENDBRANCH  32  33
ENDBRANCH  31  32
ENDBRANCH  30  31
ENDBRANCH   1  30
TORSDOF 11
