REMARK  Name = ZINC39597655
REMARK  6 active torsions:
REMARK  status: ('A' for Active; 'I' for Inactive)
REMARK    1  A    between atoms: C_7  and  C_10
REMARK    2  A    between atoms: C_10  and  C_11
REMARK    3  A    between atoms: C_11  and  N_12
REMARK    4  A    between atoms: C_13  and  C_15
REMARK    5  A    between atoms: C_26  and  C_28
REMARK    6  A    between atoms: C_32  and  C_34
REMARK                            x       y       z     vdW  Elec       q    Type
REMARK                         _______ _______ _______ _____ _____    ______ ____
ROOT
ATOM      1  C   UNL     1      -6.075   6.597  -2.695  0.00  0.00    +0.100 C 
ATOM      2  C   UNL     1      -7.461   6.906  -2.086  0.00  0.00    +0.121 C 
ATOM      3  N   UNL     1      -8.007   7.994  -2.930  0.00  0.00    -0.296 N 
ATOM      4  C   UNL     1      -7.599   7.631  -4.309  0.00  0.00    +0.115 C 
ATOM      5  C   UNL     1      -6.170   7.074  -4.154  0.00  0.00    -0.004 C 
ATOM      6  C   UNL     1      -5.144   8.172  -4.418  0.00  0.00    -0.010 C 
ATOM      7  C   UNL     1      -5.219   8.590  -5.890  0.00  0.00    -0.082 C 
ATOM      8  N   UNL     1      -4.952   7.427  -6.745  0.00  0.00    +0.379 N 
ATOM      9  C   UNL     1      -5.996   6.414  -6.552  0.00  0.00    -0.082 C 
ATOM     10  C   UNL     1      -5.954   5.904  -5.108  0.00  0.00    -0.010 C 
ATOM     11  C   UNL     1      -8.715   9.070  -2.535  0.00  0.00    +0.247 C 
ATOM     12  O   UNL     1      -8.863   9.299  -1.350  0.00  0.00    -0.270 OA
ATOM     13  H   UNL     1      -4.942   7.718  -7.711  0.00  0.00    -0.086 HD
ATOM     14  H   UNL     1      -4.055   7.034  -6.505  0.00  0.00    -0.086 HD
ENDROOT
BRANCH  11  15
ATOM     15  C   UNL     1      -9.312   9.972  -3.541  0.00  0.00    +0.038 A 
ATOM     16  C   UNL     1      -9.532   9.521  -4.844  0.00  0.00    +0.016 A 
ATOM     17  C   UNL     1     -10.089  10.366  -5.779  0.00  0.00    +0.039 A 
ATOM     18  C   UNL     1     -10.432  11.663  -5.428  0.00  0.00    +0.135 A 
ATOM     19  C   UNL     1     -10.217  12.116  -4.135  0.00  0.00    +0.091 A 
ATOM     20  C   UNL     1      -9.665  11.277  -3.191  0.00  0.00    +0.028 A 
ATOM     21  F   UNL     1     -10.978  12.488  -6.348  0.00  0.00    -0.205 F 
BRANCH  19  22
ATOM     22  C   UNL     1     -10.591  13.527  -3.761  0.00  0.00    +0.420 C 
ATOM     23  F   UNL     1     -10.282  13.750  -2.415  0.00  0.00    -0.166 F 
ATOM     24  F   UNL     1      -9.877  14.427  -4.559  0.00  0.00    -0.166 F 
ATOM     25  F   UNL     1     -11.963  13.714  -3.961  0.00  0.00    -0.166 F 
ENDBRANCH  19  22
ENDBRANCH  11  15
BRANCH   1  27
ATOM     26  N   UNL     1      -4.530   4.672  -2.534  0.00  0.00    -0.315 N 
ATOM     27  C   UNL     1      -5.797   5.117  -2.644  0.00  0.00    +0.218 C 
ATOM     28  O   UNL     1      -6.715   4.325  -2.703  0.00  0.00    -0.275 OA
ATOM     29  H   UNL     1      -3.796   5.305  -2.487  0.00  0.00    +0.149 HD
BRANCH  26  30
ATOM     30  C   UNL     1      -4.260   3.233  -2.484  0.00  0.00    +0.109 C 
BRANCH  30  31
ATOM     31  C   UNL     1      -2.753   3.001  -2.358  0.00  0.00    +0.056 C 
BRANCH  31  38
ATOM     32  C   UNL     1      -2.182  -0.271  -5.667  0.00  0.00    +0.001 A 
ATOM     33  C   UNL     1      -1.939  -1.533  -5.143  0.00  0.00    +0.002 A 
ATOM     34  C   UNL     1      -1.886  -1.730  -3.780  0.00  0.00    +0.026 A 
ATOM     35  C   UNL     1      -2.076  -0.655  -2.919  0.00  0.00    +0.047 A 
ATOM     36  N   UNL     1      -2.084  -0.528  -1.548  0.00  0.00    -0.360 N 
ATOM     37  C   UNL     1      -2.323   0.774  -1.202  0.00  0.00    +0.087 A 
ATOM     38  C   UNL     1      -2.475   1.520  -2.308  0.00  0.00    -0.021 A 
ATOM     39  C   UNL     1      -2.321   0.623  -3.455  0.00  0.00    +0.003 A 
ATOM     40  C   UNL     1      -2.366   0.800  -4.839  0.00  0.00    +0.010 A 
ATOM     41  H   UNL     1      -1.941  -1.254  -0.920  0.00  0.00    +0.165 HD
ENDBRANCH  31  38
ENDBRANCH  30  31
ENDBRANCH  26  30
ENDBRANCH   1  27
TORSDOF 6
