REMARK  Name = ZINC15956670
REMARK  7 active torsions:
REMARK  status: ('A' for Active; 'I' for Inactive)
REMARK    1  A    between atoms: C_1  and  C_2
REMARK    2  A    between atoms: C_7  and  C_8
REMARK    3  A    between atoms: C_17  and  C_20
REMARK    4  A    between atoms: C_20  and  C_21
REMARK    5  A    between atoms: C_21  and  C_22
REMARK    6  A    between atoms: N_27  and  C_30
REMARK    7  A    between atoms: C_30  and  C_31
REMARK                            x       y       z     vdW  Elec       q    Type
REMARK                         _______ _______ _______ _____ _____    ______ ____
ROOT
ATOM      1  C   UNL     1      -0.106   1.492   0.104  0.00  0.00    +0.044 C 
ATOM      2  C   UNL     1      -0.069  -0.014   0.074  0.00  0.00    -0.046 A 
ATOM      3  C   UNL     1      -0.017  -0.677  -1.139  0.00  0.00    +0.004 A 
ATOM      4  C   UNL     1       0.017  -2.060  -1.167  0.00  0.00    +0.008 A 
ATOM      5  C   UNL     1      -0.001  -2.774   0.011  0.00  0.00    +0.004 A 
ATOM      6  C   UNL     1      -0.053  -2.118   1.237  0.00  0.00    +0.042 A 
ATOM      7  C   UNL     1      -0.082  -0.725   1.256  0.00  0.00    -0.026 A 
ATOM      8  C   UNL     1      -0.133   0.007   2.572  0.00  0.00    +0.046 C 
ATOM      9  N   UNL     1      -0.062  -3.045   2.281  0.00  0.00    -0.283 N 
ATOM     10  C   UNL     1      -0.018  -4.315   1.833  0.00  0.00    +0.243 C 
ATOM     11  O   UNL     1      -0.013  -5.321   2.510  0.00  0.00    -0.273 OA
ATOM     12  C   UNL     1       0.025  -4.241   0.331  0.00  0.00    +0.136 C 
ATOM     13  C   UNL     1       1.284  -4.918  -0.226  0.00  0.00    +0.122 C 
ATOM     14  C   UNL     1       0.817  -5.579  -1.553  0.00  0.00    +0.107 C 
ATOM     15  C   UNL     1      -0.675  -5.207  -1.678  0.00  0.00    +0.068 C 
ATOM     16  N   UNL     1      -1.117  -4.949  -0.275  0.00  0.00    -0.295 NA
ATOM     17  C   UNL     1       0.958  -7.058  -1.275  0.00  0.00    +0.227 C 
ATOM     18  O   UNL     1       0.686  -7.946  -2.054  0.00  0.00    -0.275 OA
ATOM     19  N   UNL     1       1.429  -7.234  -0.035  0.00  0.00    -0.237 N 
ATOM     20  C   UNL     1       1.660  -6.091   0.651  0.00  0.00    +0.229 C 
ATOM     21  O   UNL     1       2.094  -6.010   1.780  0.00  0.00    -0.275 OA
ATOM     22  H   UNL     1      -0.096  -2.803   3.220  0.00  0.00    +0.155 HD
ATOM     23  H   UNL     1      -1.312  -5.809   0.217  0.00  0.00    +0.123 HD
ENDROOT
BRANCH  15  24
ATOM     24  C   UNL     1      -1.468  -6.377  -2.265  0.00  0.00    +0.028 C 
BRANCH  24  25
ATOM     25  C   UNL     1      -2.917  -5.947  -2.496  0.00  0.00    +0.097 C 
BRANCH  25  26
ATOM     26  C   UNL     1      -3.698  -7.099  -3.074  0.00  0.00    +0.211 C 
ATOM     27  O   UNL     1      -3.148  -8.161  -3.280  0.00  0.00    -0.276 OA
ATOM     28  N   UNL     1      -5.006  -6.950  -3.361  0.00  0.00    -0.329 N 
ATOM     29  H   UNL     1      -5.446  -6.102  -3.195  0.00  0.00    +0.145 HD
ATOM     30  H   UNL     1      -5.508  -7.692  -3.733  0.00  0.00    +0.145 HD
ENDBRANCH  25  26
ENDBRANCH  24  25
ENDBRANCH  15  24
BRANCH  19  31
ATOM     31  C   UNL     1       1.681  -8.559   0.536  0.00  0.00    +0.153 C 
BRANCH  31  32
ATOM     32  C   UNL     1       3.034  -9.049   0.090  0.00  0.00    -0.011 A 
ATOM     33  C   UNL     1       3.142  -9.874  -1.014  0.00  0.00    +0.006 A 
ATOM     34  C   UNL     1       4.383 -10.324  -1.424  0.00  0.00    +0.000 A 
ATOM     35  C   UNL     1       5.518  -9.948  -0.730  0.00  0.00    +0.001 A 
ATOM     36  C   UNL     1       5.412  -9.123   0.374  0.00  0.00    +0.020 A 
ATOM     37  C   UNL     1       4.171  -8.668   0.781  0.00  0.00    +0.046 A 
ATOM     38 CL   UNL     1       4.038  -7.627   2.163  0.00  0.00    -0.083 Cl
ENDBRANCH  31  32
ENDBRANCH  19  31
TORSDOF 5
