REMARK  Name = ZINC59293421
REMARK  13 active torsions:
REMARK  status: ('A' for Active; 'I' for Inactive)
REMARK    1  A    between atoms: C_1  and  C_2
REMARK    2  A    between atoms: C_2  and  N_3
REMARK    3  A    between atoms: C_13  and  C_25
REMARK    4  A    between atoms: C_14  and  C_24
REMARK    5  A    between atoms: C_16  and  N_23
REMARK    6  A    between atoms: C_17  and  C_18
REMARK    7  A    between atoms: C_18  and  O_20
REMARK    8  A    between atoms: O_20  and  C_21
REMARK    9  A    between atoms: C_21  and  C_22
REMARK   10  A    between atoms: C_25  and  O_27
REMARK   11  A    between atoms: O_27  and  C_28
REMARK   12  A    between atoms: C_28  and  C_29
REMARK   13  A    between atoms: C_28  and  C_30
REMARK                            x       y       z     vdW  Elec       q    Type
REMARK                         _______ _______ _______ _____ _____    ______ ____
ROOT
ATOM      1  N   UNL     1      -1.873   0.412   0.056  0.00  0.00    -0.270 N 
ATOM      2  C   UNL     1      -2.391   0.028   1.295  0.00  0.00    +0.041 A 
ATOM      3  C   UNL     1      -1.994   0.356   2.589  0.00  0.00    +0.025 A 
ATOM      4  C   UNL     1      -2.676  -0.156   3.674  0.00  0.00    +0.017 A 
ATOM      5  C   UNL     1      -3.757  -0.999   3.486  0.00  0.00    +0.018 A 
ATOM      6  C   UNL     1      -4.156  -1.330   2.202  0.00  0.00    +0.022 A 
ATOM      7  C   UNL     1      -3.478  -0.820   1.118  0.00  0.00    -0.001 A 
ATOM      8  C   UNL     1      -3.649  -0.980  -0.372  0.00  0.00    +0.145 C 
ATOM      9  C   UNL     1      -2.554  -0.129  -0.970  0.00  0.00    +0.240 C 
ATOM     10  O   UNL     1      -2.330   0.035  -2.150  0.00  0.00    -0.274 OA
ATOM     11  C   UNL     1      -3.476  -2.417  -0.768  0.00  0.00    +0.098 C 
ATOM     12  C   UNL     1      -4.531  -3.166  -1.119  0.00  0.00    +0.116 C 
ATOM     13  O   UNL     1      -5.779  -2.671  -1.132  0.00  0.00    -0.446 OA
ATOM     14  C   UNL     1      -5.979  -1.341  -1.157  0.00  0.00    +0.195 C 
ATOM     15  C   UNL     1      -4.995  -0.471  -0.802  0.00  0.00    +0.117 C 
ATOM     16  C   UNL     1      -4.310  -4.604  -1.512  0.00  0.00    +0.087 C 
ATOM     17 BR   UNL     1      -4.685  -1.698   4.978  0.00  0.00    -0.050 Br
ENDROOT
BRANCH  14  18
ATOM     18  N   UNL     1      -7.197  -0.854  -1.547  0.00  0.00    -0.329 N 
ATOM     19  H   UNL     1      -7.927  -1.464  -1.732  0.00  0.00    +0.145 HD
ATOM     20  H   UNL     1      -7.330   0.103  -1.639  0.00  0.00    +0.145 HD
ENDBRANCH  14  18
BRANCH   1  22
ATOM     21  C   UNL     1      -1.196   2.759  -0.057  0.00  0.00    +0.025 C 
ATOM     22  C   UNL     1      -0.723   1.305  -0.107  0.00  0.00    +0.110 C 
ENDBRANCH   1  22
BRANCH  15  23
ATOM     23  C   UNL     1      -5.239   0.910  -0.839  0.00  0.00    +0.342 C 
ATOM     24  O   UNL     1      -5.430   1.522   0.196  0.00  0.00    -0.245 OA
BRANCH  23  25
ATOM     25  O   UNL     1      -5.263   1.560  -2.023  0.00  0.00    -0.462 OA
BRANCH  25  26
ATOM     26  C   UNL     1      -5.405   2.982  -1.979  0.00  0.00    +0.229 C 
ATOM     27  C   UNL     1      -5.531   3.525  -3.404  0.00  0.00    +0.048 C 
ENDBRANCH  25  26
ENDBRANCH  23  25
ENDBRANCH  15  23
BRANCH  11  28
ATOM     28  C   UNL     1      -2.180  -2.990  -0.772  0.00  0.00    +0.340 C 
ATOM     29  O   UNL     1      -1.676  -3.360   0.272  0.00  0.00    -0.245 OA
BRANCH  28  30
ATOM     30  O   UNL     1      -1.505  -3.124  -1.932  0.00  0.00    -0.459 OA
BRANCH  30  31
ATOM     31  C   UNL     1      -0.203  -3.710  -1.862  0.00  0.00    +0.171 C 
ATOM     32  C   UNL     1      -0.318  -5.228  -2.021  0.00  0.00    +0.052 C 
ATOM     33  C   UNL     1       0.672  -3.144  -2.981  0.00  0.00    +0.052 C 
ENDBRANCH  30  31
ENDBRANCH  28  30
ENDBRANCH  11  28
TORSDOF 8
