REMARK  Name = ZINC03381645
REMARK  4 active torsions:
REMARK  status: ('A' for Active; 'I' for Inactive)
REMARK    1  A    between atoms: N_13  and  C_17
REMARK    2  A    between atoms: C_17  and  C_18
REMARK    3  A    between atoms: C_21  and  C_33
REMARK    4  A    between atoms: C_24  and  C_26
REMARK                            x       y       z     vdW  Elec       q    Type
REMARK                         _______ _______ _______ _____ _____    ______ ____
ROOT
ATOM      1  C   UNL     1      -2.058  -3.164   2.847  0.00  0.00    +0.250 C 
ATOM      2  O   UNL     1      -2.161  -2.030   2.427  0.00  0.00    -0.272 OA
ATOM      3  N   UNL     1      -2.846  -3.583   3.856  0.00  0.00    -0.207 N 
ATOM      4  C   UNL     1      -3.881  -2.803   4.554  0.00  0.00    +0.187 C 
ATOM      5  C   UNL     1      -4.449  -3.752   5.585  0.00  0.00    +0.030 C 
ATOM      6  C   UNL     1      -3.801  -4.907   5.462  0.00  0.00    +0.050 C 
ATOM      7  N   UNL     1      -2.851  -4.852   4.451  0.00  0.00    -0.261 N 
ATOM      8  H   UNL     1      -2.272  -5.587   4.194  0.00  0.00    +0.170 HD
ENDROOT
BRANCH   6   9
ATOM      9  C   UNL     1      -4.063  -6.104   6.295  0.00  0.00    -0.003 A 
ATOM     10  C   UNL     1      -5.047  -6.067   7.282  0.00  0.00    +0.011 A 
ATOM     11  C   UNL     1      -5.287  -7.184   8.055  0.00  0.00    +0.020 A 
ATOM     12  C   UNL     1      -4.553  -8.340   7.852  0.00  0.00    +0.041 A 
ATOM     13  C   UNL     1      -3.575  -8.382   6.873  0.00  0.00    +0.020 A 
ATOM     14  C   UNL     1      -3.330  -7.272   6.091  0.00  0.00    +0.011 A 
ATOM     15 CL   UNL     1      -4.861  -9.742   8.828  0.00  0.00    -0.084 Cl
ENDBRANCH   6   9
BRANCH   4  16
ATOM     16  C   UNL     1      -4.954  -2.371   3.587  0.00  0.00    +0.131 A 
ATOM     17  C   UNL     1      -5.560  -1.170   3.570  0.00  0.00    +0.047 A 
ATOM     18  C   UNL     1      -6.492  -1.198   2.507  0.00  0.00    +0.041 A 
ATOM     19  C   UNL     1      -6.400  -2.413   1.939  0.00  0.00    +0.195 A 
ATOM     20  O   UNL     1      -5.462  -3.118   2.594  0.00  0.00    -0.466 OA
ENDBRANCH   4  16
BRANCH   1  21
ATOM     21  C   UNL     1      -1.047  -4.103   2.240  0.00  0.00    +0.215 C 
BRANCH  21  34
ATOM     22  C   UNL     1      -0.017   1.377   0.010  0.00  0.00    +0.001 A 
ATOM     23  C   UNL     1       1.171   2.084   0.002  0.00  0.00    +0.004 A 
ATOM     24  C   UNL     1       2.375   1.410  -0.015  0.00  0.00    +0.046 A 
ATOM     25  C   UNL     1       2.398   0.019  -0.023  0.00  0.00    +0.126 A 
ATOM     26  C   UNL     1       1.206  -0.687  -0.013  0.00  0.00    +0.027 A 
ATOM     27  C   UNL     1       0.002  -0.004   0.002  0.00  0.00    +0.010 A 
ATOM     28  C   UNL     1       1.195  -2.190  -0.012  0.00  0.00    +0.144 C 
ATOM     29  C   UNL     1       2.552  -2.742  -0.437  0.00  0.00    +0.081 C 
ATOM     30  C   UNL     1       3.643  -1.988   0.336  0.00  0.00    +0.232 C 
ATOM     31  O   UNL     1       3.600  -0.613  -0.045  0.00  0.00    -0.492 OA
ATOM     32  C   UNL     1       0.817  -2.714   1.355  0.00  0.00    +0.252 C 
ATOM     33  O   UNL     1       1.412  -2.542   2.397  0.00  0.00    -0.272 OA
ATOM     34  N   UNL     1      -0.321  -3.414   1.170  0.00  0.00    -0.215 N 
ATOM     35  C   UNL     1      -0.706  -3.401  -0.113  0.00  0.00    +0.310 C 
ATOM     36  O   UNL     1      -1.702  -3.961  -0.525  0.00  0.00    -0.252 OA
ATOM     37  N   UNL     1       0.136  -2.696  -0.893  0.00  0.00    -0.281 N 
ATOM     38  H   UNL     1       0.057  -2.552  -1.849  0.00  0.00    +0.152 HD
ENDBRANCH  21  34
ENDBRANCH   1  21
TORSDOF 4
