REMARK  Name = ZINC13687656
REMARK  12 active torsions:
REMARK  status: ('A' for Active; 'I' for Inactive)
REMARK    1  A    between atoms: C_1  and  C_2
REMARK    2  A    between atoms: C_2  and  C_3
REMARK    3  A    between atoms: C_2  and  C_4
REMARK    4  A    between atoms: C_2  and  N_69
REMARK    5  A    between atoms: N_6  and  C_7
REMARK    6  A    between atoms: C_7  and  C_9
REMARK    7  A    between atoms: C_7  and  C_18
REMARK    8  A    between atoms: C_9  and  O_10
REMARK    9  A    between atoms: O_10  and  C_11
REMARK   10  A    between atoms: C_11  and  C_12
REMARK   11  A    between atoms: C_28  and  C_30
REMARK   12  A    between atoms: C_30  and  C_31
REMARK                            x       y       z     vdW  Elec       q    Type
REMARK                         _______ _______ _______ _____ _____    ______ ____
ROOT
ATOM      1  C   UNL     1      -4.472  -0.211   2.961  0.00  0.00    +0.185 C 
ENDROOT
BRANCH   1   2
ATOM      2  C   UNL     1      -5.694  -1.084   3.082  0.00  0.00    +0.238 C 
ATOM      3  O   UNL     1      -6.778  -0.584   3.297  0.00  0.00    -0.273 OA
ATOM      4  N   UNL     1      -5.583  -2.421   2.952  0.00  0.00    -0.298 N 
ATOM      5  C   UNL     1      -4.270  -3.018   2.686  0.00  0.00    +0.114 C 
ATOM      6  C   UNL     1      -4.325  -3.830   1.385  0.00  0.00    +0.072 C 
ATOM      7  C   UNL     1      -5.593  -4.650   1.438  0.00  0.00    +0.055 C 
ATOM      8  N   UNL     1      -5.759  -5.897   1.326  0.00  0.00    -0.188 NA
ATOM      9  N   UNL     1      -7.071  -6.295   1.583  0.00  0.00    -0.206 N 
ATOM     10  C   UNL     1      -7.842  -5.237   1.925  0.00  0.00    +0.246 C 
ATOM     11  O   UNL     1      -8.999  -5.253   2.288  0.00  0.00    -0.273 OA
ATOM     12  C   UNL     1      -6.948  -4.032   1.754  0.00  0.00    +0.108 C 
ATOM     13  C   UNL     1      -6.781  -3.267   3.072  0.00  0.00    +0.130 C 
ATOM     14  H   UNL     1      -7.389  -7.210   1.525  0.00  0.00    +0.177 HD
BRANCH  12  15
ATOM     15  C   UNL     1      -7.449  -3.117   0.635  0.00  0.00    +0.059 C 
BRANCH  15  16
ATOM     16  C   UNL     1      -7.597  -3.912  -0.636  0.00  0.00    -0.046 A 
ATOM     17  C   UNL     1      -6.535  -4.014  -1.516  0.00  0.00    +0.003 A 
ATOM     18  C   UNL     1      -6.670  -4.747  -2.679  0.00  0.00    +0.000 A 
ATOM     19  C   UNL     1      -7.869  -5.371  -2.969  0.00  0.00    +0.000 A 
ATOM     20  C   UNL     1      -8.932  -5.266  -2.091  0.00  0.00    +0.000 A 
ATOM     21  C   UNL     1      -8.796  -4.536  -0.925  0.00  0.00    +0.003 A 
ENDBRANCH  15  16
ENDBRANCH  12  15
ENDBRANCH   1   2
BRANCH   1  24
ATOM     22  C   UNL     1      -5.736   1.864   3.140  0.00  0.00    +0.202 C 
ATOM     23  O   UNL     1      -6.422   1.492   2.212  0.00  0.00    -0.277 OA
ATOM     24  N   UNL     1      -4.733   1.085   3.591  0.00  0.00    -0.303 N 
ATOM     25  H   UNL     1      -4.184   1.383   4.334  0.00  0.00    +0.149 HD
BRANCH  22  27
ATOM     26  C   UNL     1      -5.096   4.260   3.167  0.00  0.00    -0.001 C 
ATOM     27  C   UNL     1      -6.005   3.198   3.788  0.00  0.00    +0.001 C 
ATOM     28  C   UNL     1      -7.468   3.586   3.568  0.00  0.00    -0.001 C 
BRANCH  27  31
ATOM     29  H   UNL     1      -5.907   3.987   5.688  0.00  0.00    -0.089 HD
ATOM     30  H   UNL     1      -6.276   2.366   5.652  0.00  0.00    -0.089 HD
ATOM     31  N   UNL     1      -5.709   3.099   5.229  0.00  0.00    +0.387 N 
ATOM     32  H   UNL     1      -4.716   2.871   5.355  0.00  0.00    -0.089 HD
ENDBRANCH  27  31
ENDBRANCH  22  27
ENDBRANCH   1  24
BRANCH   1  33
ATOM     33  C   UNL     1      -4.140  -0.001   1.482  0.00  0.00    +0.192 C 
BRANCH  33  34
ATOM     34  O   UNL     1      -2.917   0.728   1.367  0.00  0.00    -0.373 OA
BRANCH  34  35
ATOM     35  C   UNL     1      -2.514   0.980   0.019  0.00  0.00    +0.195 C 
BRANCH  35  36
ATOM     36  C   UNL     1      -1.219   1.751   0.017  0.00  0.00    -0.022 A 
ATOM     37  C   UNL     1      -0.013   1.076   0.008  0.00  0.00    +0.006 A 
ATOM     38  C   UNL     1       1.175   1.783   0.000  0.00  0.00    +0.000 A 
ATOM     39  C   UNL     1       1.156   3.165   0.008  0.00  0.00    +0.000 A 
ATOM     40  C   UNL     1      -0.050   3.840   0.022  0.00  0.00    +0.000 A 
ATOM     41  C   UNL     1      -1.238   3.133   0.030  0.00  0.00    +0.006 A 
ENDBRANCH  35  36
ENDBRANCH  34  35
ENDBRANCH  33  34
ENDBRANCH   1  33
TORSDOF 10
