REMARK  Name = ZINC38588093
REMARK  5 active torsions:
REMARK  status: ('A' for Active; 'I' for Inactive)
REMARK    1  A    between atoms: C_1  and  C_2
REMARK    2  A    between atoms: C_4  and  C_25
REMARK    3  A    between atoms: C_29  and  O_31
REMARK    4  A    between atoms: O_31  and  C_32
REMARK    5  A    between atoms: C_32  and  C_33
REMARK                            x       y       z     vdW  Elec       q    Type
REMARK                         _______ _______ _______ _____ _____    ______ ____
ROOT
ATOM      1  C   UNL     1      -0.036   1.464  -0.287  0.00  0.00    +0.062 C 
ATOM      2  C   UNL     1      -0.041  -0.043  -0.297  0.00  0.00    +0.023 C 
ATOM      3  C   UNL     1      -1.118  -0.781  -0.069  0.00  0.00    +0.005 C 
ATOM      4  C   UNL     1      -2.473  -0.248   0.236  0.00  0.00    +0.108 C 
ATOM      5  S   UNL     1      -2.993  -0.609   1.923  0.00  0.00    -0.139 S 
ATOM      6  C   UNL     1      -3.224  -2.394   1.995  0.00  0.00    +0.165 C 
ATOM      7  C   UNL     1      -1.948  -3.130   1.791  0.00  0.00    +0.225 C 
ATOM      8  O   UNL     1      -1.817  -4.062   2.556  0.00  0.00    -0.275 OA
ATOM      9  N   UNL     1      -0.957  -3.004   0.993  0.00  0.00    -0.291 N 
ATOM     10  C   UNL     1      -0.692  -2.220  -0.175  0.00  0.00    +0.210 C 
ATOM     11  N   UNL     1       0.747  -2.177  -0.479  0.00  0.00    -0.213 N 
ATOM     12  N   UNL     1       1.073  -0.816  -0.551  0.00  0.00    -0.265 N 
ATOM     13  C   UNL     1       1.576  -3.226  -0.655  0.00  0.00    +0.150 C 
ATOM     14  N   UNL     1       1.137  -4.469  -0.570  0.00  0.00    -0.221 NA
ATOM     15  C   UNL     1       1.919  -5.539  -0.670  0.00  0.00    +0.225 C 
ATOM     16  N   UNL     1       3.239  -5.470  -0.547  0.00  0.00    -0.218 NA
ATOM     17  C   UNL     1       3.747  -4.252  -0.384  0.00  0.00    +0.164 C 
ATOM     18  N   UNL     1       4.776  -3.773   0.246  0.00  0.00    -0.219 NA
ATOM     19  C   UNL     1       4.669  -2.449   0.419  0.00  0.00    +0.218 C 
ATOM     20  N   UNL     1       3.659  -1.928  -0.221  0.00  0.00    -0.253 NA
ATOM     21  C   UNL     1       3.035  -3.026  -0.962  0.00  0.00    +0.239 C 
ATOM     22  H   UNL     1      -0.209  -3.572   1.236  0.00  0.00    +0.151 HD
ATOM     23  H   UNL     1       1.957  -0.467  -0.749  0.00  0.00    +0.170 HD
ENDROOT
BRANCH   4  24
ATOM     24  C   UNL     1      -2.463   1.246   0.041  0.00  0.00    -0.027 A 
ATOM     25  C   UNL     1      -2.740   1.782  -1.203  0.00  0.00    +0.005 A 
ATOM     26  C   UNL     1      -2.732   3.153  -1.386  0.00  0.00    +0.004 A 
ATOM     27  C   UNL     1      -2.447   3.990  -0.325  0.00  0.00    +0.046 A 
ATOM     28  C   UNL     1      -2.170   3.455   0.925  0.00  0.00    +0.122 A 
ATOM     29  C   UNL     1      -2.184   2.080   1.107  0.00  0.00    +0.050 A 
BRANCH  28  30
ATOM     30  O   UNL     1      -1.889   4.277   1.970  0.00  0.00    -0.480 OA
BRANCH  30  31
ATOM     31  C   UNL     1      -1.898   5.683   1.711  0.00  0.00    +0.317 C 
BRANCH  31  32
ATOM     32  C   UNL     1      -1.576   6.412   2.948  0.00  0.00    -0.065 C 
ATOM     33  C   UNL     1      -1.319   6.993   3.935  0.00  0.00    +0.007 C 
ENDBRANCH  31  32
ENDBRANCH  30  31
ENDBRANCH  28  30
ENDBRANCH   4  24
TORSDOF 4
