REMARK  Name = ZINC20468276
REMARK  12 active torsions:
REMARK  status: ('A' for Active; 'I' for Inactive)
REMARK    1  A    between atoms: C_1  and  C_2
REMARK    2  A    between atoms: C_2  and  C_3
REMARK    3  A    between atoms: C_2  and  C_4
REMARK    4  A    between atoms: C_2  and  C_17
REMARK    5  A    between atoms: C_4  and  N_5
REMARK    6  A    between atoms: N_5  and  C_6
REMARK    7  A    between atoms: C_6  and  N_8
REMARK    8  A    between atoms: N_8  and  C_9
REMARK    9  A    between atoms: C_17  and  N_18
REMARK   10  A    between atoms: N_18  and  C_19
REMARK   11  A    between atoms: C_19  and  N_21
REMARK   12  A    between atoms: N_21  and  C_22
REMARK                            x       y       z     vdW  Elec       q    Type
REMARK                         _______ _______ _______ _____ _____    ______ ____
ROOT
ATOM      1  C   UNL     1      -1.506  -3.449   1.694  0.00  0.00    +0.014 C 
ATOM      2  C   UNL     1      -0.109  -2.911   1.376  0.00  0.00    -0.004 C 
ATOM      3  C   UNL     1       0.009  -2.657  -0.128  0.00  0.00    +0.014 C 
ENDROOT
BRANCH   2   4
ATOM      4  C   UNL     1       0.118  -1.602   2.134  0.00  0.00    +0.111 C 
BRANCH   4   5
ATOM      5  N   UNL     1      -0.888  -0.619   1.724  0.00  0.00    -0.326 N 
ATOM      6  H   UNL     1      -1.647  -0.889   0.976  0.00  0.00    +0.148 HD
BRANCH   5   7
ATOM      7  C   UNL     1      -0.883   0.616   2.264  0.00  0.00    +0.135 C 
ATOM      8  S   UNL     1       0.299   1.036   3.430  0.00  0.00    -0.019 S 
BRANCH   7   9
ATOM      9  N   UNL     1      -1.806   1.521   1.883  0.00  0.00    -0.297 N 
ATOM     10  H   UNL     1      -2.506   1.284   1.070  0.00  0.00    +0.154 HD
BRANCH   9  11
ATOM     11  C   UNL     1      -1.872   2.764   2.523  0.00  0.00    +0.034 A 
ATOM     12  C   UNL     1      -1.721   2.846   3.901  0.00  0.00    +0.025 A 
ATOM     13  C   UNL     1      -1.781   4.074   4.530  0.00  0.00    +0.023 A 
ATOM     14  C   UNL     1      -2.003   5.222   3.790  0.00  0.00    +0.059 A 
ATOM     15  C   UNL     1      -2.159   5.143   2.416  0.00  0.00    +0.061 A 
ATOM     16  C   UNL     1      -2.094   3.917   1.782  0.00  0.00    +0.044 A 
ATOM     17 CL   UNL     1      -2.437   6.585   1.490  0.00  0.00    -0.082 Cl
ATOM     18 CL   UNL     1      -2.084   6.763   4.584  0.00  0.00    -0.082 Cl
ENDBRANCH   9  11
ENDBRANCH   7   9
ENDBRANCH   5   7
ENDBRANCH   4   5
ENDBRANCH   2   4
BRANCH   2  19
ATOM     19  C   UNL     1       0.942  -3.938   1.804  0.00  0.00    +0.111 C 
BRANCH  19  20
ATOM     20  N   UNL     1       0.724  -5.191   1.078  0.00  0.00    -0.326 N 
ATOM     21  H   UNL     1      -0.102  -5.272   0.356  0.00  0.00    +0.148 HD
BRANCH  20  22
ATOM     22  C   UNL     1       1.536  -6.245   1.295  0.00  0.00    +0.135 C 
ATOM     23  S   UNL     1       2.821  -6.119   2.418  0.00  0.00    -0.019 S 
BRANCH  22  24
ATOM     24  N   UNL     1       1.335  -7.399   0.627  0.00  0.00    -0.297 N 
ATOM     25  H   UNL     1       0.570  -7.452  -0.162  0.00  0.00    +0.154 HD
BRANCH  24  26
ATOM     26  C   UNL     1       2.100  -8.529   0.937  0.00  0.00    +0.034 A 
ATOM     27  C   UNL     1       2.567  -9.353  -0.079  0.00  0.00    +0.025 A 
ATOM     28  C   UNL     1       3.327 -10.464   0.228  0.00  0.00    +0.023 A 
ATOM     29  C   UNL     1       3.614 -10.764   1.548  0.00  0.00    +0.059 A 
ATOM     30  C   UNL     1       3.145  -9.948   2.564  0.00  0.00    +0.061 A 
ATOM     31  C   UNL     1       2.389  -8.831   2.261  0.00  0.00    +0.044 A 
ATOM     32 CL   UNL     1       3.506 -10.328   4.219  0.00  0.00    -0.082 Cl
ATOM     33 CL   UNL     1       4.563 -12.167   1.932  0.00  0.00    -0.082 Cl
ENDBRANCH  24  26
ENDBRANCH  22  24
ENDBRANCH  20  22
ENDBRANCH  19  20
ENDBRANCH   2  19
TORSDOF 10
