REMARK  Name = ZINC13817384
REMARK  4 active torsions:
REMARK  status: ('A' for Active; 'I' for Inactive)
REMARK    1  A    between atoms: C_3  and  O_41
REMARK    2  A    between atoms: C_6  and  C_7
REMARK    3  A    between atoms: C_7  and  C_8
REMARK    4  A    between atoms: N_16  and  C_19
REMARK                            x       y       z     vdW  Elec       q    Type
REMARK                         _______ _______ _______ _____ _____    ______ ____
ROOT
ATOM      1  C   UNL     1      -1.800  -0.993  -1.403  0.00  0.00    +0.072 C 
ATOM      2  C   UNL     1      -3.078  -1.857  -1.431  0.00  0.00    +0.108 C 
ATOM      3  C   UNL     1      -2.571  -3.313  -1.632  0.00  0.00    +0.123 C 
ATOM      4  C   UNL     1      -3.122  -3.688  -2.990  0.00  0.00    +0.233 C 
ATOM      5  O   UNL     1      -2.966  -4.758  -3.537  0.00  0.00    -0.274 OA
ATOM      6  N   UNL     1      -3.808  -2.655  -3.492  0.00  0.00    -0.210 N 
ATOM      7  C   UNL     1      -3.853  -1.563  -2.695  0.00  0.00    +0.232 C 
ATOM      8  O   UNL     1      -4.417  -0.519  -2.944  0.00  0.00    -0.274 OA
ATOM      9  C   UNL     1      -1.044  -3.184  -1.696  0.00  0.00    +0.136 C 
ATOM     10  N   UNL     1      -0.779  -1.790  -2.132  0.00  0.00    -0.295 NA
ATOM     11  C   UNL     1      -0.443  -4.170  -2.656  0.00  0.00    +0.006 A 
ATOM     12  C   UNL     1      -0.607  -4.402  -4.004  0.00  0.00    +0.046 A 
ATOM     13  C   UNL     1       0.110  -5.412  -4.625  0.00  0.00    +0.124 A 
ATOM     14  C   UNL     1       0.990  -6.186  -3.888  0.00  0.00    +0.040 A 
ATOM     15  C   UNL     1       1.155  -5.956  -2.538  0.00  0.00    +0.026 A 
ATOM     16  C   UNL     1       0.438  -4.943  -1.906  0.00  0.00    +0.039 A 
ATOM     17  N   UNL     1       0.432  -4.524  -0.572  0.00  0.00    -0.283 N 
ATOM     18  C   UNL     1      -0.412  -3.495  -0.367  0.00  0.00    +0.243 C 
ATOM     19  O   UNL     1      -0.621  -2.929   0.685  0.00  0.00    -0.273 OA
ATOM     20  F   UNL     1      -0.050  -5.640  -5.947  0.00  0.00    -0.205 F 
ATOM     21  H   UNL     1      -0.885  -1.687  -3.130  0.00  0.00    +0.124 HD
ATOM     22  H   UNL     1       0.973  -4.928   0.124  0.00  0.00    +0.155 HD
ENDROOT
BRANCH   6  23
ATOM     23  C   UNL     1      -4.439  -2.701  -4.745  0.00  0.00    +0.048 A 
ATOM     24  C   UNL     1      -3.972  -1.910  -5.786  0.00  0.00    +0.028 A 
ATOM     25  C   UNL     1      -4.593  -1.953  -7.019  0.00  0.00    +0.051 A 
ATOM     26  C   UNL     1      -5.683  -2.787  -7.222  0.00  0.00    +0.162 A 
ATOM     27  C   UNL     1      -6.150  -3.582  -6.182  0.00  0.00    +0.164 A 
ATOM     28  C   UNL     1      -5.524  -3.541  -4.946  0.00  0.00    +0.073 A 
ATOM     29  O   UNL     1      -7.213  -4.412  -6.364  0.00  0.00    -0.485 OA
ATOM     30  C   UNL     1      -8.043  -4.157  -7.503  0.00  0.00    +0.270 C 
ATOM     31  C   UNL     1      -7.133  -3.933  -8.719  0.00  0.00    +0.270 C 
ATOM     32  O   UNL     1      -6.285  -2.813  -8.443  0.00  0.00    -0.485 OA
ENDBRANCH   6  23
BRANCH   1  33
ATOM     33  C   UNL     1      -1.355  -0.749   0.041  0.00  0.00    +0.054 C 
BRANCH  33  39
ATOM     34  C   UNL     1      -3.182   0.539   1.165  0.00  0.00    +0.007 A 
ATOM     35  C   UNL     1      -3.729   1.722   1.623  0.00  0.00    +0.045 A 
ATOM     36  C   UNL     1      -3.040   2.914   1.455  0.00  0.00    +0.117 A 
ATOM     37  C   UNL     1      -1.803   2.915   0.827  0.00  0.00    +0.045 A 
ATOM     38  C   UNL     1      -1.261   1.730   0.371  0.00  0.00    +0.007 A 
ATOM     39  C   UNL     1      -1.949   0.543   0.539  0.00  0.00    -0.046 A 
BRANCH  36  40
ATOM     40  O   UNL     1      -3.577   4.079   1.905  0.00  0.00    -0.507 OA
ATOM     41  H   UNL     1      -3.336   4.297   2.815  0.00  0.00    +0.292 HD
ENDBRANCH  36  40
ENDBRANCH  33  39
ENDBRANCH   1  33
TORSDOF 4
