REMARK  Name = ZINC16685472
REMARK  12 active torsions:
REMARK  status: ('A' for Active; 'I' for Inactive)
REMARK    1  A    between atoms: C_1  and  C_2
REMARK    2  A    between atoms: C_2  and  C_4
REMARK    3  A    between atoms: C_2  and  N_57
REMARK    4  A    between atoms: C_7  and  S_16
REMARK    5  A    between atoms: N_8  and  C_9
REMARK    6  A    between atoms: S_16  and  C_17
REMARK    7  A    between atoms: C_17  and  C_18
REMARK    8  A    between atoms: C_18  and  C_20
REMARK    9  A    between atoms: C_21  and  N_32
REMARK   10  A    between atoms: N_22  and  C_29
REMARK   11  A    between atoms: C_33  and  N_57
REMARK   12  A    between atoms: C_34  and  N_57
REMARK                            x       y       z     vdW  Elec       q    Type
REMARK                         _______ _______ _______ _____ _____    ______ ____
ROOT
ATOM      1  S   UNL     1      -5.805   4.462  -1.383  0.00  0.00    -0.078 S 
ENDROOT
BRANCH   1   5
ATOM      2  C   UNL     1      -3.939   1.587   0.487  0.00  0.00    +0.125 A 
ATOM      3  N   UNL     1      -3.758   1.276  -0.766  0.00  0.00    -0.135 NA
ATOM      4  N   UNL     1      -4.330   2.141  -1.524  0.00  0.00    -0.122 NA
ATOM      5  C   UNL     1      -4.906   3.067  -0.792  0.00  0.00    +0.196 A 
ATOM      6  N   UNL     1      -4.675   2.742   0.516  0.00  0.00    -0.275 N 
BRANCH   6   7
ATOM      7  C   UNL     1      -5.103   3.446   1.652  0.00  0.00    +0.050 A 
ATOM      8  C   UNL     1      -6.012   2.867   2.526  0.00  0.00    +0.028 A 
ATOM      9  C   UNL     1      -6.428   3.560   3.647  0.00  0.00    +0.022 A 
ATOM     10  C   UNL     1      -5.947   4.834   3.892  0.00  0.00    +0.041 A 
ATOM     11  C   UNL     1      -5.044   5.415   3.019  0.00  0.00    +0.022 A 
ATOM     12  C   UNL     1      -4.621   4.724   1.901  0.00  0.00    +0.028 A 
ATOM     13 CL   UNL     1      -6.477   5.704   5.298  0.00  0.00    -0.084 Cl
ENDBRANCH   6   7
BRANCH   2  15
ATOM     14  C   UNL     1      -1.925   1.061   1.834  0.00  0.00    -0.005 C 
ATOM     15  C   UNL     1      -3.429   0.822   1.680  0.00  0.00    -0.003 C 
BRANCH  15  18
ATOM     16  C   UNL     1      -2.886  -1.139   0.368  0.00  0.00    -0.096 C 
ATOM     17  C   UNL     1      -3.415  -1.364   2.721  0.00  0.00    -0.096 C 
ATOM     18  N   UNL     1      -3.708  -0.615   1.480  0.00  0.00    +0.382 N 
ATOM     19  H   UNL     1      -4.700  -0.733   1.246  0.00  0.00    -0.082 HD
ENDBRANCH  15  18
ENDBRANCH   2  15
ENDBRANCH   1   5
BRANCH   1  20
ATOM     20  C   UNL     1      -5.667   4.192  -3.168  0.00  0.00    +0.157 C 
BRANCH  20  21
ATOM     21  C   UNL     1      -6.384   5.296  -3.900  0.00  0.00    +0.182 C 
ATOM     22  O   UNL     1      -6.936   6.180  -3.276  0.00  0.00    -0.291 OA
BRANCH  21  23
ATOM     23  C   UNL     1      -6.415   5.304  -5.311  0.00  0.00    +0.120 A 
ATOM     24  C   UNL     1      -7.193   6.239  -6.015  0.00  0.00    +0.116 A 
ATOM     25  N   UNL     1      -7.186   6.211  -7.380  0.00  0.00    -0.278 N 
ATOM     26  C   UNL     1      -6.463   5.303  -8.055  0.00  0.00    +0.331 A 
ATOM     27  O   UNL     1      -6.495   5.316  -9.270  0.00  0.00    -0.246 OA
ATOM     28  N   UNL     1      -5.706   4.381  -7.437  0.00  0.00    -0.274 N 
ATOM     29  H   UNL     1      -5.185   3.725  -7.982  0.00  0.00    +0.173 HD
ATOM     30  C   UNL     1      -5.641   4.330  -6.091  0.00  0.00    +0.266 A 
ATOM     31  O   UNL     1      -4.953   3.493  -5.534  0.00  0.00    -0.267 OA
BRANCH  25  32
ATOM     32  C   UNL     1      -7.988   7.186  -8.123  0.00  0.00    +0.094 C 
ATOM     33  C   UNL     1      -7.313   7.917  -9.285  0.00  0.00    +0.027 C 
ATOM     34  C   UNL     1      -7.613   8.662  -7.982  0.00  0.00    +0.027 C 
ENDBRANCH  25  32
BRANCH  24  35
ATOM     35  N   UNL     1      -7.936   7.163  -5.346  0.00  0.00    -0.344 N 
ATOM     36  H   UNL     1      -7.667   7.452  -4.460  0.00  0.00    +0.144 HD
ATOM     37  H   UNL     1      -8.734   7.532  -5.756  0.00  0.00    +0.144 HD
ENDBRANCH  24  35
ENDBRANCH  21  23
ENDBRANCH  20  21
ENDBRANCH   1  20
TORSDOF 9
