REMARK  Name = ZINC09370759
REMARK  20 active torsions:
REMARK  status: ('A' for Active; 'I' for Inactive)
REMARK    1  A    between atoms: C_1  and  C_2
REMARK    2  A    between atoms: C_2  and  N_75
REMARK    3  A    between atoms: C_3  and  C_4
REMARK    4  A    between atoms: C_3  and  N_75
REMARK    5  A    between atoms: C_5  and  C_6
REMARK    6  A    between atoms: C_5  and  N_75
REMARK    7  A    between atoms: C_6  and  N_7
REMARK    8  A    between atoms: C_8  and  C_28
REMARK    9  A    between atoms: C_10  and  C_15
REMARK   10  A    between atoms: C_11  and  O_14
REMARK   11  A    between atoms: C_15  and  C_17
REMARK   12  A    between atoms: C_20  and  O_24
REMARK   13  A    between atoms: C_21  and  C_23
REMARK   14  A    between atoms: O_24  and  C_25
REMARK   15  A    between atoms: C_25  and  C_26
REMARK   16  A    between atoms: C_25  and  C_27
REMARK   17  A    between atoms: C_32  and  O_36
REMARK   18  A    between atoms: C_33  and  O_34
REMARK   19  A    between atoms: O_34  and  C_35
REMARK   20  A    between atoms: O_36  and  C_37
REMARK                            x       y       z     vdW  Elec       q    Type
REMARK                         _______ _______ _______ _____ _____    ______ ____
ROOT
ATOM      1  N   UNL     1      -1.731   3.689   0.015  0.00  0.00    -0.285 N 
ATOM      2  C   UNL     1      -0.978   2.614   0.673  0.00  0.00    +0.148 C 
ATOM      3  C   UNL     1      -1.917   2.002   1.686  0.00  0.00    +0.071 C 
ATOM      4  C   UNL     1      -3.085   2.679   1.596  0.00  0.00    +0.188 C 
ATOM      5  C   UNL     1      -2.961   3.724   0.557  0.00  0.00    +0.282 C 
ATOM      6  O   UNL     1      -3.841   4.499   0.240  0.00  0.00    -0.267 OA
ENDROOT
BRANCH   2   7
ATOM      7  C   UNL     1       0.235   3.179   1.365  0.00  0.00    +0.023 A 
ATOM      8  C   UNL     1       0.194   3.450   2.721  0.00  0.00    +0.009 A 
ATOM      9  C   UNL     1       1.303   3.974   3.358  0.00  0.00    +0.004 A 
ATOM     10  C   UNL     1       2.460   4.224   2.644  0.00  0.00    +0.049 A 
ATOM     11  C   UNL     1       2.510   3.950   1.287  0.00  0.00    +0.162 A 
ATOM     12  C   UNL     1       1.393   3.423   0.645  0.00  0.00    +0.167 A 
BRANCH  12  13
ATOM     13  O   UNL     1       1.437   3.152  -0.687  0.00  0.00    -0.491 OA
ATOM     14  C   UNL     1       1.978   1.888  -1.075  0.00  0.00    +0.277 C 
ENDBRANCH  12  13
BRANCH  11  15
ATOM     15  O   UNL     1       3.648   4.195   0.584  0.00  0.00    -0.491 OA
ATOM     16  C   UNL     1       4.788   4.630   1.326  0.00  0.00    +0.277 C 
ENDBRANCH  11  15
ENDBRANCH   2   7
BRANCH   4  17
ATOM     17  O   UNL     1      -4.190   2.438   2.338  0.00  0.00    -0.502 OA
ATOM     18  H   UNL     1      -4.913   3.077   2.076  0.00  0.00    +0.292 HD
ENDBRANCH   4  17
BRANCH   3  19
ATOM     19  C   UNL     1      -1.620   0.888   2.592  0.00  0.00    +0.195 C 
ATOM     20  O   UNL     1      -1.587   1.074   3.795  0.00  0.00    -0.287 OA
BRANCH  19  21
ATOM     21  C   UNL     1      -1.359  -0.459   2.047  0.00  0.00    +0.023 A 
ATOM     22  C   UNL     1      -1.480  -0.694   0.673  0.00  0.00    +0.015 A 
ATOM     23  C   UNL     1      -1.232  -1.950   0.168  0.00  0.00    +0.046 A 
ATOM     24  C   UNL     1      -0.872  -2.987   1.022  0.00  0.00    +0.124 A 
ATOM     25  C   UNL     1      -0.755  -2.758   2.389  0.00  0.00    -0.008 A 
ATOM     26  C   UNL     1      -0.997  -1.504   2.902  0.00  0.00    +0.018 A 
ATOM     27  C   UNL     1      -0.365  -3.885   3.310  0.00  0.00    +0.047 C 
BRANCH  24  28
ATOM     28  O   UNL     1      -0.633  -4.225   0.521  0.00  0.00    -0.489 OA
BRANCH  28  29
ATOM     29  C   UNL     1      -0.849  -4.410  -0.880  0.00  0.00    +0.167 C 
ATOM     30  C   UNL     1       0.388  -3.944  -1.652  0.00  0.00    +0.051 C 
ATOM     31  C   UNL     1      -1.099  -5.892  -1.166  0.00  0.00    +0.051 C 
ENDBRANCH  28  29
ENDBRANCH  24  28
ENDBRANCH  19  21
ENDBRANCH   3  19
BRANCH   1  32
ATOM     32  C   UNL     1      -1.230   4.568  -1.044  0.00  0.00    +0.090 C 
BRANCH  32  33
ATOM     33  C   UNL     1      -1.560   3.962  -2.409  0.00  0.00    -0.060 C 
BRANCH  33  34
ATOM     34  N   UNL     1      -1.115   4.898  -3.463  0.00  0.00    +0.380 N 
ATOM     35  H   UNL     1      -1.361   5.855  -3.184  0.00  0.00    -0.082 HD
BRANCH  34  37
ATOM     36  C   UNL     1       0.751   3.409  -4.105  0.00  0.00    -0.017 C 
ATOM     37  C   UNL     1       0.350   4.808  -3.633  0.00  0.00    -0.082 C 
ENDBRANCH  34  37
BRANCH  34  38
ATOM     38  C   UNL     1      -1.792   4.581  -4.739  0.00  0.00    -0.082 C 
ATOM     39  C   UNL     1      -1.584   5.746  -5.709  0.00  0.00    -0.017 C 
ENDBRANCH  34  38
ENDBRANCH  33  34
ENDBRANCH  32  33
ENDBRANCH   1  32
TORSDOF 13
