REMARK  Name = ZINC64480245
REMARK  12 active torsions:
REMARK  status: ('A' for Active; 'I' for Inactive)
REMARK    1  A    between atoms: C_1  and  C_2
REMARK    2  A    between atoms: C_7  and  O_14
REMARK    3  A    between atoms: C_9  and  O_10
REMARK    4  A    between atoms: O_10  and  C_11
REMARK    5  A    between atoms: C_11  and  C_13
REMARK    6  A    between atoms: O_14  and  C_15
REMARK    7  A    between atoms: C_15  and  C_17
REMARK    8  A    between atoms: C_21  and  C_23
REMARK    9  A    between atoms: C_23  and  C_24
REMARK   10  A    between atoms: N_26  and  C_27
REMARK   11  A    between atoms: C_27  and  C_28
REMARK   12  A    between atoms: C_28  and  C_29
REMARK                            x       y       z     vdW  Elec       q    Type
REMARK                         _______ _______ _______ _____ _____    ______ ____
ROOT
ATOM      1  C   UNL     1       0.480   1.926  -0.167  0.00  0.00    +0.013 C 
ATOM      2  C   UNL     1       0.480   0.407   0.018  0.00  0.00    +0.037 C 
ATOM      3  C   UNL     1       0.810  -0.257  -1.295  0.00  0.00    +0.041 A 
ATOM      4  C   UNL     1       1.629  -1.369  -1.365  0.00  0.00    +0.142 A 
ATOM      5  C   UNL     1       1.898  -1.956  -2.597  0.00  0.00    +0.093 A 
ATOM      6  C   UNL     1       1.354  -1.428  -3.756  0.00  0.00    +0.139 A 
ATOM      7  C   UNL     1       0.538  -0.309  -3.688  0.00  0.00    +0.093 A 
ATOM      8  C   UNL     1       0.267   0.274  -2.461  0.00  0.00    +0.142 A 
ATOM      9  O   UNL     1       2.200  -1.911  -0.255  0.00  0.00    -0.425 OA
ATOM     10  C   UNL     1       1.775  -1.467   0.944  0.00  0.00    +0.317 C 
ATOM     11  O   UNL     1       1.603  -2.220   1.874  0.00  0.00    -0.250 OA
ATOM     12  C   UNL     1       1.524   0.022   1.071  0.00  0.00    +0.114 C 
ENDROOT
BRANCH   8  13
ATOM     13  O   UNL     1      -0.534   1.370  -2.395  0.00  0.00    -0.425 OA
BRANCH  13  14
ATOM     14  C   UNL     1      -1.846   1.180  -2.183  0.00  0.00    +0.309 C 
ATOM     15  O   UNL     1      -2.295   0.060  -2.141  0.00  0.00    -0.251 OA
ATOM     16  C   UNL     1      -2.759   2.365  -1.998  0.00  0.00    +0.136 C 
ENDBRANCH  13  14
ENDBRANCH   8  13
BRANCH   6  17
ATOM     17  O   UNL     1       1.620  -2.004  -4.958  0.00  0.00    -0.426 OA
BRANCH  17  18
ATOM     18  C   UNL     1       0.987  -3.149  -5.262  0.00  0.00    +0.309 C 
ATOM     19  O   UNL     1       0.146  -3.591  -4.515  0.00  0.00    -0.251 OA
ATOM     20  C   UNL     1       1.326  -3.883  -6.534  0.00  0.00    +0.136 C 
ENDBRANCH  17  18
ENDBRANCH   6  17
BRANCH  12  21
ATOM     21  C   UNL     1       2.822   0.792   0.820  0.00  0.00    +0.111 C 
BRANCH  21  22
ATOM     22  C   UNL     1       3.801   0.501   1.929  0.00  0.00    +0.214 C 
ATOM     23  O   UNL     1       3.490  -0.248   2.830  0.00  0.00    -0.276 OA
ATOM     24  N   UNL     1       5.021   1.073   1.918  0.00  0.00    -0.315 N 
ATOM     25  H   UNL     1       5.269   1.672   1.197  0.00  0.00    +0.149 HD
BRANCH  24  26
ATOM     26  C   UNL     1       5.972   0.791   2.996  0.00  0.00    +0.108 C 
BRANCH  26  27
ATOM     27  C   UNL     1       7.270   1.560   2.745  0.00  0.00    +0.052 C 
BRANCH  27  28
ATOM     28  C   UNL     1       8.249   1.270   3.854  0.00  0.00    -0.040 C 
ATOM     29  C   UNL     1       9.230   0.338   3.849  0.00  0.00    +0.000 A 
ATOM     30  C   UNL     1       9.662  -0.645   2.849  0.00  0.00    +0.030 A 
ATOM     31  C   UNL     1      10.701  -1.463   3.139  0.00  0.00    +0.042 A 
ATOM     32  C   UNL     1      11.372  -1.394   4.370  0.00  0.00    +0.022 A 
ATOM     33  C   UNL     1      11.032  -0.517   5.337  0.00  0.00    +0.027 A 
ATOM     34  C   UNL     1       9.955   0.391   5.139  0.00  0.00    +0.043 A 
ATOM     35  N   UNL     1       9.442   1.318   5.911  0.00  0.00    -0.380 N 
ATOM     36  C   UNL     1       8.336   1.964   5.194  0.00  0.00    +0.144 C 
ATOM     37 CL   UNL     1      11.216  -2.627   1.959  0.00  0.00    -0.084 Cl
ATOM     38  H   UNL     1       9.745   1.542   6.804  0.00  0.00    +0.160 HD
ENDBRANCH  27  28
ENDBRANCH  26  27
ENDBRANCH  24  26
ENDBRANCH  21  22
ENDBRANCH  12  21
TORSDOF 9
