REMARK  Name = ZINC16886855
REMARK  11 active torsions:
REMARK  status: ('A' for Active; 'I' for Inactive)
REMARK    1  A    between atoms: C_1  and  C_2
REMARK    2  A    between atoms: C_2  and  O_3
REMARK    3  A    between atoms: O_3  and  C_4
REMARK    4  A    between atoms: C_4  and  C_6
REMARK    5  A    between atoms: C_9  and  N_12
REMARK    6  A    between atoms: C_13  and  C_15
REMARK    7  A    between atoms: C_15  and  N_25
REMARK    8  A    between atoms: C_16  and  C_17
REMARK    9  A    between atoms: C_20  and  O_23
REMARK   10  A    between atoms: O_23  and  C_24
REMARK   11  A    between atoms: C_26  and  C_28
REMARK                            x       y       z     vdW  Elec       q    Type
REMARK                         _______ _______ _______ _____ _____    ______ ____
ROOT
ATOM      1  C   UNL     1      -6.169   5.954   0.418  0.00  0.00    +0.097 C 
ATOM      2  C   UNL     1      -6.077   7.267   0.101  0.00  0.00    +0.036 C 
ENDROOT
BRANCH   2   3
ATOM      3  C   UNL     1      -7.288   8.098   0.049  0.00  0.00    -0.023 A 
ATOM      4  C   UNL     1      -8.515   7.529  -0.311  0.00  0.00    +0.011 A 
ATOM      5  C   UNL     1      -9.648   8.311  -0.353  0.00  0.00    +0.046 A 
ATOM      6  C   UNL     1      -9.572   9.665  -0.048  0.00  0.00    +0.120 A 
ATOM      7  C   UNL     1      -8.355  10.236   0.305  0.00  0.00    +0.046 A 
ATOM      8  C   UNL     1      -7.217   9.462   0.355  0.00  0.00    +0.011 A 
BRANCH   6   9
ATOM      9  O   UNL     1     -10.691  10.433  -0.097  0.00  0.00    -0.495 OA
ATOM     10  C   UNL     1     -11.908   9.783  -0.468  0.00  0.00    +0.277 C 
ENDBRANCH   6   9
ENDBRANCH   2   3
BRANCH   1  12
ATOM     11  N   UNL     1      -5.046   3.813   0.745  0.00  0.00    -0.280 N 
ATOM     12  C   UNL     1      -4.990   5.086   0.305  0.00  0.00    +0.262 C 
ATOM     13  O   UNL     1      -3.963   5.516  -0.186  0.00  0.00    -0.268 OA
ATOM     14  H   UNL     1      -5.886   3.445   1.059  0.00  0.00    +0.155 HD
BRANCH  11  18
ATOM     15  C   UNL     1      -1.608   1.464   0.756  0.00  0.00    +0.059 A 
ATOM     16  C   UNL     1      -1.750   2.493  -0.179  0.00  0.00    +0.017 A 
ATOM     17  C   UNL     1      -2.890   3.264  -0.184  0.00  0.00    +0.024 A 
ATOM     18  C   UNL     1      -3.896   3.027   0.749  0.00  0.00    +0.034 A 
ATOM     19  C   UNL     1      -3.756   2.007   1.685  0.00  0.00    +0.024 A 
ATOM     20  C   UNL     1      -2.621   1.228   1.691  0.00  0.00    +0.017 A 
BRANCH  15  21
ATOM     21  C   UNL     1      -0.391   0.631   0.760  0.00  0.00    +0.339 C 
ATOM     22  O   UNL     1      -0.267  -0.260   1.576  0.00  0.00    -0.245 OA
BRANCH  21  23
ATOM     23  O   UNL     1       0.582   0.856  -0.145  0.00  0.00    -0.461 OA
BRANCH  23  25
ATOM     24  C   UNL     1       2.736   0.397  -1.183  0.00  0.00    +0.048 C 
ATOM     25  C   UNL     1       1.749  -0.006  -0.087  0.00  0.00    +0.229 C 
ENDBRANCH  23  25
ENDBRANCH  21  23
ENDBRANCH  15  21
ENDBRANCH  11  18
ENDBRANCH   1  12
BRANCH   1  26
ATOM     26  N   UNL     1      -7.388   5.424   0.855  0.00  0.00    -0.277 N 
ATOM     27  C   UNL     1      -8.047   4.531   0.089  0.00  0.00    +0.250 C 
ATOM     28  O   UNL     1      -7.589   4.197  -0.986  0.00  0.00    -0.270 OA
ATOM     29  H   UNL     1      -7.759   5.699   1.708  0.00  0.00    +0.155 HD
BRANCH  27  30
ATOM     30  C   UNL     1      -9.326   3.960   0.557  0.00  0.00    +0.055 A 
ATOM     31  C   UNL     1      -9.855   4.341   1.792  0.00  0.00    +0.016 A 
ATOM     32  C   UNL     1     -11.049   3.805   2.223  0.00  0.00    +0.021 A 
ATOM     33  C   UNL     1     -11.726   2.888   1.435  0.00  0.00    +0.042 A 
ATOM     34  C   UNL     1     -11.208   2.504   0.210  0.00  0.00    +0.040 A 
ATOM     35  C   UNL     1     -10.015   3.038  -0.236  0.00  0.00    +0.054 A 
ATOM     36 CL   UNL     1      -9.370   2.562  -1.776  0.00  0.00    -0.083 Cl
ATOM     37 CL   UNL     1     -13.229   2.217   1.985  0.00  0.00    -0.083 Cl
ENDBRANCH  27  30
ENDBRANCH   1  26
TORSDOF 9
