REMARK  Name = ZINC04277891
REMARK  7 active torsions:
REMARK  status: ('A' for Active; 'I' for Inactive)
REMARK    1  A    between atoms: C_4  and  C_7
REMARK    2  A    between atoms: C_7  and  C_8
REMARK    3  A    between atoms: C_8  and  C_10
REMARK    4  A    between atoms: C_8  and  N_13
REMARK    5  A    between atoms: C_14  and  C_16
REMARK    6  A    between atoms: C_23  and  C_25
REMARK    7  A    between atoms: C_31  and  C_33
REMARK                            x       y       z     vdW  Elec       q    Type
REMARK                         _______ _______ _______ _____ _____    ______ ____
ROOT
ATOM      1  C   UNL     1       0.566   1.945   5.703  0.00  0.00    +0.179 C 
ATOM      2  C   UNL     1       0.015   0.619   5.166  0.00  0.00    +0.139 C 
ATOM      3  N   UNL     1      -0.883   0.905   4.039  0.00  0.00    -0.298 N 
ATOM      4  C   UNL     1      -2.002   1.836   4.243  0.00  0.00    +0.127 C 
ATOM      5  C   UNL     1      -1.454   3.158   4.782  0.00  0.00    +0.127 C 
ATOM      6  N   UNL     1      -0.556   2.871   5.909  0.00  0.00    -0.287 N 
ATOM      7  C   UNL     1      -0.758   3.448   7.111  0.00  0.00    +0.219 C 
ATOM      8  O   UNL     1      -0.044   3.163   8.048  0.00  0.00    -0.275 OA
ATOM      9  C   UNL     1      -0.681   0.330   2.837  0.00  0.00    +0.219 C 
ATOM     10  O   UNL     1       0.190  -0.504   2.703  0.00  0.00    -0.275 OA
ENDROOT
BRANCH   9  11
ATOM     11  C   UNL     1      -1.536   0.722   1.660  0.00  0.00    +0.072 C 
ATOM     12  C   UNL     1      -0.963   1.984   1.009  0.00  0.00    -0.007 C 
ATOM     13  C   UNL     1      -1.800   2.344  -0.221  0.00  0.00    -0.082 C 
ATOM     14  C   UNL     1      -2.364   0.016  -0.589  0.00  0.00    -0.082 C 
ATOM     15  C   UNL     1      -1.544  -0.413   0.631  0.00  0.00    -0.007 C 
ATOM     16  N   UNL     1      -1.771   1.228  -1.185  0.00  0.00    +0.379 N 
ATOM     17  H   UNL     1      -0.797   1.033  -1.449  0.00  0.00    -0.086 HD
ATOM     18  H   UNL     1      -2.306   1.490  -2.022  0.00  0.00    -0.086 HD
ENDBRANCH   9  11
BRANCH   7  19
ATOM     19  C   UNL     1      -1.873   4.447   7.289  0.00  0.00    +0.075 C 
ATOM     20  C   UNL     1      -1.565   5.704   6.473  0.00  0.00    +0.013 C 
ATOM     21  C   UNL     1      -2.697   6.719   6.655  0.00  0.00    +0.001 C 
ATOM     22  C   UNL     1      -2.818   7.088   8.135  0.00  0.00    +0.000 C 
ATOM     23  C   UNL     1      -3.125   5.830   8.950  0.00  0.00    +0.001 C 
ATOM     24  C   UNL     1      -1.994   4.816   8.769  0.00  0.00    +0.013 C 
ENDBRANCH   7  19
BRANCH   1  26
ATOM     25  N   UNL     1       2.539   2.132   7.183  0.00  0.00    -0.302 N 
ATOM     26  C   UNL     1       1.272   1.707   7.013  0.00  0.00    +0.236 C 
ATOM     27  O   UNL     1       0.699   1.132   7.914  0.00  0.00    -0.274 OA
ATOM     28  H   UNL     1       2.997   2.592   6.462  0.00  0.00    +0.150 HD
BRANCH  25  29
ATOM     29  C   UNL     1       3.225   1.900   8.457  0.00  0.00    +0.159 C 
BRANCH  29  30
ATOM     30  C   UNL     1       2.878   3.003   9.422  0.00  0.00    +0.231 C 
ATOM     31  O   UNL     1       2.132   3.896   9.081  0.00  0.00    -0.274 OA
ATOM     32  N   UNL     1       3.398   2.999  10.666  0.00  0.00    -0.328 N 
ATOM     33  H   UNL     1       3.995   2.285  10.939  0.00  0.00    +0.145 HD
ATOM     34  H   UNL     1       3.175   3.709  11.288  0.00  0.00    +0.145 HD
ENDBRANCH  29  30
BRANCH  29  35
ATOM     35  C   UNL     1       4.738   1.881   8.225  0.00  0.00    +0.035 C 
BRANCH  35  39
ATOM     36  C   UNL     1       6.652  -1.758   6.876  0.00  0.00    +0.000 C 
ATOM     37  C   UNL     1       6.963  -0.459   6.129  0.00  0.00    +0.000 C 
ATOM     38  C   UNL     1       6.596   0.737   7.010  0.00  0.00    +0.003 C 
ATOM     39  C   UNL     1       5.104   0.685   7.344  0.00  0.00    -0.009 C 
ATOM     40  C   UNL     1       4.793  -0.613   8.091  0.00  0.00    +0.003 C 
ATOM     41  C   UNL     1       5.160  -1.809   7.210  0.00  0.00    +0.000 C 
ENDBRANCH  35  39
ENDBRANCH  29  35
ENDBRANCH  25  29
ENDBRANCH   1  26
TORSDOF 7
