REMARK  Name = ZINC62192706
REMARK  6 active torsions:
REMARK  status: ('A' for Active; 'I' for Inactive)
REMARK    1  A    between atoms: C_1  and  C_2
REMARK    2  A    between atoms: C_7  and  O_8
REMARK    3  A    between atoms: O_8  and  C_9
REMARK    4  A    between atoms: C_14  and  N_15
REMARK    5  A    between atoms: N_15  and  S_16
REMARK    6  A    between atoms: S_16  and  C_19
REMARK                            x       y       z     vdW  Elec       q    Type
REMARK                         _______ _______ _______ _____ _____    ______ ____
ROOT
ATOM      1  N   UNL     1      -0.071   1.084   4.921  0.00  0.00    -0.094 NA
ENDROOT
BRANCH   1   7
ATOM      2  C   UNL     1       0.054  -0.848   3.469  0.00  0.00    +0.153 A 
ATOM      3  C   UNL     1       0.136  -2.221   3.307  0.00  0.00    +0.048 A 
ATOM      4  C   UNL     1       0.165  -3.048   4.415  0.00  0.00    +0.004 A 
ATOM      5  C   UNL     1       0.113  -2.508   5.687  0.00  0.00    +0.002 A 
ATOM      6  C   UNL     1       0.031  -1.139   5.857  0.00  0.00    +0.030 A 
ATOM      7  C   UNL     1       0.007  -0.303   4.751  0.00  0.00    +0.116 A 
BRANCH   2   8
ATOM      8  O   UNL     1       0.025  -0.034   2.381  0.00  0.00    -0.454 OA
BRANCH   8  15
ATOM      9  C   UNL     1      -0.086   1.825   0.256  0.00  0.00    +0.047 C 
ATOM     10  C   UNL     1       1.209   1.407   0.904  0.00  0.00    -0.008 A 
ATOM     11  C   UNL     1       2.405   1.942   0.466  0.00  0.00    +0.007 A 
ATOM     12  C   UNL     1       3.593   1.560   1.060  0.00  0.00    +0.000 A 
ATOM     13  C   UNL     1       3.588   0.641   2.093  0.00  0.00    +0.004 A 
ATOM     14  C   UNL     1       2.395   0.103   2.535  0.00  0.00    +0.046 A 
ATOM     15  C   UNL     1       1.200   0.490   1.944  0.00  0.00    +0.131 A 
ENDBRANCH   8  15
ENDBRANCH   2   8
ENDBRANCH   1   7
BRANCH   1  16
ATOM     16  S   UNL     1      -0.126   1.729   6.445  0.00  0.00    +0.092 S 
ATOM     17  O   UNL     1      -1.359   1.314   7.017  0.00  0.00    -0.148 OA
ATOM     18  O   UNL     1       1.128   1.449   7.051  0.00  0.00    -0.148 OA
BRANCH  16  19
ATOM     19  C   UNL     1      -0.219   3.480   6.266  0.00  0.00    +0.112 A 
ATOM     20  C   UNL     1       0.944   4.229   6.207  0.00  0.00    +0.031 A 
ATOM     21  C   UNL     1       0.882   5.602   6.067  0.00  0.00    +0.030 A 
ATOM     22  C   UNL     1      -0.351   6.232   5.986  0.00  0.00    +0.067 A 
ATOM     23  C   UNL     1      -1.523   5.476   6.045  0.00  0.00    +0.069 A 
ATOM     24  C   UNL     1      -1.451   4.098   6.180  0.00  0.00    +0.056 A 
ATOM     25  N   UNL     1      -2.585   6.372   5.939  0.00  0.00    -0.306 N 
ATOM     26  H   UNL     1      -3.527   6.139   5.949  0.00  0.00    +0.170 HD
ATOM     27  C   UNL     1      -2.081   7.614   5.820  0.00  0.00    +0.325 A 
ATOM     28  O   UNL     1      -2.742   8.630   5.707  0.00  0.00    -0.247 OA
ATOM     29  N   UNL     1      -0.736   7.563   5.845  0.00  0.00    -0.306 N 
ATOM     30  H   UNL     1      -0.138   8.323   5.776  0.00  0.00    +0.170 HD
ENDBRANCH  16  19
ENDBRANCH   1  16
TORSDOF 5
