REMARK  Name = ZINC63985274
REMARK  9 active torsions:
REMARK  status: ('A' for Active; 'I' for Inactive)
REMARK    1  A    between atoms: C_1  and  C_2
REMARK    2  A    between atoms: C_4  and  C_37
REMARK    3  A    between atoms: C_5  and  N_9
REMARK    4  A    between atoms: C_6  and  C_8
REMARK    5  A    between atoms: C_10  and  O_36
REMARK    6  A    between atoms: C_13  and  O_35
REMARK    7  A    between atoms: C_14  and  C_18
REMARK    8  A    between atoms: C_25  and  O_30
REMARK    9  A    between atoms: O_30  and  C_31
REMARK                            x       y       z     vdW  Elec       q    Type
REMARK                         _______ _______ _______ _____ _____    ______ ____
ROOT
ATOM      1  N   UNL     1       0.059  -4.170  -0.021  0.00  0.00    -0.225 N 
ATOM      2  C   UNL     1      -1.209  -4.885  -0.024  0.00  0.00    +0.338 C 
ATOM      3  N   UNL     1      -1.065  -6.252  -0.500  0.00  0.00    -0.204 NA
ATOM      4  C   UNL     1       0.039  -6.891  -0.521  0.00  0.00    +0.200 C 
ATOM      5  C   UNL     1       1.335  -6.296  -0.054  0.00  0.00    +0.179 C 
ATOM      6  C   UNL     1       1.242  -4.797  -0.031  0.00  0.00    +0.237 C 
ATOM      7  O   UNL     1       2.261  -4.140  -0.015  0.00  0.00    -0.274 OA
ENDROOT
BRANCH   5   8
ATOM      8  C   UNL     1       1.649  -6.808   1.353  0.00  0.00    +0.101 C 
ATOM      9  C   UNL     1       1.876  -8.320   1.313  0.00  0.00    +0.124 C 
ATOM     10  C   UNL     1       2.011  -8.769   2.764  0.00  0.00    -0.036 C 
ATOM     11  C   UNL     1       3.157  -9.430   2.848  0.00  0.00    +0.003 A 
ATOM     12  C   UNL     1       3.791 -10.166   3.952  0.00  0.00    +0.055 A 
ATOM     13  C   UNL     1       5.004 -10.728   3.695  0.00  0.00    +0.121 A 
ATOM     14  C   UNL     1       5.662 -10.641   2.460  0.00  0.00    +0.047 A 
ATOM     15  C   UNL     1       5.167  -9.993   1.375  0.00  0.00    +0.029 A 
ATOM     16  C   UNL     1       3.856  -9.349   1.527  0.00  0.00    +0.043 A 
ATOM     17  N   UNL     1       3.129  -8.684   0.652  0.00  0.00    -0.376 N 
ATOM     18  C   UNL     1       1.001  -8.371   3.813  0.00  0.00    +0.048 C 
ATOM     19  C   UNL     1       0.786  -6.855   3.649  0.00  0.00    +0.085 C 
ATOM     20  N   UNL     1       0.512  -6.533   2.245  0.00  0.00    -0.310 NA
ATOM     21  H   UNL     1       0.197  -5.579   2.148  0.00  0.00    +0.122 HD
ATOM     22  H   UNL     1       3.373  -8.467  -0.261  0.00  0.00    +0.160 HD
BRANCH  13  23
ATOM     23  O   UNL     1       5.615 -11.414   4.697  0.00  0.00    -0.495 OA
ATOM     24  C   UNL     1       6.887 -11.995   4.404  0.00  0.00    +0.277 C 
ENDBRANCH  13  23
ENDBRANCH   5   8
BRANCH   1  29
ATOM     25  C   UNL     1      -0.018   1.503   0.010  0.00  0.00    +0.044 C 
ATOM     26  C   UNL     1       0.002  -0.004   0.002  0.00  0.00    -0.050 A 
ATOM     27  C   UNL     1       0.006  -0.687  -1.200  0.00  0.00    +0.008 A 
ATOM     28  C   UNL     1       0.025  -2.068  -1.211  0.00  0.00    -0.028 A 
ATOM     29  C   UNL     1       0.040  -2.771  -0.013  0.00  0.00    +0.046 A 
ATOM     30  C   UNL     1       0.037  -2.081   1.192  0.00  0.00    -0.028 A 
ATOM     31  C   UNL     1       0.023  -0.700   1.197  0.00  0.00    +0.008 A 
ATOM     32  C   UNL     1       0.053  -2.840   2.495  0.00  0.00    +0.046 C 
ATOM     33  C   UNL     1       0.028  -2.812  -2.522  0.00  0.00    +0.046 C 
ENDBRANCH   1  29
BRANCH   4  34
ATOM     34  O   UNL     1       0.041  -8.159  -0.984  0.00  0.00    -0.495 OA
ATOM     35  H   UNL     1      -0.828  -8.476  -1.266  0.00  0.00    +0.293 HD
ENDBRANCH   4  34
BRANCH   2  36
ATOM     36  O   UNL     1      -2.130  -4.195  -0.872  0.00  0.00    -0.356 OA
ATOM     37  H   UNL     1      -3.001  -4.611  -0.927  0.00  0.00    +0.214 HD
ENDBRANCH   2  36
TORSDOF 5
