REMARK  Name = ZINC06658694
REMARK  8 active torsions:
REMARK  status: ('A' for Active; 'I' for Inactive)
REMARK    1  A    between atoms: C_1  and  C_2
REMARK    2  A    between atoms: C_2  and  C_30
REMARK    3  A    between atoms: C_4  and  N_10
REMARK    4  A    between atoms: C_6  and  C_8
REMARK    5  A    between atoms: C_6  and  C_9
REMARK    6  A    between atoms: C_11  and  C_13
REMARK    7  A    between atoms: C_13  and  O_14
REMARK    8  A    between atoms: O_14  and  C_15
REMARK                            x       y       z     vdW  Elec       q    Type
REMARK                         _______ _______ _______ _____ _____    ______ ____
ROOT
ATOM      1  C   UNL     1       4.312  -0.866  -4.426  0.00  0.00    +0.324 C 
ENDROOT
BRANCH   1   3
ATOM      2  N   UNL     1       2.615  -0.819  -2.626  0.00  0.00    -0.310 N 
ATOM      3  C   UNL     1       3.770  -0.334  -3.123  0.00  0.00    +0.251 C 
ATOM      4  O   UNL     1       4.374   0.530  -2.523  0.00  0.00    -0.272 OA
ATOM      5  H   UNL     1       2.133  -1.510  -3.106  0.00  0.00    +0.149 HD
BRANCH   2   9
ATOM      6  C   UNL     1      -0.019   1.528   0.010  0.00  0.00    -0.010 C 
ATOM      7  C   UNL     1       0.002  -0.004   0.002  0.00  0.00    -0.072 C 
ATOM      8  C   UNL     1       0.573  -0.505  -1.321  0.00  0.00    +0.009 C 
ATOM      9  C   UNL     1       2.088  -0.301  -1.357  0.00  0.00    +0.070 C 
ATOM     10  C   UNL     1       2.703  -1.086  -0.198  0.00  0.00    +0.009 C 
ATOM     11  C   UNL     1       2.147  -0.590   1.133  0.00  0.00    -0.072 C 
ATOM     12  N   UNL     1       0.697  -0.529   1.164  0.00  0.00    +0.386 N 
ATOM     13  C   UNL     1       2.769   0.766   1.481  0.00  0.00    -0.010 C 
ATOM     14  C   UNL     1       2.600  -1.589   2.223  0.00  0.00    -0.010 C 
ATOM     15  C   UNL     1      -1.468  -0.478   0.079  0.00  0.00    -0.010 C 
ATOM     16  H   UNL     1       0.416   0.021   1.982  0.00  0.00    -0.084 HD
ATOM     17  H   UNL     1       0.341  -1.472   1.351  0.00  0.00    -0.084 HD
ENDBRANCH   2   9
ENDBRANCH   1   3
BRANCH   1  18
ATOM     18  O   UNL     1       5.537  -0.200  -4.740  0.00  0.00    -0.483 OA
BRANCH  18  19
ATOM     19  C   UNL     1       6.159  -0.564  -5.889  0.00  0.00    +0.125 A 
ATOM     20  C   UNL     1       5.591  -1.544  -6.702  0.00  0.00    +0.046 A 
ATOM     21  C   UNL     1       6.205  -1.923  -7.861  0.00  0.00    +0.015 A 
ATOM     22  C   UNL     1       7.413  -1.322  -8.235  0.00  0.00    +0.021 A 
ATOM     23  C   UNL     1       7.989  -0.332  -7.420  0.00  0.00    +0.143 A 
ATOM     24  C   UNL     1       7.350   0.045  -6.249  0.00  0.00    +0.092 A 
ATOM     25  O   UNL     1       9.154   0.241  -7.790  0.00  0.00    -0.422 OA
ATOM     26  C   UNL     1       9.772  -0.106  -8.927  0.00  0.00    +0.341 A 
ATOM     27  O   UNL     1      10.816   0.446  -9.223  0.00  0.00    -0.245 OA
ATOM     28  C   UNL     1       9.250  -1.097  -9.796  0.00  0.00    +0.041 A 
ATOM     29  C   UNL     1       8.092  -1.715  -9.476  0.00  0.00    -0.027 A 
ATOM     30  C   UNL     1       7.473  -2.790 -10.325  0.00  0.00    +0.036 C 
ATOM     31  C   UNL     1       8.055  -2.764 -11.737  0.00  0.00    +0.005 C 
ATOM     32  C   UNL     1       9.584  -2.756 -11.628  0.00  0.00    +0.005 C 
ATOM     33  C   UNL     1      10.018  -1.410 -11.052  0.00  0.00    +0.042 C 
ENDBRANCH  18  19
ENDBRANCH   1  18
TORSDOF 4
