REMARK  Name = ZINC08780170
REMARK  5 active torsions:
REMARK  status: ('A' for Active; 'I' for Inactive)
REMARK    1  A    between atoms: C_1  and  C_2
REMARK    2  A    between atoms: C_4  and  N_9
REMARK    3  A    between atoms: N_9  and  C_10
REMARK    4  A    between atoms: C_10  and  C_12
REMARK    5  A    between atoms: C_10  and  C_13
REMARK                            x       y       z     vdW  Elec       q    Type
REMARK                         _______ _______ _______ _____ _____    ______ ____
ROOT
ATOM      1  C   UNL     1       3.633   3.175  -0.017  0.00  0.00    +0.154 C 
ATOM      2  C   UNL     1       4.032   2.810   1.415  0.00  0.00    +0.038 C 
ENDROOT
BRANCH   1   3
ATOM      3  C   UNL     1       4.693   4.058  -0.623  0.00  0.00    +0.240 C 
ATOM      4  O   UNL     1       4.407   5.173  -1.004  0.00  0.00    -0.273 OA
ATOM      5  N   UNL     1       5.958   3.609  -0.742  0.00  0.00    -0.239 N 
ATOM      6  C   UNL     1       6.906   4.399  -1.284  0.00  0.00    +0.303 C 
ATOM      7  O   UNL     1       6.620   5.517  -1.666  0.00  0.00    -0.253 OA
ATOM      8  N   UNL     1       8.171   3.950  -1.403  0.00  0.00    -0.313 N 
ATOM      9  H   UNL     1       6.187   2.717  -0.437  0.00  0.00    +0.159 HD
ATOM     10  H   UNL     1       8.399   3.058  -1.098  0.00  0.00    +0.146 HD
ATOM     11  H   UNL     1       8.853   4.518  -1.793  0.00  0.00    +0.146 HD
ENDBRANCH   1   3
BRANCH   1  12
ATOM     12  N   UNL     1       2.354   3.888  -0.001  0.00  0.00    -0.333 N 
ATOM     13  H   UNL     1       2.339   4.858   0.005  0.00  0.00    +0.147 HD
BRANCH  12  17
ATOM     14  C   UNL     1      -2.561   3.865   0.046  0.00  0.00    +0.045 C 
ATOM     15  C   UNL     1      -1.243   3.134   0.030  0.00  0.00    -0.035 A 
ATOM     16  C   UNL     1      -0.059   3.845   0.022  0.00  0.00    +0.027 A 
ATOM     17  C   UNL     1       1.155   3.171   0.008  0.00  0.00    +0.028 A 
ATOM     18  C   UNL     1       1.174   1.782   0.000  0.00  0.00    +0.024 A 
ATOM     19  C   UNL     1      -0.013   1.076   0.008  0.00  0.00    +0.017 A 
ATOM     20  C   UNL     1      -1.221   1.751   0.017  0.00  0.00    +0.021 A 
ATOM     21 BR   UNL     1      -2.844   0.780   0.020  0.00  0.00    -0.050 Br
ENDBRANCH  12  17
ENDBRANCH   1  12
TORSDOF 3
