REMARK  Name = ZINC08307154
REMARK  10 active torsions:
REMARK  status: ('A' for Active; 'I' for Inactive)
REMARK    1  A    between atoms: C_1  and  C_2
REMARK    2  A    between atoms: C_2  and  C_4
REMARK    3  A    between atoms: C_2  and  N_19
REMARK    4  A    between atoms: N_6  and  C_7
REMARK    5  A    between atoms: C_7  and  C_8
REMARK    6  A    between atoms: C_8  and  C_9
REMARK    7  A    between atoms: C_12  and  S_15
REMARK    8  A    between atoms: S_15  and  N_18
REMARK    9  A    between atoms: C_22  and  C_25
REMARK   10  A    between atoms: C_25  and  C_26
REMARK                            x       y       z     vdW  Elec       q    Type
REMARK                         _______ _______ _______ _____ _____    ______ ____
ROOT
ATOM      1  C   UNL     1       0.792  -0.388  -1.223  0.00  0.00    +0.199 C 
ATOM      2  O   UNL     1       1.868  -0.935  -1.103  0.00  0.00    -0.278 OA
ATOM      3  N   UNL     1       0.303  -0.124  -2.450  0.00  0.00    -0.316 N 
ATOM      4  H   UNL     1      -0.558   0.314  -2.546  0.00  0.00    +0.149 HD
ENDROOT
BRANCH   1   6
ATOM      5  C   UNL     1       0.361   1.425   0.412  0.00  0.00    -0.004 C 
ATOM      6  C   UNL     1       0.002  -0.004   0.002  0.00  0.00    +0.016 C 
BRANCH   6   7
ATOM      7  N   UNL     1       0.324  -0.924   1.101  0.00  0.00    +0.387 N 
ATOM      8  C   UNL     1      -0.449  -0.551   2.292  0.00  0.00    -0.078 C 
ATOM      9  C   UNL     1      -0.058  -1.456   3.462  0.00  0.00    -0.015 C 
ATOM     10  C   UNL     1      -0.354  -2.913   3.096  0.00  0.00    -0.010 C 
ATOM     11  C   UNL     1       0.399  -3.268   1.810  0.00  0.00    -0.015 C 
ATOM     12  C   UNL     1      -0.009  -2.297   0.701  0.00  0.00    -0.078 C 
ATOM     13  H   UNL     1       1.309  -0.866   1.310  0.00  0.00    -0.081 HD
BRANCH  10  14
ATOM     14  C   UNL     1       0.108  -3.830   4.230  0.00  0.00    +0.038 C 
BRANCH  14  15
ATOM     15  C   UNL     1      -0.294  -5.249   3.923  0.00  0.00    -0.047 A 
ATOM     16  C   UNL     1      -1.522  -5.726   4.342  0.00  0.00    +0.003 A 
ATOM     17  C   UNL     1      -1.891  -7.028   4.061  0.00  0.00    +0.000 A 
ATOM     18  C   UNL     1      -1.032  -7.854   3.361  0.00  0.00    +0.000 A 
ATOM     19  C   UNL     1       0.196  -7.377   2.941  0.00  0.00    +0.000 A 
ATOM     20  C   UNL     1       0.563  -6.074   3.219  0.00  0.00    +0.003 A 
ENDBRANCH  14  15
ENDBRANCH  10  14
ENDBRANCH   6   7
ENDBRANCH   1   6
BRANCH   3  21
ATOM     21  C   UNL     1       1.071  -0.498  -3.641  0.00  0.00    +0.109 C 
BRANCH  21  22
ATOM     22  C   UNL     1       0.297  -0.089  -4.896  0.00  0.00    +0.054 C 
BRANCH  22  23
ATOM     23  C   UNL     1       1.087  -0.473  -6.120  0.00  0.00    -0.046 A 
ATOM     24  C   UNL     1       1.994   0.416  -6.665  0.00  0.00    +0.005 A 
ATOM     25  C   UNL     1       2.719   0.064  -7.788  0.00  0.00    +0.029 A 
ATOM     26  C   UNL     1       2.536  -1.178  -8.367  0.00  0.00    +0.105 A 
ATOM     27  C   UNL     1       1.629  -2.068  -7.822  0.00  0.00    +0.029 A 
ATOM     28  C   UNL     1       0.907  -1.717  -6.696  0.00  0.00    +0.005 A 
BRANCH  26  29
ATOM     29  S   UNL     1       3.458  -1.627  -9.799  0.00  0.00    +0.056 S 
ATOM     30  O   UNL     1       2.708  -2.631 -10.467  0.00  0.00    -0.153 OA
ATOM     31  O   UNL     1       3.841  -0.413 -10.432  0.00  0.00    -0.153 OA
BRANCH  29  32
ATOM     32  N   UNL     1       4.854  -2.349  -9.276  0.00  0.00    -0.204 NA
ATOM     33  H   UNL     1       5.281  -3.030  -9.819  0.00  0.00    +0.144 HD
ATOM     34  H   UNL     1       5.245  -2.090  -8.427  0.00  0.00    +0.144 HD
ENDBRANCH  29  32
ENDBRANCH  26  29
ENDBRANCH  22  23
ENDBRANCH  21  22
ENDBRANCH   3  21
TORSDOF 9
