REMARK  Name = ZINC06780227
REMARK  13 active torsions:
REMARK  status: ('A' for Active; 'I' for Inactive)
REMARK    1  A    between atoms: C_1  and  C_2
REMARK    2  A    between atoms: C_2  and  C_3
REMARK    3  A    between atoms: C_3  and  C_5
REMARK    4  A    between atoms: C_3  and  N_6
REMARK    5  A    between atoms: C_13  and  O_14
REMARK    6  A    between atoms: C_15  and  N_61
REMARK    7  A    between atoms: C_21  and  O_29
REMARK    8  A    between atoms: C_22  and  O_27
REMARK    9  A    between atoms: C_23  and  O_25
REMARK   10  A    between atoms: O_25  and  C_26
REMARK   11  A    between atoms: O_27  and  C_28
REMARK   12  A    between atoms: O_29  and  C_30
REMARK   13  A    between atoms: C_31  and  N_61
REMARK                            x       y       z     vdW  Elec       q    Type
REMARK                         _______ _______ _______ _____ _____    ______ ____
ROOT
ATOM      1  N   UNL     1      -3.694  -5.113  -0.103  0.00  0.00    -0.277 NA
ATOM      2  C   UNL     1      -3.208  -3.881  -0.070  0.00  0.00    +0.100 A 
ATOM      3  C   UNL     1      -2.977  -3.240  -1.286  0.00  0.00    +0.031 A 
ATOM      4  C   UNL     1      -2.481  -2.042  -1.503  0.00  0.00    +0.011 A 
ATOM      5  C   UNL     1      -2.032  -1.026  -0.671  0.00  0.00    -0.012 A 
ATOM      6  C   UNL     1      -2.055  -1.029   0.708  0.00  0.00    -0.050 A 
ATOM      7  C   UNL     1      -2.469  -2.077   1.495  0.00  0.00    +0.050 A 
ATOM      8  C   UNL     1      -2.952  -3.292   1.223  0.00  0.00    +0.142 A 
ATOM      9  C   UNL     1      -1.624   0.227   1.438  0.00  0.00    -0.040 C 
ATOM     10  C   UNL     1      -0.116   0.350   1.510  0.00  0.00    -0.007 C 
ATOM     11  C   UNL     1       0.525   0.031   0.162  0.00  0.00    +0.035 C 
ATOM     12  C   UNL     1      -0.253   0.710  -0.936  0.00  0.00    -0.033 A 
ATOM     13  C   UNL     1      -1.476   0.187  -1.342  0.00  0.00    +0.031 A 
ATOM     14  C   UNL     1      -2.199   0.800  -2.369  0.00  0.00    +0.173 A 
ATOM     15  C   UNL     1      -1.688   1.941  -2.976  0.00  0.00    +0.204 A 
ATOM     16  C   UNL     1      -0.468   2.461  -2.559  0.00  0.00    +0.165 A 
ATOM     17  C   UNL     1       0.247   1.844  -1.541  0.00  0.00    +0.054 A 
ENDROOT
BRANCH   9  19
ATOM     18  C   UNL     1      -2.283   1.553   3.354  0.00  0.00    -0.100 C 
ATOM     19  N   UNL     1      -2.169   0.187   2.809  0.00  0.00    +0.382 N 
ATOM     20  H   UNL     1      -1.542  -0.365   3.406  0.00  0.00    -0.085 HD
ATOM     21  H   UNL     1      -3.098  -0.250   2.791  0.00  0.00    -0.085 HD
ENDBRANCH   9  19
BRANCH   1  22
ATOM     22  C   UNL     1      -4.412  -5.649   1.056  0.00  0.00    +0.103 C 
ATOM     23  C   UNL     1      -3.510  -6.633   1.804  0.00  0.00    +0.032 C 
BRANCH  22  25
ATOM     24  C   UNL     1      -6.632  -5.363  -0.052  0.00  0.00    +0.006 C 
ATOM     25  C   UNL     1      -5.675  -6.372   0.585  0.00  0.00    +0.023 C 
ENDBRANCH  22  25
ENDBRANCH   1  22
BRANCH   8  26
ATOM     26  O   UNL     1      -3.237  -4.070   2.296  0.00  0.00    -0.505 OA
ATOM     27  H   UNL     1      -2.472  -4.540   2.656  0.00  0.00    +0.292 HD
ENDBRANCH   8  26
BRANCH  16  28
ATOM     28  O   UNL     1       0.027   3.580  -3.152  0.00  0.00    -0.491 OA
ATOM     29  C   UNL     1       1.285   4.063  -2.676  0.00  0.00    +0.277 C 
ENDBRANCH  16  28
BRANCH  15  30
ATOM     30  O   UNL     1      -2.382   2.548  -3.977  0.00  0.00    -0.488 OA
ATOM     31  C   UNL     1      -2.038   2.188  -5.316  0.00  0.00    +0.277 C 
ENDBRANCH  15  30
BRANCH  14  32
ATOM     32  O   UNL     1      -3.390   0.285  -2.771  0.00  0.00    -0.491 OA
ATOM     33  C   UNL     1      -4.569   0.842  -2.185  0.00  0.00    +0.277 C 
ENDBRANCH  14  32
TORSDOF 7
