REMARK  Name = ZINC54396356
REMARK  4 active torsions:
REMARK  status: ('A' for Active; 'I' for Inactive)
REMARK    1  A    between atoms: C_6  and  S_7
REMARK    2  A    between atoms: S_7  and  C_8
REMARK    3  A    between atoms: C_9  and  C_14
REMARK    4  A    between atoms: N_15  and  O_16
REMARK                            x       y       z     vdW  Elec       q    Type
REMARK                         _______ _______ _______ _____ _____    ______ ____
ROOT
ATOM      1  C   UNL     1      -1.969  -0.990  -1.688  0.00  0.00    +0.130 A 
ATOM      2  C   UNL     1      -3.202  -1.554  -2.059  0.00  0.00    +0.138 A 
ATOM      3  N   UNL     1      -3.538  -1.611  -3.344  0.00  0.00    -0.248 NA
ATOM      4  C   UNL     1      -2.716  -1.139  -4.263  0.00  0.00    +0.131 A 
ATOM      5  C   UNL     1      -1.502  -0.583  -3.897  0.00  0.00    +0.132 A 
ATOM      6  N   UNL     1      -1.156  -0.515  -2.623  0.00  0.00    -0.245 NA
ENDROOT
BRANCH   2   7
ATOM      7  C   UNL     1      -4.119  -2.082  -1.027  0.00  0.00    +0.183 C 
ATOM      8  N   UNL     1      -5.073  -1.331  -0.559  0.00  0.00    -0.070 NA
ATOM      9  N   UNL     1      -3.962  -3.376  -0.557  0.00  0.00    -0.339 N 
ATOM     10  H   UNL     1      -3.251  -3.936  -0.906  0.00  0.00    +0.144 HD
ATOM     11  H   UNL     1      -4.564  -3.723   0.120  0.00  0.00    +0.144 HD
BRANCH   8  12
ATOM     12  O   UNL     1      -5.169   0.024  -0.959  0.00  0.00    -0.408 OA
ATOM     13  H   UNL     1      -5.861   0.520  -0.502  0.00  0.00    +0.328 HD
ENDBRANCH   8  12
ENDBRANCH   2   7
BRANCH   1  14
ATOM     14  S   UNL     1      -1.510  -0.908   0.011  0.00  0.00    -0.068 S 
BRANCH  14  20
ATOM     15  C   UNL     1      -0.010   1.381   0.006  0.00  0.00    +0.015 A 
ATOM     16  C   UNL     1       1.179   2.081  -0.002  0.00  0.00    +0.005 A 
ATOM     17  C   UNL     1       2.389   1.405  -0.017  0.00  0.00    -0.044 A 
ATOM     18  C   UNL     1       2.407   0.021  -0.024  0.00  0.00    -0.043 A 
ATOM     19  C   UNL     1       1.217  -0.684  -0.015  0.00  0.00    +0.019 A 
ATOM     20  C   UNL     1       0.005  -0.008  -0.000  0.00  0.00    +0.014 A 
ATOM     21  C   UNL     1       3.838  -0.471  -0.041  0.00  0.00    +0.036 C 
ATOM     22  C   UNL     1       4.678   0.745  -0.484  0.00  0.00    +0.009 C 
ATOM     23  C   UNL     1       3.807   1.934  -0.029  0.00  0.00    +0.036 C 
ENDBRANCH  14  20
ENDBRANCH   1  14
TORSDOF 4
