REMARK  Name = ZINC51119585
REMARK  7 active torsions:
REMARK  status: ('A' for Active; 'I' for Inactive)
REMARK    1  A    between atoms: C_1  and  C_2
REMARK    2  A    between atoms: C_5  and  C_8
REMARK    3  A    between atoms: C_8  and  C_10
REMARK    4  A    between atoms: C_8  and  N_11
REMARK    5  A    between atoms: C_12  and  C_14
REMARK    6  A    between atoms: C_17  and  N_20
REMARK    7  A    between atoms: N_20  and  N_21
REMARK                            x       y       z     vdW  Elec       q    Type
REMARK                         _______ _______ _______ _____ _____    ______ ____
ROOT
ATOM      1  N   UNL     1       0.959  -4.758   1.029  0.00  0.00    -0.305 N 
ATOM      2  C   UNL     1       1.534  -5.972   0.919  0.00  0.00    +0.245 C 
ATOM      3  O   UNL     1       1.306  -6.667  -0.053  0.00  0.00    -0.270 OA
ATOM      4  H   UNL     1       1.142  -4.204   1.804  0.00  0.00    +0.150 HD
ENDROOT
BRANCH   2   5
ATOM      5  C   UNL     1       2.440  -6.458   1.977  0.00  0.00    +0.037 A 
ATOM      6  C   UNL     1       2.699  -5.663   3.097  0.00  0.00    +0.015 A 
ATOM      7  C   UNL     1       3.545  -6.119   4.082  0.00  0.00    +0.025 A 
ATOM      8  C   UNL     1       4.142  -7.371   3.964  0.00  0.00    +0.041 A 
ATOM      9  C   UNL     1       3.887  -8.165   2.849  0.00  0.00    +0.025 A 
ATOM     10  C   UNL     1       3.037  -7.717   1.864  0.00  0.00    +0.015 A 
BRANCH   8  11
ATOM     11  N   UNL     1       4.996  -7.829   4.961  0.00  0.00    -0.283 N 
ATOM     12  H   UNL     1       5.175  -7.276   5.738  0.00  0.00    +0.166 HD
BRANCH  11  13
ATOM     13  N   UNL     1       5.583  -9.057   4.846  0.00  0.00    -0.257 NA
ATOM     14  H   UNL     1       6.103  -9.131   3.985  0.00  0.00    +0.140 HD
ATOM     15  H   UNL     1       6.173  -9.251   5.642  0.00  0.00    +0.140 HD
ENDBRANCH  11  13
ENDBRANCH   8  11
ENDBRANCH   2   5
BRANCH   1  16
ATOM     16  C   UNL     1       0.059  -4.275  -0.021  0.00  0.00    +0.100 C 
ATOM     17  C   UNL     1      -1.353  -4.805   0.234  0.00  0.00    +0.033 C 
BRANCH  16  22
ATOM     18  C   UNL     1      -0.018   1.503   0.010  0.00  0.00    +0.044 C 
ATOM     19  C   UNL     1       0.002  -0.004   0.002  0.00  0.00    -0.050 A 
ATOM     20  C   UNL     1       0.006  -0.689  -1.199  0.00  0.00    +0.004 A 
ATOM     21  C   UNL     1       0.025  -2.071  -1.206  0.00  0.00    +0.006 A 
ATOM     22  C   UNL     1       0.040  -2.768  -0.013  0.00  0.00    -0.027 A 
ATOM     23  C   UNL     1       0.037  -2.084   1.188  0.00  0.00    +0.006 A 
ATOM     24  C   UNL     1       0.023  -0.702   1.195  0.00  0.00    +0.004 A 
ENDBRANCH  16  22
ENDBRANCH   1  16
TORSDOF 5
