REMARK  Name = ZINC34857950
REMARK  18 active torsions:
REMARK  status: ('A' for Active; 'I' for Inactive)
REMARK    1  A    between atoms: C_1  and  C_2
REMARK    2  A    between atoms: C_2  and  C_3
REMARK    3  A    between atoms: C_2  and  C_4
REMARK    4  A    between atoms: C_9  and  O_10
REMARK    5  A    between atoms: O_10  and  C_11
REMARK    6  A    between atoms: C_11  and  C_12
REMARK    7  A    between atoms: C_12  and  C_14
REMARK    8  A    between atoms: C_12  and  O_35
REMARK    9  A    between atoms: C_14  and  N_15
REMARK   10  A    between atoms: N_15  and  C_16
REMARK   11  A    between atoms: N_15  and  C_32
REMARK   12  A    between atoms: C_16  and  C_17
REMARK   13  A    between atoms: C_17  and  C_19
REMARK   14  A    between atoms: C_17  and  O_31
REMARK   15  A    between atoms: C_19  and  O_20
REMARK   16  A    between atoms: O_20  and  C_21
REMARK   17  A    between atoms: C_32  and  C_33
REMARK   18  A    between atoms: C_32  and  C_34
REMARK                            x       y       z     vdW  Elec       q    Type
REMARK                         _______ _______ _______ _____ _____    ______ ____
ROOT
ATOM      1  N   UNL     1       1.013  -3.970  -7.124  0.00  0.00    +0.385 N 
ATOM      2  H   UNL     1       1.894  -4.462  -7.099  0.00  0.00    -0.081 HD
ENDROOT
BRANCH   1   3
ATOM      3  C   UNL     1       1.144  -2.694  -6.408  0.00  0.00    -0.075 C 
ATOM      4  C   UNL     1      -0.238  -2.060  -6.238  0.00  0.00    -0.014 C 
ATOM      5  C   UNL     1       1.765  -2.942  -5.032  0.00  0.00    -0.014 C 
ENDBRANCH   1   3
BRANCH   1   6
ATOM      6  C   UNL     1      -0.024  -4.788  -6.481  0.00  0.00    -0.043 C 
BRANCH   6   7
ATOM      7  C   UNL     1       0.558  -5.464  -5.238  0.00  0.00    +0.135 C 
BRANCH   7   8
ATOM      8  O   UNL     1       1.728  -6.200  -5.600  0.00  0.00    -0.390 OA
ATOM      9  H   UNL     1       1.569  -6.894  -6.254  0.00  0.00    +0.210 HD
ENDBRANCH   7   8
BRANCH   7  10
ATOM     10  C   UNL     1      -0.480  -6.416  -4.642  0.00  0.00    +0.258 C 
BRANCH  10  11
ATOM     11  O   UNL     1       0.019  -6.959  -3.418  0.00  0.00    -0.489 OA
BRANCH  11  17
ATOM     12  C   UNL     1      -0.366  -8.396  -1.561  0.00  0.00    -0.003 A 
ATOM     13  C   UNL     1      -1.190  -9.277  -0.887  0.00  0.00    +0.007 A 
ATOM     14  C   UNL     1      -2.430  -9.600  -1.405  0.00  0.00    +0.001 A 
ATOM     15  C   UNL     1      -2.850  -9.042  -2.599  0.00  0.00    +0.004 A 
ATOM     16  C   UNL     1      -2.030  -8.161  -3.277  0.00  0.00    +0.046 A 
ATOM     17  C   UNL     1      -0.787  -7.830  -2.756  0.00  0.00    +0.124 A 
BRANCH  12  19
ATOM     18  C   UNL     1       0.812  -7.411   0.386  0.00  0.00    +0.012 C 
ATOM     19  C   UNL     1       0.986  -8.044  -0.996  0.00  0.00    +0.016 C 
ATOM     20  C   UNL     1       1.833  -9.312  -0.873  0.00  0.00    +0.012 C 
ENDBRANCH  12  19
ENDBRANCH  11  17
ENDBRANCH  10  11
ENDBRANCH   7  10
ENDBRANCH   6   7
ENDBRANCH   1   6
BRANCH   1  21
ATOM     21  C   UNL     1       0.637  -3.711  -8.521  0.00  0.00    -0.043 C 
BRANCH  21  22
ATOM     22  C   UNL     1       1.805  -3.042  -9.248  0.00  0.00    +0.135 C 
BRANCH  22  23
ATOM     23  O   UNL     1       1.877  -1.667  -8.869  0.00  0.00    -0.390 OA
ATOM     24  H   UNL     1       1.101  -1.148  -9.120  0.00  0.00    +0.210 HD
ENDBRANCH  22  23
BRANCH  22  25
ATOM     25  C   UNL     1       1.590  -3.144 -10.760  0.00  0.00    +0.258 C 
BRANCH  25  26
ATOM     26  O   UNL     1       2.734  -2.624 -11.440  0.00  0.00    -0.489 OA
BRANCH  26  27
ATOM     27  C   UNL     1       2.704  -2.641 -12.797  0.00  0.00    +0.128 A 
ATOM     28  C   UNL     1       1.613  -3.134 -13.456  0.00  0.00    +0.046 A 
ATOM     29  C   UNL     1       1.567  -3.158 -14.847  0.00  0.00    +0.004 A 
ATOM     30  C   UNL     1       2.607  -2.691 -15.592  0.00  0.00    +0.009 A 
ATOM     31  C   UNL     1       3.748  -2.176 -14.953  0.00  0.00    -0.014 A 
ATOM     32  C   UNL     1       3.797  -2.145 -13.537  0.00  0.00    +0.024 A 
ATOM     33  C   UNL     1       4.934  -1.625 -12.898  0.00  0.00    +0.012 A 
ATOM     34  C   UNL     1       5.971  -1.155 -13.645  0.00  0.00    +0.001 A 
ATOM     35  C   UNL     1       5.921  -1.181 -15.038  0.00  0.00    +0.001 A 
ATOM     36  C   UNL     1       4.839  -1.686 -15.691  0.00  0.00    +0.008 A 
ENDBRANCH  26  27
ENDBRANCH  25  26
ENDBRANCH  22  25
ENDBRANCH  21  22
ENDBRANCH   1  21
TORSDOF 14
