REMARK  Name = ZINC67298738
REMARK  7 active torsions:
REMARK  status: ('A' for Active; 'I' for Inactive)
REMARK    1  A    between atoms: C_3  and  N_12
REMARK    2  A    between atoms: C_5  and  O_7
REMARK    3  A    between atoms: O_7  and  C_8
REMARK    4  A    between atoms: C_14  and  C_24
REMARK    5  A    between atoms: C_19  and  O_23
REMARK    6  A    between atoms: N_26  and  C_27
REMARK    7  A    between atoms: C_27  and  C_28
REMARK                            x       y       z     vdW  Elec       q    Type
REMARK                         _______ _______ _______ _____ _____    ______ ____
ROOT
ATOM      1  N   UNL     1       3.568   2.105  -0.024  0.00  0.00    -0.325 N 
ATOM      2  C   UNL     1       3.710   3.139  -0.826  0.00  0.00    +0.212 A 
ATOM      3  C   UNL     1       4.923   3.978  -0.781  0.00  0.00    +0.097 A 
ATOM      4  C   UNL     1       5.263   4.670  -1.935  0.00  0.00    +0.030 A 
ATOM      5  C   UNL     1       4.412   4.551  -3.062  0.00  0.00    +0.018 A 
ATOM      6  C   UNL     1       4.809   5.061  -4.308  0.00  0.00    +0.015 A 
ATOM      7  C   UNL     1       4.000   4.904  -5.395  0.00  0.00    +0.046 A 
ATOM      8  C   UNL     1       2.777   4.246  -5.278  0.00  0.00    +0.120 A 
ATOM      9  C   UNL     1       2.359   3.753  -4.051  0.00  0.00    +0.092 A 
ATOM     10  C   UNL     1       3.164   3.910  -2.935  0.00  0.00    +0.141 A 
ATOM     11  O   UNL     1       2.749   3.467  -1.727  0.00  0.00    -0.438 OA
ATOM     12  H   UNL     1       4.300   1.833   0.551  0.00  0.00    +0.169 HD
ENDROOT
BRANCH   1  15
ATOM     13  C   UNL     1      -0.016   1.402   0.053  0.00  0.00    +0.006 A 
ATOM     14  C   UNL     1       1.173   2.103   0.031  0.00  0.00    +0.026 A 
ATOM     15  C   UNL     1       2.388   1.414  -0.002  0.00  0.00    +0.045 A 
ATOM     16  C   UNL     1       2.393   0.018  -0.013  0.00  0.00    +0.071 A 
ATOM     17  C   UNL     1       1.194  -0.674   0.009  0.00  0.00    +0.132 A 
ATOM     18  C   UNL     1      -0.009   0.019   0.042  0.00  0.00    +0.046 A 
BRANCH  17  19
ATOM     19  O   UNL     1       1.195  -2.033  -0.002  0.00  0.00    -0.406 OA
BRANCH  19  20
ATOM     20  C   UNL     1      -0.078  -2.682   0.022  0.00  0.00    +0.575 C 
ATOM     21  F   UNL     1      -0.819  -2.297  -1.101  0.00  0.00    -0.133 F 
ATOM     22  F   UNL     1       0.105  -4.069   0.006  0.00  0.00    -0.133 F 
ATOM     23  F   UNL     1      -0.767  -2.316   1.183  0.00  0.00    -0.133 F 
ENDBRANCH  19  20
ENDBRANCH  17  19
ENDBRANCH   1  15
BRANCH   3  24
ATOM     24  C   UNL     1       5.739   4.079   0.440  0.00  0.00    +0.249 C 
ATOM     25  O   UNL     1       5.470   3.396   1.410  0.00  0.00    -0.270 OA
ATOM     26  N   UNL     1       6.786   4.927   0.483  0.00  0.00    -0.309 N 
ATOM     27  H   UNL     1       6.956   5.525  -0.261  0.00  0.00    +0.149 HD
BRANCH  26  28
ATOM     28  C   UNL     1       7.665   4.947   1.655  0.00  0.00    +0.136 C 
BRANCH  28  29
ATOM     29  C   UNL     1       8.764   5.991   1.450  0.00  0.00    +0.135 C 
ATOM     30  C   UNL     1       9.727   6.003   2.664  0.00  0.00    +0.035 C 
ATOM     31  C   UNL     1      11.016   6.573   2.011  0.00  0.00    +0.031 C 
ATOM     32  C   UNL     1      10.949   5.985   0.586  0.00  0.00    +0.160 C 
ATOM     33  O   UNL     1       9.582   5.639   0.323  0.00  0.00    -0.375 OA
ENDBRANCH  28  29
ENDBRANCH  26  28
ENDBRANCH   3  24
BRANCH   8  34
ATOM     34  O   UNL     1       1.989   4.088  -6.371  0.00  0.00    -0.507 OA
ATOM     35  H   UNL     1       2.158   3.273  -6.863  0.00  0.00    +0.292 HD
ENDBRANCH   8  34
TORSDOF 7
