REMARK  Name = ZINC35642668
REMARK  10 active torsions:
REMARK  status: ('A' for Active; 'I' for Inactive)
REMARK    1  A    between atoms: C_1  and  C_2
REMARK    2  A    between atoms: C_2  and  N_3
REMARK    3  A    between atoms: C_4  and  C_23
REMARK    4  A    between atoms: C_5  and  C_18
REMARK    5  A    between atoms: C_6  and  C_11
REMARK    6  A    between atoms: C_18  and  O_20
REMARK    7  A    between atoms: O_20  and  C_21
REMARK    8  A    between atoms: C_21  and  C_22
REMARK    9  A    between atoms: C_23  and  N_24
REMARK   10  A    between atoms: C_31  and  C_33
REMARK                            x       y       z     vdW  Elec       q    Type
REMARK                         _______ _______ _______ _____ _____    ______ ____
ROOT
ATOM      1  N   UNL     1      -1.932  -0.366  -0.142  0.00  0.00    -0.261 N 
ATOM      2  C   UNL     1      -2.332  -0.824   1.081  0.00  0.00    +0.010 C 
ATOM      3  C   UNL     1      -3.479  -1.523   1.224  0.00  0.00    +0.076 C 
ATOM      4  C   UNL     1      -4.306  -1.780  -0.019  0.00  0.00    +0.143 C 
ATOM      5  N   UNL     1      -3.788  -1.244  -1.289  0.00  0.00    -0.288 N 
ATOM      6  C   UNL     1      -2.626  -0.561  -1.270  0.00  0.00    +0.307 C 
ATOM      7  O   UNL     1      -2.192  -0.111  -2.312  0.00  0.00    -0.252 OA
ATOM      8  H   UNL     1      -4.273  -1.376  -2.119  0.00  0.00    +0.151 HD
ENDROOT
BRANCH   4   9
ATOM      9  C   UNL     1      -4.460  -3.271  -0.174  0.00  0.00    -0.022 A 
ATOM     10  C   UNL     1      -3.432  -4.019  -0.716  0.00  0.00    +0.008 A 
ATOM     11  C   UNL     1      -3.572  -5.387  -0.858  0.00  0.00    +0.038 A 
ATOM     12  C   UNL     1      -4.743  -6.008  -0.458  0.00  0.00    +0.123 A 
ATOM     13  C   UNL     1      -5.772  -5.257   0.085  0.00  0.00    +0.038 A 
ATOM     14  C   UNL     1      -5.628  -3.891   0.231  0.00  0.00    +0.008 A 
ATOM     15  F   UNL     1      -4.881  -7.344  -0.596  0.00  0.00    -0.205 F 
ENDBRANCH   4   9
BRANCH   1  17
ATOM     16  C   UNL     1      -0.973   1.883  -0.143  0.00  0.00    +0.025 C 
ATOM     17  C   UNL     1      -0.677   0.384  -0.223  0.00  0.00    +0.111 C 
ENDBRANCH   1  17
BRANCH   3  18
ATOM     18  C   UNL     1      -3.893  -1.998   2.490  0.00  0.00    +0.339 C 
ATOM     19  O   UNL     1      -3.252  -1.718   3.485  0.00  0.00    -0.245 OA
BRANCH  18  20
ATOM     20  O   UNL     1      -5.001  -2.762   2.594  0.00  0.00    -0.462 OA
BRANCH  20  21
ATOM     21  C   UNL     1      -5.361  -3.207   3.903  0.00  0.00    +0.229 C 
ATOM     22  C   UNL     1      -6.633  -4.054   3.822  0.00  0.00    +0.048 C 
ENDBRANCH  20  21
ENDBRANCH  18  20
ENDBRANCH   3  18
BRANCH   2  23
ATOM     23  C   UNL     1      -1.479  -0.546   2.292  0.00  0.00    -0.026 C 
BRANCH  23  24
ATOM     24  N   UNL     1      -0.664  -1.729   2.600  0.00  0.00    +0.384 N 
ATOM     25  C   UNL     1      -0.022  -1.522   3.896  0.00  0.00    -0.077 C 
ATOM     26  C   UNL     1       0.195  -2.861   4.565  0.00  0.00    +0.000 C 
ATOM     27  C   UNL     1       1.607  -3.377   4.232  0.00  0.00    +0.106 C 
ATOM     28  N   UNL     1       1.958  -3.095   2.826  0.00  0.00    -0.299 N 
ATOM     29  C   UNL     1       1.011  -3.263   1.742  0.00  0.00    +0.089 C 
ATOM     30  C   UNL     1       0.225  -1.950   1.524  0.00  0.00    -0.059 C 
ATOM     31  C   UNL     1       3.203  -2.666   2.540  0.00  0.00    +0.247 C 
ATOM     32  O   UNL     1       3.483  -2.325   1.407  0.00  0.00    -0.270 OA
ATOM     33  H   UNL     1      -1.278  -2.526   2.674  0.00  0.00    -0.081 HD
BRANCH  31  34
ATOM     34  C   UNL     1       4.226  -2.609   3.604  0.00  0.00    +0.037 A 
ATOM     35  C   UNL     1       4.256  -3.586   4.601  0.00  0.00    +0.016 A 
ATOM     36  C   UNL     1       5.213  -3.528   5.591  0.00  0.00    +0.039 A 
ATOM     37  C   UNL     1       6.145  -2.502   5.598  0.00  0.00    +0.123 A 
ATOM     38  C   UNL     1       6.121  -1.529   4.610  0.00  0.00    +0.039 A 
ATOM     39  C   UNL     1       5.172  -1.581   3.612  0.00  0.00    +0.016 A 
ATOM     40  F   UNL     1       7.081  -2.449   6.572  0.00  0.00    -0.205 F 
ENDBRANCH  31  34
ENDBRANCH  23  24
ENDBRANCH   2  23
TORSDOF 8
