REMARK  Name = ZINC15946539
REMARK  12 active torsions:
REMARK  status: ('A' for Active; 'I' for Inactive)
REMARK    1  A    between atoms: C_1  and  C_2
REMARK    2  A    between atoms: C_7  and  C_8
REMARK    3  A    between atoms: C_7  and  N_74
REMARK    4  A    between atoms: N_10  and  C_11
REMARK    5  A    between atoms: C_12  and  C_25
REMARK    6  A    between atoms: C_17  and  C_21
REMARK    7  A    between atoms: C_21  and  C_22
REMARK    8  A    between atoms: C_21  and  C_23
REMARK    9  A    between atoms: C_21  and  C_24
REMARK   10  A    between atoms: N_27  and  C_28
REMARK   11  A    between atoms: C_31  and  O_34
REMARK   12  A    between atoms: O_34  and  C_35
REMARK                            x       y       z     vdW  Elec       q    Type
REMARK                         _______ _______ _______ _____ _____    ______ ____
ROOT
ATOM      1  C   UNL     1      -0.932  -1.385   0.542  0.00  0.00    +0.084 A 
ATOM      2  C   UNL     1      -1.189  -0.021   0.581  0.00  0.00    +0.069 A 
ATOM      3  C   UNL     1      -0.279   0.812   1.347  0.00  0.00    -0.023 A 
ATOM      4  C   UNL     1       0.735   0.154   1.949  0.00  0.00    -0.004 A 
ATOM      5  S   UNL     1       0.495  -1.545   1.511  0.00  0.00    -0.077 S 
ATOM      6  C   UNL     1       1.817   0.745   2.799  0.00  0.00    +0.046 C 
ATOM      7  C   UNL     1       1.397   2.166   3.199  0.00  0.00    -0.000 C 
ATOM      8  C   UNL     1       0.910   2.906   1.950  0.00  0.00    +0.009 C 
ATOM      9  C   UNL     1      -0.426   2.322   1.486  0.00  0.00    +0.037 C 
ENDROOT
BRANCH   1  12
ATOM     10  C   UNL     1      -1.239  -3.661  -0.036  0.00  0.00    +0.201 C 
ATOM     11  O   UNL     1      -0.251  -3.947   0.606  0.00  0.00    -0.278 OA
ATOM     12  N   UNL     1      -1.645  -2.378  -0.113  0.00  0.00    -0.281 N 
ATOM     13  H   UNL     1      -2.435  -2.149  -0.626  0.00  0.00    +0.155 HD
BRANCH  10  14
ATOM     14  C   UNL     1      -2.014  -4.740  -0.748  0.00  0.00    +0.019 C 
BRANCH  14  21
ATOM     15  C   UNL     1       0.679  -9.760  -1.219  0.00  0.00    +0.007 C 
ATOM     16  C   UNL     1      -0.069  -8.464  -1.541  0.00  0.00    -0.018 C 
ATOM     17  C   UNL     1       0.760  -7.265  -1.075  0.00  0.00    -0.016 C 
ATOM     18  C   UNL     1      -0.019  -5.976  -1.344  0.00  0.00    -0.078 C 
ATOM     19  C   UNL     1      -2.133  -7.133  -1.089  0.00  0.00    -0.078 C 
ATOM     20  C   UNL     1      -1.416  -8.457  -0.813  0.00  0.00    -0.016 C 
ATOM     21  N   UNL     1      -1.294  -6.021  -0.596  0.00  0.00    +0.385 N 
ATOM     22  H   UNL     1      -1.091  -6.173   0.399  0.00  0.00    -0.081 HD
ENDBRANCH  14  21
ENDBRANCH  10  14
ENDBRANCH   1  12
BRANCH   7  23
ATOM     23  C   UNL     1       2.594   2.906   3.799  0.00  0.00    -0.035 C 
ATOM     24  C   UNL     1       3.719   2.980   2.765  0.00  0.00    +0.011 C 
ATOM     25  C   UNL     1       2.171   4.322   4.196  0.00  0.00    +0.011 C 
ATOM     26  C   UNL     1       3.088   2.155   5.037  0.00  0.00    +0.011 C 
ENDBRANCH   7  23
BRANCH   2  27
ATOM     27  C   UNL     1      -2.336   0.556  -0.126  0.00  0.00    +0.251 C 
ATOM     28  O   UNL     1      -2.215   0.933  -1.277  0.00  0.00    -0.270 OA
ATOM     29  N   UNL     1      -3.525   0.670   0.499  0.00  0.00    -0.281 N 
ATOM     30  H   UNL     1      -3.605   0.436   1.436  0.00  0.00    +0.155 HD
BRANCH  29  31
ATOM     31  C   UNL     1      -4.646   1.128  -0.206  0.00  0.00    +0.034 A 
ATOM     32  C   UNL     1      -5.619   1.874   0.445  0.00  0.00    +0.027 A 
ATOM     33  C   UNL     1      -6.721   2.329  -0.252  0.00  0.00    +0.047 A 
ATOM     34  C   UNL     1      -6.861   2.033  -1.599  0.00  0.00    +0.120 A 
ATOM     35  C   UNL     1      -5.891   1.283  -2.250  0.00  0.00    +0.047 A 
ATOM     36  C   UNL     1      -4.786   0.832  -1.555  0.00  0.00    +0.027 A 
BRANCH  34  37
ATOM     37  O   UNL     1      -7.949   2.476  -2.283  0.00  0.00    -0.495 OA
ATOM     38  C   UNL     1      -8.908   3.242  -1.551  0.00  0.00    +0.277 C 
ENDBRANCH  34  37
ENDBRANCH  29  31
ENDBRANCH   2  27
TORSDOF 7
