REMARK  Name = ZINC39693517
REMARK  12 active torsions:
REMARK  status: ('A' for Active; 'I' for Inactive)
REMARK    1  A    between atoms: C_1  and  C_2
REMARK    2  A    between atoms: C_2  and  C_3
REMARK    3  A    between atoms: C_2  and  C_4
REMARK    4  A    between atoms: C_2  and  O_5
REMARK    5  A    between atoms: O_5  and  C_6
REMARK    6  A    between atoms: N_8  and  C_9
REMARK    7  A    between atoms: C_9  and  C_10
REMARK    8  A    between atoms: C_10  and  N_11
REMARK    9  A    between atoms: C_12  and  C_14
REMARK   10  A    between atoms: C_25  and  C_27
REMARK   11  A    between atoms: C_31  and  O_32
REMARK   12  A    between atoms: O_32  and  C_33
REMARK                            x       y       z     vdW  Elec       q    Type
REMARK                         _______ _______ _______ _____ _____    ______ ____
ROOT
ATOM      1  C   UNL     1       8.109  -0.207  -5.346  0.00  0.00    +0.100 C 
ATOM      2  C   UNL     1       8.963  -0.674  -4.146  0.00  0.00    +0.121 C 
ATOM      3  N   UNL     1       9.544  -1.966  -4.581  0.00  0.00    -0.296 N 
ATOM      4  C   UNL     1       9.886  -1.756  -6.008  0.00  0.00    +0.115 C 
ATOM      5  C   UNL     1       8.720  -0.916  -6.566  0.00  0.00    -0.004 C 
ATOM      6  C   UNL     1       9.240   0.110  -7.568  0.00  0.00    -0.010 C 
ATOM      7  C   UNL     1       9.789  -0.618  -8.798  0.00  0.00    -0.082 C 
ATOM      8  N   UNL     1       8.727  -1.429  -9.405  0.00  0.00    +0.379 N 
ATOM      9  C   UNL     1       8.297  -2.473  -8.467  0.00  0.00    -0.082 C 
ATOM     10  C   UNL     1       7.684  -1.824  -7.223  0.00  0.00    -0.010 C 
ATOM     11  C   UNL     1       9.721  -3.081  -3.844  0.00  0.00    +0.251 C 
ATOM     12  O   UNL     1       9.297  -3.131  -2.705  0.00  0.00    -0.270 OA
ATOM     13  H   UNL     1       7.941  -0.837  -9.630  0.00  0.00    -0.086 HD
ATOM     14  H   UNL     1       9.074  -1.859 -10.249  0.00  0.00    -0.086 HD
ENDROOT
BRANCH  11  15
ATOM     15  C   UNL     1      10.426  -4.237  -4.418  0.00  0.00    +0.087 A 
ATOM     16  C   UNL     1      11.473  -4.079  -5.300  0.00  0.00    +0.063 A 
ATOM     17  S   UNL     1      11.943  -5.646  -5.670  0.00  0.00    -0.081 S 
ATOM     18  C   UNL     1      10.781  -6.563  -4.682  0.00  0.00    +0.120 A 
ATOM     19  C   UNL     1      10.057  -5.593  -4.080  0.00  0.00    +0.158 A 
ATOM     20 CL   UNL     1      10.622  -8.284  -4.523  0.00  0.00    -0.072 Cl
BRANCH  19  21
ATOM     21  O   UNL     1       9.042  -5.875  -3.217  0.00  0.00    -0.492 OA
ATOM     22  C   UNL     1       7.737  -6.027  -3.777  0.00  0.00    +0.277 C 
ENDBRANCH  19  21
ENDBRANCH  11  15
BRANCH   1  24
ATOM     23  N   UNL     1       5.680   0.126  -5.681  0.00  0.00    -0.314 N 
ATOM     24  C   UNL     1       6.672  -0.624  -5.161  0.00  0.00    +0.218 C 
ATOM     25  O   UNL     1       6.409  -1.635  -4.545  0.00  0.00    -0.275 OA
ATOM     26  H   UNL     1       5.891   0.934  -6.174  0.00  0.00    +0.149 HD
BRANCH  23  27
ATOM     27  C   UNL     1       4.284  -0.280  -5.501  0.00  0.00    +0.123 C 
BRANCH  27  28
ATOM     28  C   UNL     1       3.366   0.736  -6.183  0.00  0.00    +0.126 C 
BRANCH  28  31
ATOM     29  C   UNL     1       0.978   1.080  -6.522  0.00  0.00    +0.401 C 
ATOM     30  O   UNL     1       1.242   2.093  -7.140  0.00  0.00    -0.226 OA
ATOM     31  N   UNL     1       1.970   0.330  -6.003  0.00  0.00    -0.280 N 
ATOM     32  H   UNL     1       1.759  -0.478  -5.510  0.00  0.00    +0.152 HD
BRANCH  29  33
ATOM     33  O   UNL     1      -0.305   0.707  -6.357  0.00  0.00    -0.445 OA
BRANCH  33  35
ATOM     34  C   UNL     1      -1.092   1.631  -8.448  0.00  0.00    +0.055 C 
ATOM     35  C   UNL     1      -1.305   1.549  -6.935  0.00  0.00    +0.107 C 
ATOM     36  C   UNL     1      -1.203   2.951  -6.329  0.00  0.00    +0.055 C 
ATOM     37  C   UNL     1      -2.691   0.968  -6.645  0.00  0.00    +0.055 C 
ENDBRANCH  33  35
ENDBRANCH  29  33
ENDBRANCH  28  31
ENDBRANCH  27  28
ENDBRANCH  23  27
ENDBRANCH   1  24
TORSDOF 8
