REMARK  Name = ZINC46129214
REMARK  9 active torsions:
REMARK  status: ('A' for Active; 'I' for Inactive)
REMARK    1  A    between atoms: C_1  and  C_2
REMARK    2  A    between atoms: C_5  and  C_12
REMARK    3  A    between atoms: C_7  and  N_8
REMARK    4  A    between atoms: C_9  and  C_11
REMARK    5  A    between atoms: C_12  and  N_14
REMARK    6  A    between atoms: N_16  and  C_17
REMARK    7  A    between atoms: C_22  and  C_23
REMARK    8  A    between atoms: N_25  and  C_26
REMARK    9  A    between atoms: C_26  and  C_27
REMARK                            x       y       z     vdW  Elec       q    Type
REMARK                         _______ _______ _______ _____ _____    ______ ____
ROOT
ATOM      1  N   UNL     1       1.726  -6.084  -2.225  0.00  0.00    -0.143 NA
ATOM      2  C   UNL     1       0.664  -6.766  -1.823  0.00  0.00    +0.194 C 
ATOM      3  N   UNL     1       0.687  -7.423  -0.627  0.00  0.00    -0.328 N 
ATOM      4  N   UNL     1      -0.453  -6.811  -2.605  0.00  0.00    -0.355 N 
ATOM      5  H   UNL     1       0.823  -8.383  -0.603  0.00  0.00    +0.169 HD
ATOM      6  H   UNL     1      -0.444  -6.409  -3.488  0.00  0.00    +0.162 HD
ENDROOT
BRANCH   3   7
ATOM      7  C   UNL     1       0.513  -6.711   0.565  0.00  0.00    +0.046 A 
ATOM      8  C   UNL     1       0.166  -5.367   0.529  0.00  0.00    +0.046 A 
ATOM      9  C   UNL     1      -0.005  -4.667   1.708  0.00  0.00    +0.043 A 
ATOM     10  C   UNL     1       0.170  -5.305   2.924  0.00  0.00    +0.020 A 
ATOM     11  C   UNL     1       0.515  -6.643   2.962  0.00  0.00    +0.007 A 
ATOM     12  C   UNL     1       0.682  -7.349   1.787  0.00  0.00    -0.027 A 
ATOM     13  C   UNL     1       1.052  -8.809   1.831  0.00  0.00    +0.046 C 
ATOM     14 CL   UNL     1      -0.439  -2.987   1.664  0.00  0.00    -0.083 Cl
ENDBRANCH   3   7
BRANCH   1  15
ATOM     15  C   UNL     1       2.754  -5.891  -1.388  0.00  0.00    +0.270 C 
ATOM     16  O   UNL     1       2.708  -6.336  -0.255  0.00  0.00    -0.268 OA
BRANCH  15  21
ATOM     17  C   UNL     1       7.385  -2.957  -3.161  0.00  0.00    +0.045 C 
ATOM     18  C   UNL     1       6.174  -3.724  -2.695  0.00  0.00    -0.029 A 
ATOM     19  C   UNL     1       5.162  -4.023  -3.588  0.00  0.00    +0.006 A 
ATOM     20  C   UNL     1       4.051  -4.725  -3.169  0.00  0.00    +0.013 A 
ATOM     21  C   UNL     1       3.946  -5.138  -1.840  0.00  0.00    +0.041 A 
ATOM     22  C   UNL     1       4.967  -4.838  -0.940  0.00  0.00    +0.036 A 
ATOM     23  C   UNL     1       6.082  -4.136  -1.371  0.00  0.00    +0.037 A 
BRANCH  23  24
ATOM     24  N   UNL     1       7.112  -3.836  -0.472  0.00  0.00    -0.285 N 
ATOM     25  C   UNL     1       6.824  -3.573   0.818  0.00  0.00    +0.214 C 
ATOM     26  O   UNL     1       5.685  -3.684   1.221  0.00  0.00    -0.276 OA
ATOM     27  C   UNL     1       7.917  -3.140   1.761  0.00  0.00    +0.109 C 
ATOM     28  H   UNL     1       8.032  -3.818  -0.777  0.00  0.00    +0.155 HD
ENDBRANCH  23  24
ENDBRANCH  15  21
ENDBRANCH   1  15
BRANCH   4  29
ATOM     29  C   UNL     1      -1.666  -7.468  -2.112  0.00  0.00    +0.147 C 
BRANCH  29  30
ATOM     30  C   UNL     1      -2.728  -7.471  -3.214  0.00  0.00    +0.137 C 
ATOM     31  C   UNL     1      -3.994  -8.227  -2.738  0.00  0.00    +0.035 C 
ATOM     32  C   UNL     1      -5.080  -7.580  -3.640  0.00  0.00    +0.031 C 
ATOM     33  C   UNL     1      -4.572  -6.129  -3.775  0.00  0.00    +0.160 C 
ATOM     34  O   UNL     1      -3.168  -6.131  -3.486  0.00  0.00    -0.375 OA
ENDBRANCH  29  30
ENDBRANCH   4  29
TORSDOF 6
