REMARK  Name = ZINC20728021
REMARK  8 active torsions:
REMARK  status: ('A' for Active; 'I' for Inactive)
REMARK    1  A    between atoms: C_4  and  C_7
REMARK    2  A    between atoms: C_7  and  C_8
REMARK    3  A    between atoms: N_11  and  C_14
REMARK    4  A    between atoms: C_14  and  C_15
REMARK    5  A    between atoms: C_15  and  N_16
REMARK    6  A    between atoms: C_17  and  C_19
REMARK    7  A    between atoms: C_19  and  N_20
REMARK    8  A    between atoms: C_29  and  C_30
REMARK                            x       y       z     vdW  Elec       q    Type
REMARK                         _______ _______ _______ _____ _____    ______ ____
ROOT
ATOM      1  N   UNL     1       1.206   2.008   0.150  0.00  0.00    -0.316 N 
ATOM      2  C   UNL     1       1.380   3.344   0.135  0.00  0.00    +0.231 C 
ATOM      3  O   UNL     1       0.434   4.081   0.319  0.00  0.00    -0.274 OA
ATOM      4  H   UNL     1       2.064   1.339  -0.016  0.00  0.00    +0.149 HD
ENDROOT
BRANCH   1   5
ATOM      5  C   UNL     1      -0.126   1.445   0.387  0.00  0.00    +0.086 C 
BRANCH   5   6
ATOM      6  C   UNL     1      -0.047  -0.083   0.353  0.00  0.00    -0.060 C 
BRANCH   6  10
ATOM      7  C   UNL     1      -3.855  -1.977  -0.083  0.00  0.00    -0.010 C 
ATOM      8  C   UNL     1      -2.757  -2.670   0.728  0.00  0.00    -0.015 C 
ATOM      9  C   UNL     1      -1.396  -2.093   0.332  0.00  0.00    -0.078 C 
ATOM     10  N   UNL     1      -1.382  -0.647   0.591  0.00  0.00    +0.381 N 
ATOM     11  C   UNL     1      -2.397   0.045  -0.213  0.00  0.00    -0.078 C 
ATOM     12  C   UNL     1      -3.788  -0.468   0.166  0.00  0.00    -0.015 C 
ATOM     13  H   UNL     1      -1.632  -0.494   1.651  0.00  0.00    -0.082 HD
BRANCH   7  14
ATOM     14  C   UNL     1      -5.223  -2.508   0.350  0.00  0.00    +0.038 C 
BRANCH  14  18
ATOM     15  C   UNL     1      -8.258  -0.834  -2.148  0.00  0.00    +0.000 A 
ATOM     16  C   UNL     1      -7.649  -2.024  -2.502  0.00  0.00    +0.000 A 
ATOM     17  C   UNL     1      -6.668  -2.566  -1.693  0.00  0.00    +0.003 A 
ATOM     18  C   UNL     1      -6.294  -1.917  -0.531  0.00  0.00    -0.047 A 
ATOM     19  C   UNL     1      -6.905  -0.730  -0.175  0.00  0.00    +0.003 A 
ATOM     20  C   UNL     1      -7.884  -0.186  -0.986  0.00  0.00    +0.000 A 
ENDBRANCH  14  18
ENDBRANCH   7  14
ENDBRANCH   6  10
ENDBRANCH   5   6
ENDBRANCH   1   5
BRANCH   2  21
ATOM     21  C   UNL     1       2.750   3.923  -0.108  0.00  0.00    +0.209 C 
BRANCH  21  22
ATOM     22  N   UNL     1       2.675   5.386  -0.076  0.00  0.00    -0.257 N 
ATOM     23  C   UNL     1       2.424   6.024  -1.284  0.00  0.00    +0.051 A 
ATOM     24  C   UNL     1       1.837   5.289  -2.314  0.00  0.00    +0.024 A 
ATOM     25  C   UNL     1       1.564   5.883  -3.529  0.00  0.00    +0.002 A 
ATOM     26  C   UNL     1       1.863   7.217  -3.741  0.00  0.00    +0.001 A 
ATOM     27  C   UNL     1       2.441   7.961  -2.729  0.00  0.00    +0.017 A 
ATOM     28  C   UNL     1       2.718   7.369  -1.508  0.00  0.00    +0.034 A 
ATOM     29  S   UNL     1       3.459   8.320  -0.215  0.00  0.00    -0.082 S 
ATOM     30  C   UNL     1       2.907   7.444   1.225  0.00  0.00    +0.076 C 
ATOM     31  C   UNL     1       2.550   8.087   2.363  0.00  0.00    +0.031 C 
ATOM     32  C   UNL     1       2.859   5.969   1.111  0.00  0.00    +0.258 C 
ATOM     33  O   UNL     1       2.990   5.283   2.107  0.00  0.00    -0.269 OA
BRANCH  31  34
ATOM     34  C   UNL     1       2.757   9.537   2.483  0.00  0.00    +0.011 A 
ATOM     35  C   UNL     1       3.859  10.144   1.871  0.00  0.00    +0.011 A 
ATOM     36  C   UNL     1       4.043  11.505   1.985  0.00  0.00    +0.001 A 
ATOM     37  C   UNL     1       3.147  12.272   2.710  0.00  0.00    +0.003 A 
ATOM     38  C   UNL     1       2.058  11.681   3.324  0.00  0.00    +0.039 A 
ATOM     39  C   UNL     1       1.855  10.319   3.217  0.00  0.00    +0.131 A 
ATOM     40  F   UNL     1       0.790   9.743   3.817  0.00  0.00    -0.205 F 
ENDBRANCH  31  34
ENDBRANCH  21  22
ENDBRANCH   2  21
TORSDOF 8
