REMARK  Name = ZINC41019564
REMARK  12 active torsions:
REMARK  status: ('A' for Active; 'I' for Inactive)
REMARK    1  A    between atoms: C_1  and  C_2
REMARK    2  A    between atoms: C_2  and  C_3
REMARK    3  A    between atoms: C_3  and  C_4
REMARK    4  A    between atoms: C_4  and  S_5
REMARK    5  A    between atoms: S_5  and  C_6
REMARK    6  A    between atoms: C_11  and  C_28
REMARK    7  A    between atoms: C_13  and  C_17
REMARK    8  A    between atoms: C_14  and  C_16
REMARK    9  A    between atoms: N_19  and  C_20
REMARK   10  A    between atoms: C_24  and  C_27
REMARK   11  A    between atoms: C_25  and  C_26
REMARK   12  A    between atoms: C_32  and  O_34
REMARK                            x       y       z     vdW  Elec       q    Type
REMARK                         _______ _______ _______ _____ _____    ______ ____
ROOT
ATOM      1  C   UNL     1       1.754  -4.402   2.388  0.00  0.00    +0.210 A 
ATOM      2  N   UNL     1       1.134  -5.093   1.419  0.00  0.00    -0.187 NA
ATOM      3  C   UNL     1       1.244  -6.372   1.657  0.00  0.00    +0.219 A 
ATOM      4  N   UNL     1       1.946  -6.528   2.807  0.00  0.00    -0.220 N 
ATOM      5  N   UNL     1       2.270  -5.247   3.254  0.00  0.00    -0.141 NA
ATOM      6  C   UNL     1       2.258  -7.828   3.393  0.00  0.00    +0.177 C 
ATOM      7  C   UNL     1       1.954  -8.914   2.395  0.00  0.00    +0.060 C 
ATOM      8  C   UNL     1       1.257  -8.699   1.269  0.00  0.00    +0.018 C 
ATOM      9  N   UNL     1       0.772  -7.458   0.934  0.00  0.00    -0.287 N 
ATOM     10  C   UNL     1       0.997  -9.858   0.342  0.00  0.00    +0.061 C 
ATOM     11  H   UNL     1       0.125  -7.346   0.220  0.00  0.00    +0.155 HD
ENDROOT
BRANCH   6  12
ATOM     12  C   UNL     1       1.423  -8.036   4.630  0.00  0.00    -0.015 A 
ATOM     13  C   UNL     1       0.043  -8.037   4.540  0.00  0.00    +0.006 A 
ATOM     14  C   UNL     1      -0.725  -8.227   5.673  0.00  0.00    +0.004 A 
ATOM     15  C   UNL     1      -0.116  -8.415   6.899  0.00  0.00    +0.045 A 
ATOM     16  C   UNL     1       1.268  -8.414   6.992  0.00  0.00    +0.117 A 
ATOM     17  C   UNL     1       2.037  -8.229   5.852  0.00  0.00    +0.051 A 
BRANCH  16  18
ATOM     18  O   UNL     1       1.869  -8.599   8.197  0.00  0.00    -0.507 OA
ATOM     19  H   UNL     1       2.053  -9.525   8.406  0.00  0.00    +0.292 HD
ENDBRANCH  16  18
ENDBRANCH   6  12
BRANCH   7  20
ATOM     20  C   UNL     1       2.427 -10.221   2.656  0.00  0.00    +0.248 C 
ATOM     21  O   UNL     1       3.587 -10.508   2.422  0.00  0.00    -0.270 OA
ATOM     22  N   UNL     1       1.593 -11.150   3.163  0.00  0.00    -0.281 N 
ATOM     23  H   UNL     1       0.654 -10.942   3.289  0.00  0.00    +0.155 HD
BRANCH  22  24
ATOM     24  C   UNL     1       2.081 -12.415   3.509  0.00  0.00    +0.037 A 
ATOM     25  C   UNL     1       3.095 -12.997   2.759  0.00  0.00    +0.023 A 
ATOM     26  C   UNL     1       3.575 -14.246   3.102  0.00  0.00    +0.002 A 
ATOM     27  C   UNL     1       3.048 -14.916   4.191  0.00  0.00    +0.004 A 
ATOM     28  C   UNL     1       2.038 -14.339   4.939  0.00  0.00    -0.046 A 
ATOM     29  C   UNL     1       1.558 -13.088   4.604  0.00  0.00    -0.026 A 
ATOM     30  C   UNL     1       0.462 -12.457   5.424  0.00  0.00    +0.046 C 
ATOM     31  C   UNL     1       1.466 -15.072   6.125  0.00  0.00    +0.044 C 
ENDBRANCH  22  24
ENDBRANCH   7  20
BRANCH   1  32
ATOM     32  S   UNL     1       1.865  -2.646   2.481  0.00  0.00    -0.084 S 
BRANCH  32  33
ATOM     33  C   UNL     1       0.965  -2.071   1.015  0.00  0.00    +0.077 C 
BRANCH  33  34
ATOM     34  C   UNL     1       0.985  -0.541   0.972  0.00  0.00    +0.011 C 
BRANCH  34  36
ATOM     35  C   UNL     1       0.245   1.473  -0.307  0.00  0.00    +0.004 C 
ATOM     36  C   UNL     1       0.226  -0.056  -0.264  0.00  0.00    -0.003 C 
ENDBRANCH  34  36
ENDBRANCH  33  34
ENDBRANCH  32  33
ENDBRANCH   1  32
TORSDOF 8
