REMARK  Name = ZINC09639733
REMARK  9 active torsions:
REMARK  status: ('A' for Active; 'I' for Inactive)
REMARK    1  A    between atoms: C_1  and  C_2
REMARK    2  A    between atoms: C_2  and  C_26
REMARK    3  A    between atoms: C_5  and  C_22
REMARK    4  A    between atoms: C_6  and  N_12
REMARK    5  A    between atoms: C_9  and  C_10
REMARK    6  A    between atoms: C_9  and  C_11
REMARK    7  A    between atoms: C_13  and  C_15
REMARK    8  A    between atoms: C_22  and  O_24
REMARK    9  A    between atoms: O_24  and  C_25
REMARK                            x       y       z     vdW  Elec       q    Type
REMARK                         _______ _______ _______ _____ _____    ______ ____
ROOT
ATOM      1  C   UNL     1      -0.013   1.086   0.008  0.00  0.00    -0.010 C 
ATOM      2  C   UNL     1      -0.729   1.580   1.268  0.00  0.00    -0.069 C 
ATOM      3  C   UNL     1      -2.138   0.980   1.315  0.00  0.00    +0.024 C 
ATOM      4  C   UNL     1      -2.981   1.649   0.238  0.00  0.00    -0.024 A 
ATOM      5  C   UNL     1      -4.130   1.055  -0.416  0.00  0.00    +0.091 A 
ATOM      6  C   UNL     1      -4.793   1.825  -1.366  0.00  0.00    +0.086 A 
ATOM      7  S   UNL     1      -3.892   3.305  -1.375  0.00  0.00    -0.079 S 
ATOM      8  C   UNL     1      -2.673   2.905  -0.156  0.00  0.00    -0.016 A 
ATOM      9  C   UNL     1      -1.544   3.748   0.342  0.00  0.00    -0.041 C 
ATOM     10  C   UNL     1      -2.141   5.007   1.002  0.00  0.00    -0.005 C 
ATOM     11  C   UNL     1      -0.675   4.201  -0.837  0.00  0.00    -0.005 C 
ATOM     12  C   UNL     1       0.048   1.047   2.487  0.00  0.00    -0.010 C 
ATOM     13  N   UNL     1      -0.718   3.061   1.375  0.00  0.00    +0.389 N 
ATOM     14  H   UNL     1       0.252   3.384   1.282  0.00  0.00    -0.084 HD
ATOM     15  H   UNL     1      -1.077   3.320   2.302  0.00  0.00    -0.084 HD
ENDROOT
BRANCH   6  16
ATOM     16  N   UNL     1      -5.905   1.489  -2.120  0.00  0.00    -0.275 N 
ATOM     17  C   UNL     1      -6.414   2.373  -3.001  0.00  0.00    +0.250 C 
ATOM     18  O   UNL     1      -5.899   3.466  -3.132  0.00  0.00    -0.270 OA
ATOM     19  H   UNL     1      -6.316   0.617  -2.015  0.00  0.00    +0.156 HD
BRANCH  17  20
ATOM     20  C   UNL     1      -7.600   2.014  -3.806  0.00  0.00    +0.050 A 
ATOM     21  C   UNL     1      -8.192   0.757  -3.662  0.00  0.00    +0.014 A 
ATOM     22  C   UNL     1      -9.301   0.430  -4.412  0.00  0.00    +0.001 A 
ATOM     23  C   UNL     1      -9.823   1.341  -5.315  0.00  0.00    +0.001 A 
ATOM     24  C   UNL     1      -9.239   2.585  -5.468  0.00  0.00    +0.015 A 
ATOM     25  C   UNL     1      -8.131   2.927  -4.719  0.00  0.00    +0.025 A 
ATOM     26  I   UNL     1      -7.247   4.813  -4.952  0.00  0.00    -0.043 I 
ENDBRANCH  17  20
ENDBRANCH   6  16
BRANCH   5  27
ATOM     27  C   UNL     1      -4.585  -0.299  -0.094  0.00  0.00    +0.342 C 
ATOM     28  O   UNL     1      -5.402  -0.472   0.790  0.00  0.00    -0.245 OA
BRANCH  27  29
ATOM     29  O   UNL     1      -4.098  -1.354  -0.779  0.00  0.00    -0.464 OA
ATOM     30  C   UNL     1      -4.593  -2.667  -0.406  0.00  0.00    +0.280 C 
ENDBRANCH  27  29
ENDBRANCH   5  27
TORSDOF 4
