REMARK  Name = ZINC35934602
REMARK  8 active torsions:
REMARK  status: ('A' for Active; 'I' for Inactive)
REMARK    1  A    between atoms: C_1  and  N_2
REMARK    2  A    between atoms: C_5  and  C_10
REMARK    3  A    between atoms: N_20  and  C_22
REMARK    4  A    between atoms: C_22  and  C_23
REMARK    5  A    between atoms: C_23  and  C_24
REMARK    6  A    between atoms: N_26  and  C_27
REMARK    7  A    between atoms: C_27  and  C_28
REMARK    8  A    between atoms: C_28  and  C_29
REMARK                            x       y       z     vdW  Elec       q    Type
REMARK                         _______ _______ _______ _____ _____    ______ ____
ROOT
ATOM      1  C   UNL     1      -0.018   1.461   0.010  0.00  0.00    +0.139 C 
ATOM      2  N   UNL     1       0.002  -0.004   0.002  0.00  0.00    -0.260 N 
ATOM      3  C   UNL     1      -1.193  -0.666   0.004  0.00  0.00    +0.042 C 
ATOM      4  C   UNL     1      -1.245  -2.013  -0.003  0.00  0.00    +0.058 C 
ATOM      5  C   UNL     1       0.068  -2.769  -0.014  0.00  0.00    +0.143 C 
ATOM      6  N   UNL     1       1.301  -1.964  -0.016  0.00  0.00    -0.288 N 
ATOM      7  C   UNL     1       1.191  -0.621  -0.013  0.00  0.00    +0.307 C 
ATOM      8  O   UNL     1       2.203   0.052  -0.018  0.00  0.00    -0.252 OA
ATOM      9  C   UNL     1      -2.585  -2.452   0.002  0.00  0.00    +0.247 C 
ATOM     10  O   UNL     1      -2.927  -3.620  -0.003  0.00  0.00    -0.270 OA
ATOM     11  N   UNL     1      -3.437  -1.411   0.012  0.00  0.00    -0.292 N 
ATOM     12  C   UNL     1      -2.626  -0.184   0.015  0.00  0.00    +0.159 C 
ATOM     13  H   UNL     1       2.172  -2.391  -0.023  0.00  0.00    +0.151 HD
ENDROOT
BRANCH   5  14
ATOM     14  C   UNL     1       0.100  -3.664   1.198  0.00  0.00    -0.003 A 
ATOM     15  C   UNL     1       0.712  -3.232   2.360  0.00  0.00    +0.007 A 
ATOM     16  C   UNL     1       0.742  -4.051   3.473  0.00  0.00    +0.002 A 
ATOM     17  C   UNL     1       0.159  -5.304   3.425  0.00  0.00    +0.021 A 
ATOM     18  C   UNL     1      -0.455  -5.738   2.264  0.00  0.00    +0.060 A 
ATOM     19  C   UNL     1      -0.489  -4.914   1.151  0.00  0.00    +0.064 A 
ATOM     20 CL   UNL     1      -1.266  -5.454  -0.305  0.00  0.00    -0.082 Cl
ATOM     21 CL   UNL     1      -1.187  -7.311   2.203  0.00  0.00    -0.082 Cl
ENDBRANCH   5  14
BRANCH  11  22
ATOM     22  C   UNL     1      -4.900  -1.485   0.019  0.00  0.00    +0.117 C 
BRANCH  22  23
ATOM     23  C   UNL     1      -5.402  -1.519   1.464  0.00  0.00    +0.114 C 
BRANCH  23  24
ATOM     24  C   UNL     1      -6.907  -1.596   1.471  0.00  0.00    +0.215 C 
ATOM     25  O   UNL     1      -7.518  -1.621   0.424  0.00  0.00    -0.276 OA
ATOM     26  N   UNL     1      -7.574  -1.636   2.642  0.00  0.00    -0.315 N 
ATOM     27  H   UNL     1      -7.085  -1.617   3.479  0.00  0.00    +0.149 HD
BRANCH  26  28
ATOM     28  C   UNL     1      -9.037  -1.711   2.649  0.00  0.00    +0.109 C 
BRANCH  28  29
ATOM     29  C   UNL     1      -9.539  -1.745   4.094  0.00  0.00    +0.054 C 
BRANCH  29  30
ATOM     30  C   UNL     1     -11.044  -1.821   4.101  0.00  0.00    -0.046 A 
ATOM     31  C   UNL     1     -11.795  -0.661   4.106  0.00  0.00    +0.004 A 
ATOM     32  C   UNL     1     -13.176  -0.731   4.112  0.00  0.00    +0.000 A 
ATOM     33  C   UNL     1     -13.805  -1.962   4.114  0.00  0.00    +0.000 A 
ATOM     34  C   UNL     1     -13.054  -3.122   4.109  0.00  0.00    +0.000 A 
ATOM     35  C   UNL     1     -11.674  -3.052   4.098  0.00  0.00    +0.004 A 
ENDBRANCH  29  30
ENDBRANCH  28  29
ENDBRANCH  26  28
ENDBRANCH  23  24
ENDBRANCH  22  23
ENDBRANCH  11  22
TORSDOF 7
