REMARK  Name = ZINC39686891
REMARK  8 active torsions:
REMARK  status: ('A' for Active; 'I' for Inactive)
REMARK    1  A    between atoms: C_1  and  C_2
REMARK    2  A    between atoms: C_2  and  C_3
REMARK    3  A    between atoms: C_6  and  C_9
REMARK    4  A    between atoms: C_13  and  C_22
REMARK    5  A    between atoms: N_24  and  C_25
REMARK    6  A    between atoms: C_25  and  C_27
REMARK    7  A    between atoms: C_25  and  C_28
REMARK    8  A    between atoms: C_28  and  C_29
REMARK                            x       y       z     vdW  Elec       q    Type
REMARK                         _______ _______ _______ _____ _____    ______ ____
ROOT
ATOM      1  C   UNL     1       1.690  -2.545  -4.139  0.00  0.00    +0.247 C 
ATOM      2  O   UNL     1       1.062  -2.902  -5.116  0.00  0.00    -0.270 OA
ATOM      3  N   UNL     1       3.028  -2.400  -4.213  0.00  0.00    -0.296 N 
ATOM      4  C   UNL     1       3.971  -2.091  -3.112  0.00  0.00    +0.121 C 
ATOM      5  C   UNL     1       5.212  -2.964  -3.404  0.00  0.00    +0.100 C 
ATOM      6  C   UNL     1       5.153  -3.237  -4.917  0.00  0.00    -0.004 C 
ATOM      7  C   UNL     1       3.890  -2.519  -5.414  0.00  0.00    +0.115 C 
ATOM      8  C   UNL     1       5.040  -4.735  -5.180  0.00  0.00    -0.010 C 
ATOM      9  C   UNL     1       5.040  -4.985  -6.691  0.00  0.00    -0.082 C 
ATOM     10  N   UNL     1       6.280  -4.457  -7.275  0.00  0.00    +0.379 N 
ATOM     11  C   UNL     1       6.337  -3.001  -7.098  0.00  0.00    -0.082 C 
ATOM     12  C   UNL     1       6.390  -2.668  -5.605  0.00  0.00    -0.010 C 
ATOM     13  H   UNL     1       7.073  -4.881  -6.817  0.00  0.00    -0.086 HD
ATOM     14  H   UNL     1       6.306  -4.677  -8.259  0.00  0.00    -0.086 HD
ENDROOT
BRANCH   1  18
ATOM     15  C   UNL     1      -0.331  -1.757  -0.487  0.00  0.00    -0.048 A 
ATOM     16  C   UNL     1      -0.951  -2.510  -1.468  0.00  0.00    +0.004 A 
ATOM     17  C   UNL     1      -0.300  -2.769  -2.657  0.00  0.00    +0.013 A 
ATOM     18  C   UNL     1       0.987  -2.271  -2.868  0.00  0.00    +0.037 A 
ATOM     19  C   UNL     1       1.606  -1.512  -1.873  0.00  0.00    +0.013 A 
ATOM     20  C   UNL     1       0.942  -1.255  -0.691  0.00  0.00    +0.004 A 
BRANCH  15  22
ATOM     21  C   UNL     1      -1.855  -0.185   0.677  0.00  0.00    +0.009 C 
ATOM     22  C   UNL     1      -1.048  -1.478   0.809  0.00  0.00    +0.032 C 
ENDBRANCH  15  22
ENDBRANCH   1  18
BRANCH   5  23
ATOM     23  C   UNL     1       5.136  -4.257  -2.633  0.00  0.00    +0.218 C 
ATOM     24  O   UNL     1       4.060  -4.771  -2.416  0.00  0.00    -0.275 OA
ATOM     25  N   UNL     1       6.265  -4.841  -2.184  0.00  0.00    -0.312 N 
ATOM     26  H   UNL     1       7.130  -4.470  -2.421  0.00  0.00    +0.149 HD
BRANCH  25  27
ATOM     27  C   UNL     1       6.186  -6.035  -1.339  0.00  0.00    +0.074 C 
ATOM     28  C   UNL     1       6.143  -7.283  -2.223  0.00  0.00    +0.028 C 
BRANCH  27  29
ATOM     29  C   UNL     1       7.414  -6.096  -0.428  0.00  0.00    +0.060 C 
BRANCH  29  30
ATOM     30  C   UNL     1       7.394  -4.926   0.521  0.00  0.00    -0.010 A 
ATOM     31  C   UNL     1       8.143  -3.798   0.243  0.00  0.00    +0.006 A 
ATOM     32  C   UNL     1       8.126  -2.724   1.113  0.00  0.00    +0.000 A 
ATOM     33  C   UNL     1       7.359  -2.777   2.262  0.00  0.00    +0.003 A 
ATOM     34  C   UNL     1       6.609  -3.903   2.542  0.00  0.00    +0.038 A 
ATOM     35  C   UNL     1       6.622  -4.978   1.669  0.00  0.00    +0.127 A 
ATOM     36  F   UNL     1       5.886  -6.077   1.939  0.00  0.00    -0.205 F 
ENDBRANCH  29  30
ENDBRANCH  27  29
ENDBRANCH  25  27
ENDBRANCH   5  23
TORSDOF 6
