REMARK  Name = ZINC16429435
REMARK  13 active torsions:
REMARK  status: ('A' for Active; 'I' for Inactive)
REMARK    1  A    between atoms: C_1  and  C_2
REMARK    2  A    between atoms: C_2  and  C_3
REMARK    3  A    between atoms: C_3  and  C_4
REMARK    4  A    between atoms: C_4  and  C_5
REMARK    5  A    between atoms: C_5  and  N_6
REMARK    6  A    between atoms: N_6  and  C_7
REMARK    7  A    between atoms: C_7  and  C_9
REMARK    8  A    between atoms: C_7  and  C_10
REMARK    9  A    between atoms: N_20  and  C_21
REMARK   10  A    between atoms: C_24  and  C_27
REMARK   11  A    between atoms: C_27  and  C_28
REMARK   12  A    between atoms: N_31  and  C_32
REMARK   13  A    between atoms: C_35  and  N_38
REMARK                            x       y       z     vdW  Elec       q    Type
REMARK                         _______ _______ _______ _____ _____    ______ ____
ROOT
ATOM      1  C   UNL     1      -1.657   3.262   1.567  0.00  0.00    +0.141 C 
ATOM      2  C   UNL     1      -0.325   3.768   2.126  0.00  0.00    +0.036 C 
ENDROOT
BRANCH   1   3
ATOM      3  C   UNL     1      -2.133   4.195   0.483  0.00  0.00    +0.138 A 
ATOM      4  N   UNL     1      -1.289   5.051  -0.008  0.00  0.00    -0.231 NA
ATOM      5  C   UNL     1      -1.646   5.922  -0.985  0.00  0.00    +0.078 A 
ATOM      6  C   UNL     1      -0.739   6.842  -1.513  0.00  0.00    +0.028 A 
ATOM      7  C   UNL     1      -1.144   7.707  -2.504  0.00  0.00    +0.002 A 
ATOM      8  C   UNL     1      -2.446   7.676  -2.987  0.00  0.00    +0.001 A 
ATOM      9  C   UNL     1      -3.359   6.777  -2.482  0.00  0.00    +0.015 A 
ATOM     10  C   UNL     1      -2.970   5.893  -1.478  0.00  0.00    +0.065 A 
ATOM     11  C   UNL     1      -3.900   4.912  -0.902  0.00  0.00    +0.266 A 
ATOM     12  O   UNL     1      -5.054   4.835  -1.283  0.00  0.00    -0.267 OA
ATOM     13  N   UNL     1      -3.423   4.093   0.065  0.00  0.00    -0.263 N 
BRANCH  13  14
ATOM     14  C   UNL     1      -4.267   3.137   0.643  0.00  0.00    +0.051 A 
ATOM     15  C   UNL     1      -4.685   2.039  -0.097  0.00  0.00    +0.026 A 
ATOM     16  C   UNL     1      -5.514   1.095   0.478  0.00  0.00    +0.005 A 
ATOM     17  C   UNL     1      -5.935   1.248   1.786  0.00  0.00    -0.047 A 
ATOM     18  C   UNL     1      -5.525   2.343   2.524  0.00  0.00    +0.005 A 
ATOM     19  C   UNL     1      -4.692   3.288   1.957  0.00  0.00    +0.026 A 
BRANCH  17  20
ATOM     20  C   UNL     1      -6.844   0.220   2.409  0.00  0.00    +0.032 C 
ATOM     21  C   UNL     1      -8.302   0.612   2.161  0.00  0.00    +0.009 C 
ENDBRANCH  17  20
ENDBRANCH  13  14
ENDBRANCH   1   3
BRANCH   1  22
ATOM     22  N   UNL     1      -1.474   1.920   1.010  0.00  0.00    -0.276 N 
ATOM     23  C   UNL     1      -2.112   0.869   1.562  0.00  0.00    +0.307 C 
ATOM     24  O   UNL     1      -2.839   1.035   2.522  0.00  0.00    -0.252 OA
ATOM     25  N   UNL     1      -1.943  -0.367   1.050  0.00  0.00    -0.269 N 
ATOM     26  H   UNL     1      -1.313  -0.510   0.327  0.00  0.00    +0.156 HD
BRANCH  25  27
ATOM     27  C   UNL     1      -2.679  -1.442   1.561  0.00  0.00    +0.035 A 
ATOM     28  C   UNL     1      -2.976  -1.501   2.916  0.00  0.00    +0.025 A 
ATOM     29  C   UNL     1      -3.706  -2.561   3.416  0.00  0.00    +0.034 A 
ATOM     30  C   UNL     1      -4.131  -3.569   2.571  0.00  0.00    +0.126 A 
ATOM     31  C   UNL     1      -3.833  -3.517   1.222  0.00  0.00    +0.034 A 
ATOM     32  C   UNL     1      -3.108  -2.456   0.715  0.00  0.00    +0.025 A 
BRANCH  30  33
ATOM     33  N   UNL     1      -4.908  -4.707   3.112  0.00  0.00    +0.056 N 
ATOM     34  O   UNL     1      -5.284  -5.596   2.369  0.00  0.00    -0.126 OA
ATOM     35  O   UNL     1      -5.171  -4.755   4.300  0.00  0.00    -0.126 OA
ENDBRANCH  30  33
ENDBRANCH  25  27
BRANCH  22  36
ATOM     36  C   UNL     1      -0.597   1.719  -0.147  0.00  0.00    +0.110 C 
BRANCH  36  37
ATOM     37  C   UNL     1      -1.435   1.715  -1.427  0.00  0.00    +0.019 C 
BRANCH  37  38
ATOM     38  C   UNL     1      -0.511   1.601  -2.641  0.00  0.00    +0.001 C 
BRANCH  38  40
ATOM     39  C   UNL     1      -0.425   1.482  -5.135  0.00  0.00    +0.004 C 
ATOM     40  C   UNL     1      -1.349   1.596  -3.921  0.00  0.00    -0.003 C 
ENDBRANCH  38  40
ENDBRANCH  37  38
ENDBRANCH  36  37
ENDBRANCH  22  36
ENDBRANCH   1  22
TORSDOF 10
