REMARK  Name = ZINC01182065
REMARK  7 active torsions:
REMARK  status: ('A' for Active; 'I' for Inactive)
REMARK    1  A    between atoms: C_1  and  O_2
REMARK    2  A    between atoms: O_2  and  C_3
REMARK    3  A    between atoms: C_6  and  C_11
REMARK    4  A    between atoms: C_8  and  O_9
REMARK    5  A    between atoms: O_9  and  C_10
REMARK    6  A    between atoms: C_16  and  C_26
REMARK    7  A    between atoms: C_29  and  N_32
REMARK                            x       y       z     vdW  Elec       q    Type
REMARK                         _______ _______ _______ _____ _____    ______ ____
ROOT
ATOM      1  C   UNL     1      -5.118   5.090  -4.111  0.00  0.00    +0.032 C 
ATOM      2  C   UNL     1      -5.571   6.205  -3.171  0.00  0.00    +0.059 C 
ATOM      3  C   UNL     1      -5.275   5.824  -1.730  0.00  0.00    +0.017 C 
ATOM      4  C   UNL     1      -5.306   4.537  -1.346  0.00  0.00    +0.036 C 
ATOM      5  C   UNL     1      -5.034   4.022   0.048  0.00  0.00    +0.136 C 
ATOM      6  N   UNL     1      -4.976   5.052   1.063  0.00  0.00    -0.331 N 
ATOM      7  C   UNL     1      -3.981   6.023   1.044  0.00  0.00    +0.049 A 
ATOM      8  C   UNL     1      -3.002   6.074   2.025  0.00  0.00    +0.025 A 
ATOM      9  C   UNL     1      -1.984   7.006   1.922  0.00  0.00    +0.002 A 
ATOM     10  C   UNL     1      -1.939   7.881   0.852  0.00  0.00    +0.002 A 
ATOM     11  C   UNL     1      -2.928   7.849  -0.117  0.00  0.00    +0.025 A 
ATOM     12  C   UNL     1      -3.957   6.931  -0.004  0.00  0.00    +0.052 A 
ATOM     13  N   UNL     1      -5.010   6.875  -0.912  0.00  0.00    -0.316 N 
ATOM     14  C   UNL     1      -5.610   3.520  -2.281  0.00  0.00    +0.163 C 
ATOM     15  O   UNL     1      -5.652   2.366  -1.901  0.00  0.00    -0.292 OA
ATOM     16  C   UNL     1      -5.882   3.817  -3.726  0.00  0.00    +0.088 C 
ATOM     17  H   UNL     1      -5.640   5.065   1.770  0.00  0.00    +0.147 HD
ATOM     18  H   UNL     1      -5.598   7.644  -0.965  0.00  0.00    +0.152 HD
ENDROOT
BRANCH   1  22
ATOM     19  C   UNL     1      -6.021   6.151  -8.155  0.00  0.00    +0.161 A 
ATOM     20  C   UNL     1      -7.038   6.045  -7.220  0.00  0.00    +0.049 A 
ATOM     21  C   UNL     1      -6.744   5.696  -5.915  0.00  0.00    +0.008 A 
ATOM     22  C   UNL     1      -5.434   5.464  -5.537  0.00  0.00    -0.040 A 
ATOM     23  C   UNL     1      -4.415   5.567  -6.465  0.00  0.00    +0.053 A 
ATOM     24  C   UNL     1      -4.704   5.911  -7.776  0.00  0.00    +0.162 A 
BRANCH  19  26
ATOM     25  C   UNL     1      -7.684   6.719  -9.757  0.00  0.00    +0.277 C 
ATOM     26  O   UNL     1      -6.310   6.487  -9.440  0.00  0.00    -0.491 OA
ENDBRANCH  19  26
BRANCH  24  27
ATOM     27  O   UNL     1      -3.702   6.013  -8.690  0.00  0.00    -0.491 OA
ATOM     28  C   UNL     1      -2.375   5.752  -8.230  0.00  0.00    +0.277 C 
ENDBRANCH  24  27
ENDBRANCH   1  22
BRANCH   5  29
ATOM     29  C   UNL     1      -3.719   3.286   0.038  0.00  0.00    -0.023 A 
ATOM     30  C   UNL     1      -3.682   1.933   0.319  0.00  0.00    +0.008 A 
ATOM     31  C   UNL     1      -2.475   1.258   0.309  0.00  0.00    +0.033 A 
ATOM     32  C   UNL     1      -1.306   1.936   0.019  0.00  0.00    +0.126 A 
ATOM     33  C   UNL     1      -1.343   3.291  -0.256  0.00  0.00    +0.033 A 
ATOM     34  C   UNL     1      -2.550   3.964  -0.252  0.00  0.00    +0.008 A 
BRANCH  32  35
ATOM     35  N   UNL     1      -0.015   1.214   0.009  0.00  0.00    +0.056 N 
ATOM     36  O   UNL     1       0.018   0.021   0.256  0.00  0.00    -0.126 OA
ATOM     37  O   UNL     1       1.015   1.810  -0.252  0.00  0.00    -0.126 OA
ENDBRANCH  32  35
ENDBRANCH   5  29
TORSDOF 5
