REMARK  Name = ZINC20905551
REMARK  10 active torsions:
REMARK  status: ('A' for Active; 'I' for Inactive)
REMARK    1  A    between atoms: C_1  and  C_2
REMARK    2  A    between atoms: C_2  and  C_33
REMARK    3  A    between atoms: C_4  and  N_10
REMARK    4  A    between atoms: C_6  and  C_8
REMARK    5  A    between atoms: C_6  and  C_9
REMARK    6  A    between atoms: C_11  and  C_13
REMARK    7  A    between atoms: C_13  and  S_14
REMARK    8  A    between atoms: S_14  and  C_15
REMARK    9  A    between atoms: N_20  and  N_21
REMARK   10  A    between atoms: C_22  and  C_23
REMARK                            x       y       z     vdW  Elec       q    Type
REMARK                         _______ _______ _______ _____ _____    ______ ____
ROOT
ATOM      1  C   UNL     1       3.850  -4.339  -0.391  0.00  0.00    +0.211 A 
ATOM      2  N   UNL     1       2.516  -4.074  -0.259  0.00  0.00    -0.186 NA
ATOM      3  C   UNL     1       2.356  -2.716  -0.238  0.00  0.00    +0.232 A 
ATOM      4  N   UNL     1       3.540  -2.166  -0.356  0.00  0.00    -0.245 N 
ATOM      5  N   UNL     1       4.487  -3.194  -0.448  0.00  0.00    -0.144 NA
ATOM      6  N   UNL     1       1.151  -2.039  -0.118  0.00  0.00    -0.205 N 
ATOM      7  H   UNL     1       0.210  -2.603  -0.029  0.00  0.00    +0.177 HD
ATOM      8  H   UNL     1       3.639  -1.070  -0.368  0.00  0.00    +0.192 HD
ENDROOT
BRANCH   6   9
ATOM      9  N   UNL     1       1.132  -0.638  -0.110  0.00  0.00    -0.188 NA
ATOM     10  C   UNL     1       0.002  -0.004   0.002  0.00  0.00    +0.139 C 
BRANCH  10  11
ATOM     11  C   UNL     1      -0.018   1.466   0.010  0.00  0.00    +0.002 A 
ATOM     12  C   UNL     1      -1.223   2.160   0.017  0.00  0.00    +0.010 A 
ATOM     13  C   UNL     1      -1.238   3.547   0.032  0.00  0.00    +0.001 A 
ATOM     14  C   UNL     1      -0.090   4.279   0.026  0.00  0.00    +0.008 A 
ATOM     15  C   UNL     1       1.164   3.644   0.013  0.00  0.00    -0.017 A 
ATOM     16  C   UNL     1       1.229   2.230   0.004  0.00  0.00    -0.009 A 
ATOM     17  C   UNL     1       2.476   1.594  -0.008  0.00  0.00    +0.009 A 
ATOM     18  C   UNL     1       3.614   2.344  -0.013  0.00  0.00    +0.001 A 
ATOM     19  C   UNL     1       3.554   3.736  -0.005  0.00  0.00    +0.001 A 
ATOM     20  C   UNL     1       2.358   4.386   0.007  0.00  0.00    +0.008 A 
ENDBRANCH  10  11
ENDBRANCH   6   9
BRANCH   1  21
ATOM     21  S   UNL     1       4.584  -5.939  -0.470  0.00  0.00    -0.075 S 
BRANCH  21  22
ATOM     22  C   UNL     1       6.326  -5.476  -0.638  0.00  0.00    +0.173 C 
BRANCH  22  24
ATOM     23  N   UNL     1       8.508  -6.622  -0.856  0.00  0.00    -0.312 N 
ATOM     24  C   UNL     1       7.170  -6.722  -0.726  0.00  0.00    +0.224 C 
ATOM     25  O   UNL     1       6.646  -7.814  -0.680  0.00  0.00    -0.275 OA
ATOM     26  H   UNL     1       8.984  -5.631  -0.898  0.00  0.00    +0.149 HD
BRANCH  23  30
ATOM     27  C   UNL     1      10.952  -9.711  -2.823  0.00  0.00    -0.010 C 
ATOM     28  C   UNL     1      11.514  -8.753  -1.766  0.00  0.00    -0.072 C 
ATOM     29  C   UNL     1      10.629  -7.512  -1.680  0.00  0.00    +0.009 C 
ATOM     30  C   UNL     1       9.330  -7.835  -0.942  0.00  0.00    +0.070 C 
ATOM     31  C   UNL     1       9.678  -8.308   0.469  0.00  0.00    +0.009 C 
ATOM     32  C   UNL     1      10.553  -9.558   0.410  0.00  0.00    -0.072 C 
ATOM     33  N   UNL     1      11.678  -9.419  -0.491  0.00  0.00    +0.386 N 
ATOM     34  C   UNL     1       9.692 -10.770   0.037  0.00  0.00    -0.010 C 
ATOM     35  C   UNL     1      11.103  -9.808   1.832  0.00  0.00    -0.010 C 
ATOM     36  C   UNL     1      12.907  -8.298  -2.256  0.00  0.00    -0.010 C 
ATOM     37  H   UNL     1      12.011 -10.454  -0.658  0.00  0.00    -0.084 HD
ATOM     38  H   UNL     1      12.430  -8.884   0.108  0.00  0.00    -0.084 HD
ENDBRANCH  23  30
ENDBRANCH  22  24
ENDBRANCH  21  22
ENDBRANCH   1  21
TORSDOF 6
