REMARK  Name = ZINC26023135
REMARK  8 active torsions:
REMARK  status: ('A' for Active; 'I' for Inactive)
REMARK    1  A    between atoms: C_1  and  C_2
REMARK    2  A    between atoms: C_5  and  C_9
REMARK    3  A    between atoms: C_7  and  O_8
REMARK    4  A    between atoms: C_9  and  O_11
REMARK    5  A    between atoms: O_11  and  C_12
REMARK    6  A    between atoms: C_12  and  C_13
REMARK    7  A    between atoms: N_15  and  C_16
REMARK    8  A    between atoms: C_17  and  C_24
REMARK                            x       y       z     vdW  Elec       q    Type
REMARK                         _______ _______ _______ _____ _____    ______ ____
ROOT
ATOM      1  C   UNL     1       1.141   2.072   0.002  0.00  0.00    +0.255 C 
ATOM      2  O   UNL     1       2.200   1.480  -0.011  0.00  0.00    -0.272 OA
ATOM      3  N   UNL     1      -0.017   1.382   0.010  0.00  0.00    -0.277 N 
ATOM      4  H   UNL     1      -0.977   1.919   0.022  0.00  0.00    +0.155 HD
ENDROOT
BRANCH   3   5
ATOM      5  C   UNL     1       0.002  -0.004   0.002  0.00  0.00    +0.084 A 
ATOM      6  C   UNL     1      -1.071  -0.879   0.013  0.00  0.00    +0.068 A 
ATOM      7  C   UNL     1      -0.776  -2.312  -0.003  0.00  0.00    -0.023 A 
ATOM      8  C   UNL     1       0.532  -2.626  -0.017  0.00  0.00    -0.004 A 
ATOM      9  S   UNL     1       1.372  -1.061  -0.016  0.00  0.00    -0.077 S 
ATOM     10  C   UNL     1       0.754  -4.114  -0.030  0.00  0.00    +0.043 C 
ATOM     11  C   UNL     1      -0.606  -4.707  -0.459  0.00  0.00    +0.010 C 
ATOM     12  C   UNL     1      -1.586  -3.609  -0.000  0.00  0.00    +0.037 C 
BRANCH   6  13
ATOM     13  C   UNL     1      -2.452  -0.388   0.036  0.00  0.00    +0.244 C 
ATOM     14  O   UNL     1      -3.041  -0.178  -1.008  0.00  0.00    -0.270 OA
ATOM     15  N   UNL     1      -3.069  -0.167   1.214  0.00  0.00    -0.325 N 
ATOM     16  H   UNL     1      -4.105   0.202   1.231  0.00  0.00    +0.145 HD
ATOM     17  H   UNL     1      -2.537  -0.356   2.158  0.00  0.00    +0.145 HD
ENDBRANCH   6  13
ENDBRANCH   3   5
BRANCH   1  18
ATOM     18  C   UNL     1       1.121   3.579   0.011  0.00  0.00    +0.328 C 
BRANCH  18  19
ATOM     19  O   UNL     1       2.483   4.082   0.000  0.00  0.00    -0.452 OA
BRANCH  19  20
ATOM     20  C   UNL     1       2.641   5.419   0.006  0.00  0.00    +0.340 C 
ATOM     21  O   UNL     1       1.668   6.146   0.019  0.00  0.00    -0.245 OA
BRANCH  20  26
ATOM     22  C   UNL     1       7.935   7.681  -0.032  0.00  0.00    +0.047 C 
ATOM     23  C   UNL     1       6.549   7.091  -0.022  0.00  0.00    -0.009 A 
ATOM     24  C   UNL     1       6.385   5.718  -0.028  0.00  0.00    +0.008 A 
ATOM     25  C   UNL     1       5.119   5.169  -0.013  0.00  0.00    +0.015 A 
ATOM     26  C   UNL     1       3.999   6.003  -0.004  0.00  0.00    +0.062 A 
ATOM     27  C   UNL     1       4.166   7.388   0.002  0.00  0.00    +0.060 A 
ATOM     28  C   UNL     1       5.441   7.927  -0.007  0.00  0.00    +0.121 A 
BRANCH  28  29
ATOM     29  O   UNL     1       5.608   9.276  -0.001  0.00  0.00    -0.506 OA
ATOM     30  H   UNL     1       4.731   9.939   0.011  0.00  0.00    +0.292 HD
ENDBRANCH  28  29
ENDBRANCH  20  26
ENDBRANCH  19  20
ENDBRANCH  18  19
ENDBRANCH   1  18
TORSDOF 7
