REMARK  Name = ZINC03840097
REMARK  15 active torsions:
REMARK  status: ('A' for Active; 'I' for Inactive)
REMARK    1  A    between atoms: C_1  and  C_2
REMARK    2  A    between atoms: C_2  and  C_3
REMARK    3  A    between atoms: C_2  and  C_4
REMARK    4  A    between atoms: C_4  and  C_5
REMARK    5  A    between atoms: C_5  and  C_7
REMARK    6  A    between atoms: C_5  and  N_65
REMARK    7  A    between atoms: N_9  and  C_10
REMARK    8  A    between atoms: C_13  and  C_21
REMARK    9  A    between atoms: C_15  and  O_20
REMARK   10  A    between atoms: C_17  and  O_19
REMARK   11  A    between atoms: N_23  and  C_24
REMARK   12  A    between atoms: C_24  and  C_26
REMARK   13  A    between atoms: C_24  and  C_33
REMARK   14  A    between atoms: C_26  and  C_27
REMARK   15  A    between atoms: C_36  and  N_65
REMARK                            x       y       z     vdW  Elec       q    Type
REMARK                         _______ _______ _______ _____ _____    ______ ____
ROOT
ATOM      1  C   UNL     1      -2.005   3.294  -0.155  0.00  0.00    +0.127 C 
ATOM      2  C   UNL     1      -1.673   2.456  -1.356  0.00  0.00    +0.006 C 
ATOM      3  C   UNL     1      -0.807   1.466  -1.340  0.00  0.00    +0.015 C 
ATOM      4  C   UNL     1      -0.033   1.053  -0.122  0.00  0.00    +0.074 C 
ATOM      5  C   UNL     1      -0.687   1.629   1.135  0.00  0.00    +0.149 C 
ATOM      6  C   UNL     1      -0.926   3.128   0.917  0.00  0.00    +0.167 C 
ENDROOT
BRANCH   1   9
ATOM      7  C   UNL     1      -4.439   3.380  -0.121  0.00  0.00    +0.200 C 
ATOM      8  O   UNL     1      -4.395   4.183  -1.029  0.00  0.00    -0.278 OA
ATOM      9  N   UNL     1      -3.299   2.874   0.388  0.00  0.00    -0.308 N 
ATOM     10  H   UNL     1      -3.334   2.232   1.114  0.00  0.00    +0.149 HD
BRANCH   7  11
ATOM     11  C   UNL     1      -5.771   2.948   0.438  0.00  0.00    +0.016 C 
BRANCH  11  13
ATOM     12  C   UNL     1      -6.688   5.024   1.282  0.00  0.00    -0.099 C 
ATOM     13  N   UNL     1      -6.768   4.012   0.212  0.00  0.00    +0.385 N 
ATOM     14  H   UNL     1      -7.708   3.599   0.207  0.00  0.00    -0.085 HD
ATOM     15  H   UNL     1      -6.586   4.460  -0.693  0.00  0.00    -0.085 HD
ENDBRANCH  11  13
BRANCH  11  16
ATOM     16  C   UNL     1      -6.230   1.671  -0.268  0.00  0.00    -0.004 C 
BRANCH  16  18
ATOM     17  C   UNL     1      -8.045  -0.041  -0.399  0.00  0.00    +0.007 C 
ATOM     18  C   UNL     1      -7.518   1.164   0.384  0.00  0.00    -0.018 C 
ATOM     19  C   UNL     1      -7.230   0.747   1.827  0.00  0.00    +0.007 C 
ENDBRANCH  16  18
ENDBRANCH  11  16
ENDBRANCH   7  11
ENDBRANCH   1   9
BRANCH   3  20
ATOM     20  C   UNL     1      -0.585   0.720  -2.588  0.00  0.00    +0.241 C 
ATOM     21  O   UNL     1      -1.194   1.025  -3.595  0.00  0.00    -0.271 OA
ATOM     22  N   UNL     1       0.294  -0.301  -2.615  0.00  0.00    -0.300 N 
ATOM     23  H   UNL     1       0.780  -0.544  -1.812  0.00  0.00    +0.150 HD
BRANCH  22  24
ATOM     24  C   UNL     1       0.516  -1.044  -3.859  0.00  0.00    +0.163 C 
BRANCH  24  25
ATOM     25  C   UNL     1       1.544  -0.327  -4.696  0.00  0.00    +0.231 C 
ATOM     26  O   UNL     1       2.042   0.703  -4.294  0.00  0.00    -0.274 OA
ATOM     27  N   UNL     1       1.909  -0.831  -5.891  0.00  0.00    -0.328 N 
ATOM     28  H   UNL     1       1.510  -1.654  -6.213  0.00  0.00    +0.145 HD
ATOM     29  H   UNL     1       2.570  -0.369  -6.430  0.00  0.00    +0.145 HD
ENDBRANCH  24  25
BRANCH  24  30
ATOM     30  C   UNL     1       1.018  -2.451  -3.529  0.00  0.00    +0.067 C 
BRANCH  30  31
ATOM     31  C   UNL     1      -0.058  -3.211  -2.798  0.00  0.00    -0.045 A 
ATOM     32  C   UNL     1      -0.120  -3.166  -1.417  0.00  0.00    +0.004 A 
ATOM     33  C   UNL     1      -1.110  -3.858  -0.747  0.00  0.00    +0.000 A 
ATOM     34  C   UNL     1      -2.033  -4.604  -1.455  0.00  0.00    +0.000 A 
ATOM     35  C   UNL     1      -1.969  -4.653  -2.835  0.00  0.00    +0.000 A 
ATOM     36  C   UNL     1      -0.982  -3.957  -3.506  0.00  0.00    +0.004 A 
ENDBRANCH  30  31
ENDBRANCH  24  30
ENDBRANCH  22  24
ENDBRANCH   3  20
BRANCH   6  37
ATOM     37  O   UNL     1      -1.366   3.727   2.137  0.00  0.00    -0.387 OA
ATOM     38  H   UNL     1      -0.729   3.658   2.862  0.00  0.00    +0.210 HD
ENDBRANCH   6  37
BRANCH   5  39
ATOM     39  O   UNL     1       0.179   1.442   2.256  0.00  0.00    -0.389 OA
ATOM     40  H   UNL     1       0.387   0.517   2.443  0.00  0.00    +0.210 HD
ENDBRANCH   5  39
TORSDOF 12
