REMARK  Name = ZINC04265187
REMARK  10 active torsions:
REMARK  status: ('A' for Active; 'I' for Inactive)
REMARK    1  A    between atoms: C_1  and  C_2
REMARK    2  A    between atoms: C_2  and  C_31
REMARK    3  A    between atoms: N_3  and  C_4
REMARK    4  A    between atoms: C_8  and  N_10
REMARK    5  A    between atoms: C_11  and  C_12
REMARK    6  A    between atoms: C_11  and  C_13
REMARK    7  A    between atoms: C_14  and  O_30
REMARK    8  A    between atoms: N_21  and  C_24
REMARK    9  A    between atoms: C_32  and  O_48
REMARK   10  A    between atoms: N_39  and  C_42
REMARK                            x       y       z     vdW  Elec       q    Type
REMARK                         _______ _______ _______ _____ _____    ______ ____
ROOT
ATOM      1  C   UNL     1      -2.298   3.997  -2.182  0.00  0.00    +0.066 A 
ATOM      2  C   UNL     1      -1.572   5.191  -2.139  0.00  0.00    +0.028 A 
ATOM      3  C   UNL     1      -2.229   6.404  -2.183  0.00  0.00    +0.004 A 
ATOM      4  C   UNL     1      -3.607   6.449  -2.256  0.00  0.00    +0.028 A 
ATOM      5  C   UNL     1      -4.347   5.263  -2.294  0.00  0.00    +0.066 A 
ATOM      6  C   UNL     1      -3.690   4.034  -2.256  0.00  0.00    +0.055 A 
ENDROOT
BRANCH   1   9
ATOM      7  C   UNL     1      -0.269   3.593  -3.993  0.00  0.00    +0.066 C 
ATOM      8  C   UNL     1      -0.633   2.577  -2.942  0.00  0.00    +0.055 C 
ATOM      9  N   UNL     1      -1.645   2.795  -2.144  0.00  0.00    -0.252 NA
BRANCH   8  10
ATOM     10  C   UNL     1       0.144   1.342  -2.817  0.00  0.00    +0.103 A 
ATOM     11  C   UNL     1      -0.380   0.127  -3.268  0.00  0.00    +0.140 A 
ATOM     12  C   UNL     1       0.441  -1.079  -3.124  0.00  0.00    +0.041 A 
ATOM     13  C   UNL     1      -0.034  -2.321  -3.564  0.00  0.00    +0.013 A 
ATOM     14  C   UNL     1       0.742  -3.436  -3.418  0.00  0.00    +0.001 A 
ATOM     15  C   UNL     1       1.998  -3.347  -2.836  0.00  0.00    +0.002 A 
ATOM     16  C   UNL     1       2.486  -2.136  -2.396  0.00  0.00    +0.027 A 
ATOM     17  C   UNL     1       1.714  -0.986  -2.534  0.00  0.00    +0.061 A 
ATOM     18  N   UNL     1       2.196   0.232  -2.095  0.00  0.00    -0.276 N 
ATOM     19  C   UNL     1       1.476   1.361  -2.213  0.00  0.00    +0.269 A 
ATOM     20  O   UNL     1       1.940   2.414  -1.812  0.00  0.00    -0.266 OA
BRANCH  18  21
ATOM     21  C   UNL     1       3.467   0.292  -1.511  0.00  0.00    +0.050 A 
ATOM     22  C   UNL     1       3.662  -0.173  -0.217  0.00  0.00    +0.026 A 
ATOM     23  C   UNL     1       4.918  -0.118   0.353  0.00  0.00    +0.002 A 
ATOM     24  C   UNL     1       5.980   0.410  -0.358  0.00  0.00    +0.000 A 
ATOM     25  C   UNL     1       5.788   0.880  -1.645  0.00  0.00    +0.002 A 
ATOM     26  C   UNL     1       4.535   0.822  -2.223  0.00  0.00    +0.026 A 
ENDBRANCH  18  21
BRANCH  11  27
ATOM     27  O   UNL     1      -1.608   0.066  -3.826  0.00  0.00    -0.505 OA
ATOM     28  H   UNL     1      -2.029   0.928  -3.945  0.00  0.00    +0.292 HD
ENDBRANCH  11  27
ENDBRANCH   8  10
ENDBRANCH   1   9
BRANCH   5  29
ATOM     29  N   UNL     1      -5.713   5.309  -2.367  0.00  0.00    -0.252 NA
ATOM     30  C   UNL     1      -6.381   6.132  -1.603  0.00  0.00    +0.055 C 
ATOM     31  C   UNL     1      -5.648   7.031  -0.641  0.00  0.00    +0.066 C 
BRANCH  30  32
ATOM     32  C   UNL     1      -7.842   6.181  -1.682  0.00  0.00    +0.103 A 
ATOM     33  C   UNL     1      -8.617   5.172  -1.105  0.00  0.00    +0.140 A 
ATOM     34  C   UNL     1     -10.076   5.272  -1.208  0.00  0.00    +0.041 A 
ATOM     35  C   UNL     1     -10.899   4.290  -0.642  0.00  0.00    +0.013 A 
ATOM     36  C   UNL     1     -12.256   4.395  -0.752  0.00  0.00    +0.001 A 
ATOM     37  C   UNL     1     -12.827   5.469  -1.421  0.00  0.00    +0.002 A 
ATOM     38  C   UNL     1     -12.037   6.447  -1.984  0.00  0.00    +0.027 A 
ATOM     39  C   UNL     1     -10.651   6.362  -1.886  0.00  0.00    +0.061 A 
ATOM     40  N   UNL     1      -9.852   7.337  -2.449  0.00  0.00    -0.276 N 
ATOM     41  C   UNL     1      -8.511   7.285  -2.372  0.00  0.00    +0.269 A 
ATOM     42  O   UNL     1      -7.845   8.166  -2.884  0.00  0.00    -0.266 OA
BRANCH  40  43
ATOM     43  C   UNL     1     -10.455   8.410  -3.118  0.00  0.00    +0.050 A 
ATOM     44  C   UNL     1     -10.914   8.249  -4.418  0.00  0.00    +0.026 A 
ATOM     45  C   UNL     1     -11.513   9.308  -5.073  0.00  0.00    +0.002 A 
ATOM     46  C   UNL     1     -11.646  10.529  -4.439  0.00  0.00    +0.000 A 
ATOM     47  C   UNL     1     -11.184  10.694  -3.145  0.00  0.00    +0.002 A 
ATOM     48  C   UNL     1     -10.590   9.638  -2.483  0.00  0.00    +0.026 A 
ENDBRANCH  40  43
BRANCH  33  49
ATOM     49  O   UNL     1      -8.038   4.134  -0.465  0.00  0.00    -0.505 OA
ATOM     50  H   UNL     1      -7.077   4.208  -0.385  0.00  0.00    +0.292 HD
ENDBRANCH  33  49
ENDBRANCH  30  32
ENDBRANCH   5  29
TORSDOF 8
