REMARK  Name = ZINC06166500
REMARK  7 active torsions:
REMARK  status: ('A' for Active; 'I' for Inactive)
REMARK    1  A    between atoms: C_1  and  C_2
REMARK    2  A    between atoms: N_13  and  C_16
REMARK    3  A    between atoms: C_16  and  C_18
REMARK    4  A    between atoms: C_16  and  C_19
REMARK    5  A    between atoms: N_21  and  N_22
REMARK    6  A    between atoms: N_30  and  C_33
REMARK    7  A    between atoms: C_33  and  C_34
REMARK                            x       y       z     vdW  Elec       q    Type
REMARK                         _______ _______ _______ _____ _____    ______ ____
ROOT
ATOM      1  C   UNL     1      -4.071  -0.086   0.019  0.00  0.00    +0.255 C 
ATOM      2  O   UNL     1      -4.960   0.738   0.027  0.00  0.00    -0.272 OA
ATOM      3  N   UNL     1      -2.783   0.312   0.016  0.00  0.00    -0.205 N 
ATOM      4  H   UNL     1      -2.071  -0.347   0.010  0.00  0.00    +0.177 HD
ENDROOT
BRANCH   3   5
ATOM      5  N   UNL     1      -2.472   1.679   0.021  0.00  0.00    -0.174 NA
ATOM      6  C   UNL     1      -1.220   2.066   0.018  0.00  0.00    +0.153 C 
ATOM      7  C   UNL     1      -0.705   3.455   0.026  0.00  0.00    +0.028 A 
ATOM      8  C   UNL     1      -1.325   4.700   0.037  0.00  0.00    +0.012 A 
ATOM      9  C   UNL     1      -0.556   5.847   0.036  0.00  0.00    +0.001 A 
ATOM     10  C   UNL     1       0.825   5.757   0.022  0.00  0.00    +0.002 A 
ATOM     11  C   UNL     1       1.449   4.526   0.011  0.00  0.00    +0.024 A 
ATOM     12  C   UNL     1       0.692   3.359   0.013  0.00  0.00    +0.046 A 
ATOM     13  N   UNL     1       1.061   2.018   0.003  0.00  0.00    -0.261 N 
ATOM     14  C   UNL     1      -0.014   1.213   0.009  0.00  0.00    +0.272 C 
ATOM     15  O   UNL     1       0.002  -0.004   0.002  0.00  0.00    -0.268 OA
BRANCH  13  16
ATOM     16  C   UNL     1       2.447   1.544  -0.013  0.00  0.00    +0.149 C 
BRANCH  16  17
ATOM     17  C   UNL     1       2.909   1.388  -1.438  0.00  0.00    -0.030 A 
ATOM     18  C   UNL     1       2.738   0.182  -2.092  0.00  0.00    +0.005 A 
ATOM     19  C   UNL     1       3.159   0.041  -3.402  0.00  0.00    +0.000 A 
ATOM     20  C   UNL     1       3.757   1.102  -4.054  0.00  0.00    +0.000 A 
ATOM     21  C   UNL     1       3.932   2.307  -3.399  0.00  0.00    +0.000 A 
ATOM     22  C   UNL     1       3.508   2.450  -2.091  0.00  0.00    +0.005 A 
ENDBRANCH  16  17
ENDBRANCH  13  16
ENDBRANCH   3   5
BRANCH   1  23
ATOM     23  C   UNL     1      -4.405  -1.555   0.013  0.00  0.00    +0.176 C 
ATOM     24  C   UNL     1      -3.809  -2.219   1.257  0.00  0.00    +0.041 C 
BRANCH  23  36
ATOM     25  C   UNL     1     -11.475  -5.178  -4.660  0.00  0.00    +0.008 C 
ATOM     26  C   UNL     1     -10.458  -4.779  -3.588  0.00  0.00    -0.009 C 
ATOM     27  C   UNL     1      -9.284  -4.045  -4.242  0.00  0.00    +0.008 C 
ATOM     28  C   UNL     1      -8.155  -3.862  -3.228  0.00  0.00    +0.037 C 
ATOM     29  C   UNL     1      -8.723  -3.208  -1.971  0.00  0.00    -0.023 A 
ATOM     30  C   UNL     1     -10.051  -3.224  -1.726  0.00  0.00    -0.004 A 
ATOM     31  S   UNL     1     -10.244  -2.363  -0.189  0.00  0.00    -0.073 S 
ATOM     32  C   UNL     1      -8.538  -1.984   0.120  0.00  0.00    +0.116 A 
ATOM     33  C   UNL     1      -7.875  -2.540  -0.985  0.00  0.00    +0.076 A 
ATOM     34  C   UNL     1      -6.451  -2.375  -1.002  0.00  0.00    +0.263 A 
ATOM     35  O   UNL     1      -5.787  -2.819  -1.922  0.00  0.00    -0.267 OA
ATOM     36  N   UNL     1      -5.860  -1.725   0.018  0.00  0.00    -0.287 N 
ATOM     37  C   UNL     1      -6.585  -1.220   1.049  0.00  0.00    +0.204 A 
ATOM     38  N   UNL     1      -7.884  -1.350   1.090  0.00  0.00    -0.230 NA
ATOM     39  C   UNL     1     -11.123  -3.839  -2.573  0.00  0.00    +0.046 C 
ENDBRANCH  23  36
ENDBRANCH   1  23
TORSDOF 5
