REMARK  Name = ZINC16958767
REMARK  10 active torsions:
REMARK  status: ('A' for Active; 'I' for Inactive)
REMARK    1  A    between atoms: C_1  and  C_2
REMARK    2  A    between atoms: C_4  and  C_24
REMARK    3  A    between atoms: C_13  and  N_65
REMARK    4  A    between atoms: C_15  and  N_65
REMARK    5  A    between atoms: C_26  and  O_34
REMARK    6  A    between atoms: C_27  and  O_32
REMARK    7  A    between atoms: C_28  and  O_30
REMARK    8  A    between atoms: O_30  and  C_31
REMARK    9  A    between atoms: O_32  and  C_33
REMARK   10  A    between atoms: O_34  and  C_35
REMARK                            x       y       z     vdW  Elec       q    Type
REMARK                         _______ _______ _______ _____ _____    ______ ____
ROOT
ATOM      1  C   UNL     1      -0.764   1.598  -1.223  0.00  0.00    +0.010 C 
ATOM      2  C   UNL     1      -0.013   1.086   0.008  0.00  0.00    +0.020 C 
ATOM      3  C   UNL     1      -0.703   1.585   1.280  0.00  0.00    +0.057 C 
ATOM      4  C   UNL     1       0.187   1.338   2.472  0.00  0.00    +0.006 A 
ATOM      5  C   UNL     1      -0.375   1.367   3.739  0.00  0.00    +0.057 A 
ATOM      6  C   UNL     1       0.410   1.156   4.858  0.00  0.00    +0.167 A 
ATOM      7  C   UNL     1       1.773   0.909   4.710  0.00  0.00    +0.170 A 
ATOM      8  C   UNL     1       2.332   0.877   3.445  0.00  0.00    +0.095 A 
ATOM      9  C   UNL     1       1.540   1.090   2.322  0.00  0.00    +0.126 A 
ATOM     10  O   UNL     1       2.128   1.045   1.098  0.00  0.00    -0.506 OA
ATOM     11  C   UNL     1       1.424   1.623  -0.003  0.00  0.00    +0.125 C 
ATOM     12  O   UNL     1       2.322   0.736   5.948  0.00  0.00    -0.452 OA
ATOM     13  C   UNL     1       1.363   1.282   6.874  0.00  0.00    +0.466 C 
ATOM     14  O   UNL     1       0.105   1.136   6.189  0.00  0.00    -0.453 OA
ENDROOT
BRANCH   3  15
ATOM     15  C   UNL     1      -2.005   0.851   1.465  0.00  0.00    -0.032 A 
ATOM     16  C   UNL     1      -2.008  -0.526   1.595  0.00  0.00    +0.054 A 
ATOM     17  C   UNL     1      -3.204  -1.205   1.771  0.00  0.00    +0.165 A 
ATOM     18  C   UNL     1      -4.402  -0.501   1.806  0.00  0.00    +0.204 A 
ATOM     19  C   UNL     1      -4.396   0.882   1.670  0.00  0.00    +0.165 A 
ATOM     20  C   UNL     1      -3.195   1.554   1.499  0.00  0.00    +0.054 A 
BRANCH  19  21
ATOM     21  O   UNL     1      -5.565   1.575   1.704  0.00  0.00    -0.491 OA
ATOM     22  C   UNL     1      -5.483   2.994   1.558  0.00  0.00    +0.277 C 
ENDBRANCH  19  21
BRANCH  18  23
ATOM     23  O   UNL     1      -5.578  -1.165   1.974  0.00  0.00    -0.488 OA
ATOM     24  C   UNL     1      -6.250  -1.605   0.792  0.00  0.00    +0.277 C 
ENDBRANCH  18  23
BRANCH  17  25
ATOM     25  O   UNL     1      -3.205  -2.558   1.904  0.00  0.00    -0.491 OA
ATOM     26  C   UNL     1      -1.937  -3.216   1.858  0.00  0.00    +0.277 C 
ENDBRANCH  17  25
ENDBRANCH   3  15
BRANCH  11  27
ATOM     27  N   UNL     1       2.080   1.241  -1.268  0.00  0.00    +0.405 N 
ATOM     28  H   UNL     1       1.365   1.094  -1.989  0.00  0.00    -0.080 HD
ATOM     29  H   UNL     1       2.608   0.371  -1.127  0.00  0.00    -0.080 HD
BRANCH  27  30
ATOM     30  C   UNL     1       3.004   2.304  -1.707  0.00  0.00    -0.067 C 
ATOM     31  C   UNL     1       2.228   3.358  -2.500  0.00  0.00    -0.016 C 
ATOM     32  C   UNL     1       3.188   4.456  -2.963  0.00  0.00    -0.002 C 
ATOM     33  C   UNL     1       4.272   3.845  -3.852  0.00  0.00    -0.000 C 
ATOM     34  C   UNL     1       5.047   2.791  -3.059  0.00  0.00    -0.002 C 
ATOM     35  C   UNL     1       4.088   1.692  -2.596  0.00  0.00    -0.016 C 
ENDBRANCH  27  30
ENDBRANCH  11  27
TORSDOF 6
