REMARK  Name = ZINC19616828
REMARK  5 active torsions:
REMARK  status: ('A' for Active; 'I' for Inactive)
REMARK    1  A    between atoms: C_4  and  N_7
REMARK    2  A    between atoms: C_16  and  C_18
REMARK    3  A    between atoms: N_20  and  N_21
REMARK    4  A    between atoms: C_22  and  C_24
REMARK    5  A    between atoms: C_27  and  C_29
REMARK                            x       y       z     vdW  Elec       q    Type
REMARK                         _______ _______ _______ _____ _____    ______ ____
ROOT
ATOM      1  C   UNL     1       2.333   4.387  -0.270  0.00  0.00    +0.281 C 
ATOM      2  O   UNL     1       3.422   3.848  -0.295  0.00  0.00    -0.267 OA
ATOM      3  N   UNL     1       2.241   5.727  -0.377  0.00  0.00    -0.229 N 
ATOM      4  H   UNL     1       1.256   6.215  -0.355  0.00  0.00    +0.173 HD
ENDROOT
BRANCH   1  14
ATOM      5  N   UNL     1      -1.175   3.514   0.031  0.00  0.00    -0.196 N 
ATOM      6  C   UNL     1      -1.256   2.173   0.144  0.00  0.00    +0.280 A 
ATOM      7  O   UNL     1      -2.336   1.622   0.255  0.00  0.00    -0.265 OA
ATOM      8  C   UNL     1      -0.012   1.392   0.135  0.00  0.00    +0.051 A 
ATOM      9  C   UNL     1       0.011   0.006   0.250  0.00  0.00    +0.014 A 
ATOM     10  C   UNL     1       1.222  -0.654   0.226  0.00  0.00    +0.001 A 
ATOM     11  C   UNL     1       2.411   0.050   0.089  0.00  0.00    +0.001 A 
ATOM     12  C   UNL     1       2.409   1.424  -0.027  0.00  0.00    +0.011 A 
ATOM     13  C   UNL     1       1.199   2.109  -0.004  0.00  0.00    +0.020 A 
ATOM     14  C   UNL     1       1.110   3.573  -0.122  0.00  0.00    +0.155 A 
ATOM     15  N   UNL     1      -0.069   4.147  -0.094  0.00  0.00    -0.158 NA
BRANCH   5  19
ATOM     16  C   UNL     1      -4.711   5.716   0.076  0.00  0.00    +0.000 A 
ATOM     17  C   UNL     1      -4.479   4.763   1.051  0.00  0.00    +0.002 A 
ATOM     18  C   UNL     1      -3.308   4.031   1.039  0.00  0.00    +0.028 A 
ATOM     19  C   UNL     1      -2.362   4.254   0.046  0.00  0.00    +0.069 A 
ATOM     20  C   UNL     1      -2.595   5.216  -0.928  0.00  0.00    +0.028 A 
ATOM     21  C   UNL     1      -3.771   5.940  -0.914  0.00  0.00    +0.002 A 
ENDBRANCH   5  19
ENDBRANCH   1  14
BRANCH   3  22
ATOM     22  N   UNL     1       3.402   6.499  -0.518  0.00  0.00    -0.230 N 
ATOM     23  C   UNL     1       3.311   7.840  -0.625  0.00  0.00    +0.267 C 
ATOM     24  O   UNL     1       2.220   8.380  -0.600  0.00  0.00    -0.268 OA
ATOM     25  H   UNL     1       4.388   6.012  -0.540  0.00  0.00    +0.173 HD
BRANCH  23  26
ATOM     26  C   UNL     1       4.524   8.647  -0.771  0.00  0.00    +0.076 A 
ATOM     27  C   UNL     1       4.645  10.023  -0.901  0.00  0.00    +0.021 A 
ATOM     28  C   UNL     1       5.895  10.563  -1.022  0.00  0.00    +0.017 A 
ATOM     29  C   UNL     1       6.990   9.715  -1.022  0.00  0.00    +0.020 A 
ATOM     30  S   UNL     1       6.226   8.112  -0.837  0.00  0.00    -0.084 S 
BRANCH  29  31
ATOM     31  C   UNL     1       8.424  10.051  -1.143  0.00  0.00    -0.011 A 
ATOM     32  C   UNL     1       8.822  11.381  -1.287  0.00  0.00    +0.012 A 
ATOM     33  C   UNL     1      10.162  11.690  -1.395  0.00  0.00    +0.039 A 
ATOM     34  C   UNL     1      11.112  10.681  -1.372  0.00  0.00    +0.123 A 
ATOM     35  C   UNL     1      10.722   9.358  -1.235  0.00  0.00    +0.039 A 
ATOM     36  C   UNL     1       9.385   9.039  -1.121  0.00  0.00    +0.012 A 
ATOM     37  F   UNL     1      12.423  10.988  -1.484  0.00  0.00    -0.205 F 
ENDBRANCH  29  31
ENDBRANCH  23  26
ENDBRANCH   3  22
TORSDOF 5
