REMARK  Name = ZINC39324981
REMARK  10 active torsions:
REMARK  status: ('A' for Active; 'I' for Inactive)
REMARK    1  A    between atoms: C_1  and  O_2
REMARK    2  A    between atoms: O_2  and  C_3
REMARK    3  A    between atoms: C_3  and  C_5
REMARK    4  A    between atoms: C_9  and  S_11
REMARK    5  A    between atoms: S_11  and  N_14
REMARK    6  A    between atoms: N_14  and  C_15
REMARK    7  A    between atoms: N_14  and  C_23
REMARK    8  A    between atoms: C_15  and  C_16
REMARK    9  A    between atoms: C_16  and  C_17
REMARK   10  A    between atoms: C_23  and  C_24
REMARK                            x       y       z     vdW  Elec       q    Type
REMARK                         _______ _______ _______ _____ _____    ______ ____
ROOT
ATOM      1  N   UNL     1      -4.196  -5.330   1.427  0.00  0.00    -0.175 NA
ENDROOT
BRANCH   1   2
ATOM      2  S   UNL     1      -3.581  -5.144  -0.099  0.00  0.00    +0.061 S 
ATOM      3  O   UNL     1      -4.513  -4.349  -0.818  0.00  0.00    -0.153 OA
ATOM      4  O   UNL     1      -3.185  -6.437  -0.537  0.00  0.00    -0.153 OA
BRANCH   2   9
ATOM      5  C   UNL     1      -1.013  -2.055   0.178  0.00  0.00    +0.061 A 
ATOM      6  C   UNL     1       0.223  -2.700   0.271  0.00  0.00    +0.015 A 
ATOM      7  C   UNL     1       0.281  -4.078   0.250  0.00  0.00    +0.003 A 
ATOM      8  C   UNL     1      -0.881  -4.821   0.138  0.00  0.00    +0.028 A 
ATOM      9  C   UNL     1      -2.108  -4.188   0.045  0.00  0.00    +0.106 A 
ATOM     10  C   UNL     1      -2.181  -2.811   0.070  0.00  0.00    +0.043 A 
BRANCH   5  11
ATOM     11  C   UNL     1      -1.083  -0.579   0.199  0.00  0.00    +0.339 C 
ATOM     12  O   UNL     1      -2.159  -0.021   0.123  0.00  0.00    -0.245 OA
BRANCH  11  14
ATOM     13  C   UNL     1      -0.095   1.569   0.317  0.00  0.00    +0.280 C 
ATOM     14  O   UNL     1       0.047   0.147   0.303  0.00  0.00    -0.464 OA
ENDBRANCH  11  14
ENDBRANCH   5  11
ENDBRANCH   2   9
ENDBRANCH   1   2
BRANCH   1  15
ATOM     15  C   UNL     1      -5.018  -4.271   2.019  0.00  0.00    +0.114 C 
BRANCH  15  16
ATOM     16  C   UNL     1      -6.497  -4.581   1.781  0.00  0.00    +0.052 C 
BRANCH  16  17
ATOM     17  C   UNL     1      -7.342  -3.492   2.390  0.00  0.00    -0.046 A 
ATOM     18  C   UNL     1      -7.764  -3.597   3.702  0.00  0.00    +0.003 A 
ATOM     19  C   UNL     1      -8.540  -2.599   4.261  0.00  0.00    +0.000 A 
ATOM     20  C   UNL     1      -8.893  -1.495   3.508  0.00  0.00    +0.000 A 
ATOM     21  C   UNL     1      -8.470  -1.389   2.196  0.00  0.00    +0.000 A 
ATOM     22  C   UNL     1      -7.691  -2.385   1.639  0.00  0.00    +0.003 A 
ENDBRANCH  16  17
ENDBRANCH  15  16
ENDBRANCH   1  15
BRANCH   1  23
ATOM     23  C   UNL     1      -3.918  -6.552   2.186  0.00  0.00    +0.126 C 
BRANCH  23  24
ATOM     24  C   UNL     1      -3.154  -6.197   3.463  0.00  0.00    +0.114 C 
ATOM     25  C   UNL     1      -2.926  -7.479   4.240  0.00  0.00    -0.003 C 
ATOM     26  C   UNL     1      -1.640  -7.817   4.525  0.00  0.00    -0.003 A 
ATOM     27  C   UNL     1      -1.336  -9.039   5.272  0.00  0.00    +0.059 A 
ATOM     28  C   UNL     1      -0.041  -9.347   5.542  0.00  0.00    +0.167 A 
ATOM     29  C   UNL     1       1.014  -8.512   5.114  0.00  0.00    +0.168 A 
ATOM     30  C   UNL     1       0.780  -7.352   4.407  0.00  0.00    +0.073 A 
ATOM     31  C   UNL     1      -0.525  -6.957   4.086  0.00  0.00    +0.044 A 
ATOM     32  N   UNL     1      -0.730  -5.830   3.401  0.00  0.00    -0.284 N 
ATOM     33  C   UNL     1      -1.933  -5.399   3.066  0.00  0.00    +0.225 C 
ATOM     34  O   UNL     1      -2.057  -4.362   2.441  0.00  0.00    -0.275 OA
ATOM     35  O   UNL     1       2.190  -9.069   5.523  0.00  0.00    -0.453 OA
ATOM     36  C   UNL     1       1.837 -10.011   6.552  0.00  0.00    +0.466 C 
ATOM     37  O   UNL     1       0.497 -10.411   6.213  0.00  0.00    -0.453 OA
ATOM     38  H   UNL     1       0.040  -5.303   3.137  0.00  0.00    +0.155 HD
ENDBRANCH  23  24
ENDBRANCH   1  23
TORSDOF 9
