REMARK  Name = ZINC16425910
REMARK  8 active torsions:
REMARK  status: ('A' for Active; 'I' for Inactive)
REMARK    1  A    between atoms: C_1  and  C_2
REMARK    2  A    between atoms: C_2  and  O_3
REMARK    3  A    between atoms: O_3  and  C_4
REMARK    4  A    between atoms: C_7  and  N_10
REMARK    5  A    between atoms: N_10  and  S_11
REMARK    6  A    between atoms: S_11  and  C_14
REMARK    7  A    between atoms: C_27  and  C_30
REMARK    8  A    between atoms: C_34  and  N_36
REMARK                            x       y       z     vdW  Elec       q    Type
REMARK                         _______ _______ _______ _____ _____    ______ ____
ROOT
ATOM      1  C   UNL     1       0.117  -0.026  -4.938  0.00  0.00    +0.109 A 
ATOM      2  C   UNL     1       1.440  -0.406  -5.077  0.00  0.00    +0.030 A 
ATOM      3  C   UNL     1       2.309  -0.294  -4.011  0.00  0.00    +0.025 A 
ATOM      4  C   UNL     1       1.863   0.200  -2.792  0.00  0.00    +0.031 A 
ATOM      5  C   UNL     1       0.526   0.595  -2.662  0.00  0.00    -0.018 A 
ATOM      6  C   UNL     1      -0.336   0.472  -3.731  0.00  0.00    +0.034 A 
ATOM      7  C   UNL     1       0.100   1.144  -1.357  0.00  0.00    +0.049 C 
ATOM      8  C   UNL     1      -1.311   1.045  -0.904  0.00  0.00    -0.023 C 
ATOM      9  C   UNL     1      -1.325   0.952   0.420  0.00  0.00    -0.030 C 
ATOM     10  C   UNL     1       0.130   0.943   0.976  0.00  0.00    +0.033 C 
ATOM     11  C   UNL     1       0.887   0.395  -0.241  0.00  0.00    +0.029 C 
ATOM     12  C   UNL     1       2.333   0.825  -0.408  0.00  0.00    +0.105 C 
ATOM     13  N   UNL     1       2.759   0.291  -1.720  0.00  0.00    -0.336 N 
ATOM     14  H   UNL     1       3.676  -0.001  -1.840  0.00  0.00    +0.147 HD
ENDROOT
BRANCH  12  15
ATOM     15  C   UNL     1       3.181   0.240   0.692  0.00  0.00    -0.025 A 
ATOM     16  C   UNL     1       3.604  -1.074   0.614  0.00  0.00    +0.005 A 
ATOM     17  C   UNL     1       4.386  -1.609   1.621  0.00  0.00    +0.003 A 
ATOM     18  C   UNL     1       4.736  -0.834   2.711  0.00  0.00    +0.033 A 
ATOM     19  C   UNL     1       4.309   0.478   2.791  0.00  0.00    +0.127 A 
ATOM     20  C   UNL     1       3.531   1.016   1.781  0.00  0.00    +0.038 A 
BRANCH  19  21
ATOM     21  N   UNL     1       4.683   1.309   3.958  0.00  0.00    +0.056 N 
ATOM     22  O   UNL     1       4.307   2.465   4.028  0.00  0.00    -0.126 OA
ATOM     23  O   UNL     1       5.368   0.836   4.847  0.00  0.00    -0.126 OA
ENDBRANCH  19  21
ENDBRANCH  12  15
BRANCH   1  24
ATOM     24  S   UNL     1      -0.991  -0.178  -6.300  0.00  0.00    +0.072 S 
ATOM     25  O   UNL     1      -0.391  -1.088  -7.212  0.00  0.00    -0.150 OA
ATOM     26  O   UNL     1      -2.284  -0.392  -5.750  0.00  0.00    -0.150 OA
BRANCH  24  27
ATOM     27  N   UNL     1      -1.037   1.293  -7.060  0.00  0.00    -0.216 N 
ATOM     28  H   UNL     1      -1.866   1.796  -7.092  0.00  0.00    +0.174 HD
BRANCH  27  32
ATOM     29  C   UNL     1       2.406   2.832  -8.834  0.00  0.00    +0.121 A 
ATOM     30  C   UNL     1       1.723   1.787  -9.439  0.00  0.00    +0.047 A 
ATOM     31  C   UNL     1       0.582   1.277  -8.852  0.00  0.00    +0.028 A 
ATOM     32  C   UNL     1       0.119   1.809  -7.655  0.00  0.00    +0.048 A 
ATOM     33  C   UNL     1       0.801   2.858  -7.053  0.00  0.00    +0.028 A 
ATOM     34  C   UNL     1       1.945   3.364  -7.639  0.00  0.00    +0.047 A 
BRANCH  29  35
ATOM     35  O   UNL     1       3.530   3.334  -9.413  0.00  0.00    -0.492 OA
BRANCH  35  37
ATOM     36  C   UNL     1       5.418   4.838  -9.531  0.00  0.00    +0.048 C 
ATOM     37  C   UNL     1       4.184   4.409  -8.736  0.00  0.00    +0.225 C 
ENDBRANCH  35  37
ENDBRANCH  29  35
ENDBRANCH  27  32
ENDBRANCH  24  27
ENDBRANCH   1  24
TORSDOF 7
