REMARK  Name = ZINC34909932
REMARK  15 active torsions:
REMARK  status: ('A' for Active; 'I' for Inactive)
REMARK    1  A    between atoms: C_1  and  C_2
REMARK    2  A    between atoms: C_2  and  S_3
REMARK    3  A    between atoms: S_3  and  N_6
REMARK    4  A    between atoms: N_6  and  C_7
REMARK    5  A    between atoms: N_6  and  C_11
REMARK    6  A    between atoms: C_7  and  C_8
REMARK    7  A    between atoms: C_8  and  C_9
REMARK    8  A    between atoms: C_8  and  C_10
REMARK    9  A    between atoms: C_11  and  C_12
REMARK   10  A    between atoms: N_14  and  C_15
REMARK   11  A    between atoms: N_14  and  C_23
REMARK   12  A    between atoms: C_15  and  C_16
REMARK   13  A    between atoms: C_19  and  C_22
REMARK   14  A    between atoms: C_29  and  C_31
REMARK   15  A    between atoms: C_34  and  C_37
REMARK                            x       y       z     vdW  Elec       q    Type
REMARK                         _______ _______ _______ _____ _____    ______ ____
ROOT
ATOM      1  C   UNL     1      -1.002  -2.857   1.158  0.00  0.00    +0.232 C 
ATOM      2  O   UNL     1      -0.036  -2.942   1.887  0.00  0.00    -0.274 OA
ATOM      3  N   UNL     1      -2.205  -3.294   1.581  0.00  0.00    -0.293 N 
ENDROOT
BRANCH   3   4
ATOM      4  C   UNL     1      -2.374  -3.753   2.962  0.00  0.00    +0.079 C 
ATOM      5  C   UNL     1      -1.932  -2.648   3.924  0.00  0.00    +0.041 C 
ATOM      6  C   UNL     1      -2.142  -3.119   5.367  0.00  0.00    +0.110 C 
ATOM      7  N   UNL     1      -1.443  -4.398   5.554  0.00  0.00    -0.297 N 
ATOM      8  C   UNL     1      -1.727  -5.500   4.625  0.00  0.00    +0.110 C 
ATOM      9  C   UNL     1      -1.522  -5.003   3.191  0.00  0.00    +0.041 C 
ATOM     10  C   UNL     1      -0.558  -4.556   6.557  0.00  0.00    +0.247 C 
ATOM     11  O   UNL     1       0.097  -5.577   6.635  0.00  0.00    -0.270 OA
BRANCH  10  12
ATOM     12  C   UNL     1      -0.383  -3.487   7.564  0.00  0.00    +0.037 A 
ATOM     13  C   UNL     1      -1.484  -2.753   8.006  0.00  0.00    +0.013 A 
ATOM     14  C   UNL     1      -1.314  -1.757   8.945  0.00  0.00    +0.004 A 
ATOM     15  C   UNL     1      -0.054  -1.485   9.449  0.00  0.00    -0.050 A 
ATOM     16  C   UNL     1       1.042  -2.209   9.014  0.00  0.00    +0.004 A 
ATOM     17  C   UNL     1       0.885  -3.211   8.080  0.00  0.00    +0.013 A 
ATOM     18  C   UNL     1       0.125  -0.396  10.475  0.00  0.00    +0.044 C 
ENDBRANCH  10  12
ENDBRANCH   3   4
BRANCH   1  19
ATOM     19  C   UNL     1      -0.857  -2.264  -0.220  0.00  0.00    +0.204 C 
BRANCH  19  20
ATOM     20  N   UNL     1       0.506  -1.757  -0.392  0.00  0.00    -0.172 NA
BRANCH  20  21
ATOM     21  S   UNL     1       1.658  -2.706  -1.110  0.00  0.00    +0.032 S 
ATOM     22  O   UNL     1       2.590  -1.788  -1.665  0.00  0.00    -0.158 OA
ATOM     23  O   UNL     1       0.927  -3.591  -1.948  0.00  0.00    -0.158 OA
BRANCH  21  25
ATOM     24  C   UNL     1       3.514  -4.544  -0.298  0.00  0.00    +0.029 C 
ATOM     25  C   UNL     1       2.423  -3.625   0.254  0.00  0.00    +0.182 C 
ENDBRANCH  21  25
ENDBRANCH  20  21
BRANCH  20  26
ATOM     26  C   UNL     1       0.851  -0.411   0.071  0.00  0.00    +0.112 C 
BRANCH  26  27
ATOM     27  C   UNL     1       0.492   0.609  -1.012  0.00  0.00    -0.001 C 
ATOM     28  C   UNL     1       0.736   2.023  -0.482  0.00  0.00    +0.008 C 
ATOM     29  C   UNL     1       1.364   0.370  -2.246  0.00  0.00    +0.008 C 
ENDBRANCH  26  27
ENDBRANCH  20  26
ENDBRANCH  19  20
ENDBRANCH   1  19
BRANCH   3  30
ATOM     30  C   UNL     1      -3.344  -3.309   0.659  0.00  0.00    +0.143 C 
BRANCH  30  31
ATOM     31  C   UNL     1      -3.494  -4.687   0.069  0.00  0.00    -0.030 A 
ATOM     32  C   UNL     1      -2.765  -5.043  -1.051  0.00  0.00    +0.005 A 
ATOM     33  C   UNL     1      -2.903  -6.307  -1.593  0.00  0.00    +0.003 A 
ATOM     34  C   UNL     1      -3.768  -7.216  -1.015  0.00  0.00    -0.050 A 
ATOM     35  C   UNL     1      -4.496  -6.861   0.106  0.00  0.00    +0.003 A 
ATOM     36  C   UNL     1      -4.356  -5.598   0.650  0.00  0.00    +0.005 A 
ATOM     37  C   UNL     1      -3.919  -8.594  -1.606  0.00  0.00    +0.044 C 
ENDBRANCH  30  31
ENDBRANCH   3  30
TORSDOF 10
