REMARK  Name = ZINC59114970
REMARK  12 active torsions:
REMARK  status: ('A' for Active; 'I' for Inactive)
REMARK    1  A    between atoms: C_1  and  C_2
REMARK    2  A    between atoms: C_2  and  C_22
REMARK    3  A    between atoms: C_4  and  N_11
REMARK    4  A    between atoms: C_7  and  C_9
REMARK    5  A    between atoms: C_7  and  C_10
REMARK    6  A    between atoms: N_11  and  C_12
REMARK    7  A    between atoms: C_12  and  N_14
REMARK    8  A    between atoms: N_14  and  C_15
REMARK    9  A    between atoms: C_22  and  N_23
REMARK   10  A    between atoms: N_23  and  C_24
REMARK   11  A    between atoms: C_24  and  N_26
REMARK   12  A    between atoms: N_26  and  C_27
REMARK                            x       y       z     vdW  Elec       q    Type
REMARK                         _______ _______ _______ _____ _____    ______ ____
ROOT
ATOM      1  C   UNL     1      -0.019   1.526   0.010  0.00  0.00    +0.013 C 
ATOM      2  C   UNL     1       0.002  -0.004   0.002  0.00  0.00    -0.014 C 
ATOM      3  C   UNL     1       0.558  -0.534  -1.310  0.00  0.00    +0.030 C 
ATOM      4  C   UNL     1       2.071  -0.442  -1.408  0.00  0.00    +0.073 C 
ATOM      5  C   UNL     1       2.755  -1.081  -0.212  0.00  0.00    +0.028 C 
ATOM      6  C   UNL     1       2.241  -0.579   1.126  0.00  0.00    -0.033 C 
ATOM      7  C   UNL     1       0.728  -0.551   1.216  0.00  0.00    +0.014 C 
ATOM      8  C   UNL     1       2.838   0.792   1.459  0.00  0.00    +0.011 C 
ATOM      9  C   UNL     1       2.751  -1.561   2.211  0.00  0.00    +0.011 C 
ENDROOT
BRANCH   4  10
ATOM     10  N   UNL     1       2.527   0.925  -1.637  0.00  0.00    -0.324 N 
ATOM     11  H   UNL     1       1.976   1.673  -1.358  0.00  0.00    +0.148 HD
BRANCH  10  12
ATOM     12  C   UNL     1       3.713   1.148  -2.235  0.00  0.00    +0.131 C 
ATOM     13  S   UNL     1       4.686  -0.173  -2.727  0.00  0.00    -0.019 S 
BRANCH  12  14
ATOM     14  N   UNL     1       4.135   2.410  -2.447  0.00  0.00    -0.324 N 
ATOM     15  H   UNL     1       3.584   3.159  -2.168  0.00  0.00    +0.148 HD
BRANCH  14  16
ATOM     16  C   UNL     1       5.425   2.653  -3.097  0.00  0.00    +0.072 C 
ATOM     17  C   UNL     1       6.545   2.537  -2.044  0.00  0.00    +0.022 C 
ATOM     18  C   UNL     1       7.845   2.275  -2.755  0.00  0.00    +0.002 C 
ATOM     19  C   UNL     1       8.635   3.567  -3.035  0.00  0.00    +0.000 C 
ATOM     20  C   UNL     1       7.737   4.724  -3.514  0.00  0.00    +0.000 C 
ATOM     21  C   UNL     1       6.694   4.274  -4.501  0.00  0.00    +0.002 C 
ATOM     22  C   UNL     1       5.394   3.962  -3.732  0.00  0.00    +0.022 C 
ENDBRANCH  14  16
ENDBRANCH  12  14
ENDBRANCH  10  12
ENDBRANCH   4  10
BRANCH   2  23
ATOM     23  C   UNL     1      -1.472  -0.471   0.095  0.00  0.00    +0.110 C 
BRANCH  23  24
ATOM     24  N   UNL     1      -2.222   0.046  -1.052  0.00  0.00    -0.326 N 
ATOM     25  H   UNL     1      -1.774   0.591  -1.719  0.00  0.00    +0.148 HD
BRANCH  24  26
ATOM     26  C   UNL     1      -3.533  -0.234  -1.183  0.00  0.00    +0.130 C 
ATOM     27  S   UNL     1      -4.324  -1.195  -0.007  0.00  0.00    -0.019 S 
BRANCH  26  28
ATOM     28  N   UNL     1      -4.223   0.241  -2.239  0.00  0.00    -0.324 N 
ATOM     29  H   UNL     1      -3.775   0.786  -2.905  0.00  0.00    +0.148 HD
BRANCH  28  30
ATOM     30  C   UNL     1      -5.649  -0.064  -2.380  0.00  0.00    +0.072 C 
ATOM     31  C   UNL     1      -5.800  -1.464  -3.009  0.00  0.00    +0.022 C 
ATOM     32  C   UNL     1      -7.176  -1.984  -2.693  0.00  0.00    +0.002 C 
ATOM     33  C   UNL     1      -8.191  -1.685  -3.812  0.00  0.00    +0.000 C 
ATOM     34  C   UNL     1      -8.040  -0.266  -4.393  0.00  0.00    +0.000 C 
ATOM     35  C   UNL     1      -7.797   0.769  -3.328  0.00  0.00    +0.002 C 
ATOM     36  C   UNL     1      -6.276   0.976  -3.183  0.00  0.00    +0.022 C 
ENDBRANCH  28  30
ENDBRANCH  26  28
ENDBRANCH  24  26
ENDBRANCH  23  24
ENDBRANCH   2  23
TORSDOF 9
