REMARK  Name = ZINC04222334
REMARK  13 active torsions:
REMARK  status: ('A' for Active; 'I' for Inactive)
REMARK    1  A    between atoms: C_1  and  C_2
REMARK    2  A    between atoms: C_5  and  O_41
REMARK    3  A    between atoms: C_7  and  C_38
REMARK    4  A    between atoms: C_7  and  C_39
REMARK    5  A    between atoms: C_17  and  C_19
REMARK    6  A    between atoms: C_22  and  C_25
REMARK    7  A    between atoms: C_25  and  C_26
REMARK    8  A    between atoms: C_25  and  C_27
REMARK    9  A    between atoms: C_25  and  C_28
REMARK   10  A    between atoms: C_29  and  C_31
REMARK   11  A    between atoms: C_31  and  C_32
REMARK   12  A    between atoms: N_34  and  C_35
REMARK   13  A    between atoms: C_39  and  O_40
REMARK                            x       y       z     vdW  Elec       q    Type
REMARK                         _______ _______ _______ _____ _____    ______ ____
ROOT
ATOM      1  C   UNL     1       0.615  -0.869  -1.426  0.00  0.00    +0.012 C 
ATOM      2  C   UNL     1      -0.031  -0.309  -2.695  0.00  0.00    -0.019 C 
ATOM      3  C   UNL     1      -1.425  -0.920  -2.875  0.00  0.00    +0.010 C 
ATOM      4  C   UNL     1      -2.333  -0.524  -1.713  0.00  0.00    +0.032 C 
ATOM      5  C   UNL     1      -2.465   1.002  -1.688  0.00  0.00    +0.123 C 
ATOM      6  C   UNL     1      -1.082   1.610  -1.461  0.00  0.00    +0.021 C 
ATOM      7  C   UNL     1      -0.133   1.215  -2.597  0.00  0.00    +0.011 C 
ATOM      8  C   UNL     1       1.255   1.789  -2.251  0.00  0.00    +0.049 C 
ATOM      9  C   UNL     1       2.276   1.149  -3.123  0.00  0.00    +0.015 A 
ATOM     10  C   UNL     1       2.135   0.035  -3.886  0.00  0.00    +0.058 A 
ATOM     11  N   UNL     1       3.209  -0.337  -4.579  0.00  0.00    -0.229 NA
ATOM     12  C   UNL     1       4.341   0.334  -4.533  0.00  0.00    +0.165 A 
ATOM     13  S   UNL     1       3.955   1.625  -3.435  0.00  0.00    -0.057 S 
ATOM     14  N   UNL     1       5.537   0.076  -5.191  0.00  0.00    -0.261 N 
ATOM     15  C   UNL     1       6.595   0.890  -5.010  0.00  0.00    +0.250 C 
ATOM     16  O   UNL     1       6.504   1.851  -4.270  0.00  0.00    -0.270 OA
ATOM     17  C   UNL     1       0.807  -0.706  -3.917  0.00  0.00    +0.054 C 
ATOM     18  C   UNL     1      -1.202   3.135  -1.414  0.00  0.00    +0.016 C 
ATOM     19  H   UNL     1       5.610  -0.691  -5.781  0.00  0.00    +0.157 HD
ENDROOT
BRANCH  15  20
ATOM     20  C   UNL     1       7.867   0.616  -5.711  0.00  0.00    +0.037 A 
ATOM     21  C   UNL     1       7.978  -0.490  -6.556  0.00  0.00    +0.013 A 
ATOM     22  C   UNL     1       9.166  -0.737  -7.211  0.00  0.00    +0.005 A 
ATOM     23  C   UNL     1      10.251   0.101  -7.023  0.00  0.00    -0.042 A 
ATOM     24  C   UNL     1      10.150   1.195  -6.182  0.00  0.00    +0.005 A 
ATOM     25  C   UNL     1       8.966   1.457  -5.525  0.00  0.00    +0.013 A 
BRANCH  23  26
ATOM     26  C   UNL     1      11.548  -0.179  -7.737  0.00  0.00    -0.013 C 
ATOM     27  C   UNL     1      12.660  -0.397  -6.708  0.00  0.00    +0.015 C 
ATOM     28  C   UNL     1      11.396  -1.436  -8.597  0.00  0.00    +0.015 C 
ATOM     29  C   UNL     1      11.906   1.010  -8.630  0.00  0.00    +0.015 C 
ENDBRANCH  23  26
ENDBRANCH  15  20
BRANCH   5  30
ATOM     30  O   UNL     1      -3.339   1.390  -0.627  0.00  0.00    -0.391 OA
ATOM     31  H   UNL     1      -4.236   1.038  -0.708  0.00  0.00    +0.210 HD
ENDBRANCH   5  30
BRANCH  17  32
ATOM     32  C   UNL     1       1.064  -2.214  -3.891  0.00  0.00    +0.106 C 
BRANCH  32  33
ATOM     33  C   UNL     1       1.713  -2.636  -5.184  0.00  0.00    +0.214 C 
ATOM     34  O   UNL     1       1.947  -1.811  -6.042  0.00  0.00    -0.276 OA
ATOM     35  N   UNL     1       2.033  -3.929  -5.387  0.00  0.00    -0.312 N 
ATOM     36  H   UNL     1       1.846  -4.588  -4.700  0.00  0.00    +0.149 HD
BRANCH  35  37
ATOM     37  C   UNL     1       2.664  -4.339  -6.644  0.00  0.00    +0.073 C 
ATOM     38  C   UNL     1       2.149  -5.617  -7.309  0.00  0.00    +0.024 C 
ATOM     39  C   UNL     1       3.517  -5.609  -6.625  0.00  0.00    +0.024 C 
ENDBRANCH  35  37
ENDBRANCH  32  33
ENDBRANCH  17  32
BRANCH   6  40
ATOM     40  C   UNL     1      -0.519   1.105  -0.132  0.00  0.00    +0.165 C 
BRANCH  40  41
ATOM     41  O   UNL     1      -1.302   1.623   0.945  0.00  0.00    -0.394 OA
ATOM     42  H   UNL     1      -1.001   1.343   1.821  0.00  0.00    +0.209 HD
ENDBRANCH  40  41
ENDBRANCH   6  40
TORSDOF 8
