REMARK  Name = ZINC23468521
REMARK  4 active torsions:
REMARK  status: ('A' for Active; 'I' for Inactive)
REMARK    1  A    between atoms: C_11  and  C_13
REMARK    2  A    between atoms: C_13  and  N_14
REMARK    3  A    between atoms: N_17  and  C_20
REMARK    4  A    between atoms: C_20  and  C_21
REMARK                            x       y       z     vdW  Elec       q    Type
REMARK                         _______ _______ _______ _____ _____    ______ ____
ROOT
ATOM      1  N   UNL     1       8.127   0.464   3.038  0.00  0.00    +0.386 N 
ATOM      2  C   UNL     1       8.463   0.832   1.656  0.00  0.00    -0.063 C 
ATOM      3  C   UNL     1       9.402   2.040   1.663  0.00  0.00    +0.066 C 
ATOM      4  N   UNL     1      10.623   1.704   2.409  0.00  0.00    -0.299 NA
ATOM      5  C   UNL     1      10.300   1.309   3.788  0.00  0.00    +0.066 C 
ATOM      6  C   UNL     1       9.354   0.107   3.763  0.00  0.00    -0.063 C 
ATOM      7  H   UNL     1       7.682   1.246   3.495  0.00  0.00    -0.081 HD
ENDROOT
BRANCH   1   8
ATOM      8  C   UNL     1       7.212  -0.685   3.029  0.00  0.00    -0.003 C 
BRANCH   8  19
ATOM      9  C   UNL     1      -0.019   1.540   0.011  0.00  0.00    +0.010 C 
ATOM     10  C   UNL     1       1.486   1.874  -0.002  0.00  0.00    +0.037 C 
ATOM     11  C   UNL     1       2.179   0.669   0.640  0.00  0.00    -0.023 A 
ATOM     12  C   UNL     1       1.323  -0.367   0.624  0.00  0.00    -0.004 A 
ATOM     13  S   UNL     1       2.214  -1.707   1.381  0.00  0.00    -0.075 S 
ATOM     14  C   UNL     1       3.733  -0.860   1.718  0.00  0.00    +0.092 A 
ATOM     15  C   UNL     1       3.502   0.427   1.234  0.00  0.00    +0.075 A 
ATOM     16  C   UNL     1       4.630   1.373   1.387  0.00  0.00    +0.282 A 
ATOM     17  O   UNL     1       4.532   2.526   0.997  0.00  0.00    -0.265 OA
ATOM     18  N   UNL     1       5.762   0.941   1.964  0.00  0.00    -0.197 NA
ATOM     19  C   UNL     1       5.906  -0.282   2.394  0.00  0.00    +0.095 A 
ATOM     20  N   UNL     1       4.921  -1.196   2.286  0.00  0.00    -0.339 N 
ATOM     21  C   UNL     1       0.002  -0.004   0.002  0.00  0.00    +0.043 C 
ATOM     22  H   UNL     1       5.061  -2.098   2.616  0.00  0.00    +0.167 HD
ENDBRANCH   8  19
ENDBRANCH   1   8
BRANCH   4  23
ATOM     23  C   UNL     1      11.576   2.821   2.391  0.00  0.00    +0.158 C 
BRANCH  23  24
ATOM     24  C   UNL     1      12.899   2.362   2.946  0.00  0.00    +0.125 A 
ATOM     25  N   UNL     1      13.930   3.243   3.027  0.00  0.00    -0.309 N 
ATOM     26  H   UNL     1      13.799   4.156   2.727  0.00  0.00    +0.170 HD
ATOM     27  C   UNL     1      15.129   2.874   3.516  0.00  0.00    +0.260 A 
ATOM     28  O   UNL     1      16.045   3.676   3.583  0.00  0.00    -0.267 OA
ATOM     29  C   UNL     1      15.308   1.523   3.956  0.00  0.00    +0.075 A 
ATOM     30  C   UNL     1      16.518   0.906   4.519  0.00  0.00    -0.023 A 
ATOM     31  C   UNL     1      16.436  -0.392   4.859  0.00  0.00    -0.004 A 
ATOM     32  S   UNL     1      14.769  -0.867   4.461  0.00  0.00    -0.073 S 
ATOM     33  C   UNL     1      14.190   0.688   3.834  0.00  0.00    +0.116 A 
ATOM     34  N   UNL     1      13.033   1.125   3.345  0.00  0.00    -0.225 NA
ATOM     35  C   UNL     1      17.732  -0.916   5.418  0.00  0.00    +0.043 C 
ATOM     36  C   UNL     1      18.789   0.124   4.987  0.00  0.00    +0.010 C 
ATOM     37  C   UNL     1      17.933   1.397   4.839  0.00  0.00    +0.037 C 
ENDBRANCH  23  24
ENDBRANCH   4  23
TORSDOF 4
