REMARK  Name = ZINC09350084
REMARK  8 active torsions:
REMARK  status: ('A' for Active; 'I' for Inactive)
REMARK    1  A    between atoms: C_1  and  C_2
REMARK    2  A    between atoms: C_2  and  C_3
REMARK    3  A    between atoms: C_3  and  C_4
REMARK    4  A    between atoms: C_4  and  O_5
REMARK    5  A    between atoms: O_5  and  C_6
REMARK    6  A    between atoms: C_6  and  C_8
REMARK    7  A    between atoms: C_9  and  N_29
REMARK    8  A    between atoms: C_13  and  C_17
REMARK                            x       y       z     vdW  Elec       q    Type
REMARK                         _______ _______ _______ _____ _____    ______ ____
ROOT
ATOM      1  C   UNL     1      -4.202  -4.451  -0.009  0.00  0.00    +0.117 C 
ATOM      2  C   UNL     1      -4.339  -5.799  -0.086  0.00  0.00    +0.198 C 
ATOM      3  O   UNL     1      -5.528  -6.431  -0.061  0.00  0.00    -0.424 OA
ATOM      4  C   UNL     1      -6.649  -5.685  -0.225  0.00  0.00    +0.223 A 
ATOM      5  C   UNL     1      -6.642  -4.318  -0.153  0.00  0.00    +0.061 A 
ATOM      6  C   UNL     1      -7.939  -3.871  -0.366  0.00  0.00    +0.068 A 
ATOM      7  N   UNL     1      -8.705  -4.918  -0.559  0.00  0.00    -0.176 NA
ATOM      8  N   UNL     1      -7.910  -6.072  -0.474  0.00  0.00    -0.246 N 
ATOM      9  H   UNL     1      -8.217  -6.986  -0.577  0.00  0.00    +0.192 HD
ATOM     10  C   UNL     1      -8.388  -2.433  -0.373  0.00  0.00    +0.068 C 
ATOM     11  C   UNL     1      -5.388  -3.535   0.119  0.00  0.00    +0.142 C 
ATOM     12  C   UNL     1      -5.429  -2.885   1.465  0.00  0.00    -0.001 A 
ATOM     13  C   UNL     1      -5.528  -3.413   2.734  0.00  0.00    +0.022 A 
ATOM     14  C   UNL     1      -5.540  -2.511   3.794  0.00  0.00    +0.018 A 
ATOM     15  C   UNL     1      -5.458  -1.149   3.580  0.00  0.00    +0.017 A 
ATOM     16  C   UNL     1      -5.358  -0.612   2.306  0.00  0.00    +0.025 A 
ATOM     17  C   UNL     1      -5.343  -1.506   1.235  0.00  0.00    +0.038 A 
ATOM     18  N   UNL     1      -5.251  -1.249  -0.122  0.00  0.00    -0.284 N 
ATOM     19  C   UNL     1      -5.269  -2.383  -0.854  0.00  0.00    +0.237 C 
ATOM     20  O   UNL     1      -5.202  -2.464  -2.062  0.00  0.00    -0.274 OA
ATOM     21 BR   UNL     1      -5.675  -3.164   5.564  0.00  0.00    -0.050 Br
ATOM     22  H   UNL     1      -5.182  -0.359  -0.503  0.00  0.00    +0.155 HD
ENDROOT
BRANCH   2  23
ATOM     23  N   UNL     1      -3.205  -6.559  -0.194  0.00  0.00    -0.329 N 
ATOM     24  H   UNL     1      -2.332  -6.141  -0.122  0.00  0.00    +0.145 HD
ATOM     25  H   UNL     1      -3.274  -7.515  -0.343  0.00  0.00    +0.145 HD
ENDBRANCH   2  23
BRANCH   1  26
ATOM     26  C   UNL     1      -2.915  -3.896  -0.045  0.00  0.00    +0.342 C 
ATOM     27  O   UNL     1      -2.377  -3.535   0.987  0.00  0.00    -0.245 OA
BRANCH  26  28
ATOM     28  O   UNL     1      -2.270  -3.760  -1.225  0.00  0.00    -0.461 OA
BRANCH  28  29
ATOM     29  C   UNL     1      -0.962  -3.186  -1.188  0.00  0.00    +0.232 C 
BRANCH  29  30
ATOM     30  C   UNL     1      -0.396  -3.114  -2.607  0.00  0.00    +0.041 C 
BRANCH  30  32
ATOM     31  C   UNL     1       1.571  -2.428  -3.987  0.00  0.00    +0.004 C 
ATOM     32  C   UNL     1       1.005  -2.500  -2.567  0.00  0.00    -0.000 C 
ENDBRANCH  30  32
ENDBRANCH  29  30
ENDBRANCH  28  29
ENDBRANCH  26  28
ENDBRANCH   1  26
TORSDOF 6
