REMARK  Name = ZINC59170507
REMARK  8 active torsions:
REMARK  status: ('A' for Active; 'I' for Inactive)
REMARK    1  A    between atoms: C_1  and  C_2
REMARK    2  A    between atoms: C_9  and  C_23
REMARK    3  A    between atoms: N_11  and  C_12
REMARK    4  A    between atoms: C_15  and  S_18
REMARK    5  A    between atoms: S_18  and  N_21
REMARK    6  A    between atoms: N_25  and  C_26
REMARK    7  A    between atoms: C_30  and  O_32
REMARK    8  A    between atoms: O_32  and  C_33
REMARK                            x       y       z     vdW  Elec       q    Type
REMARK                         _______ _______ _______ _____ _____    ______ ____
ROOT
ATOM      1  C   UNL     1      -1.227   1.304  -0.006  0.00  0.00    +0.044 C 
ATOM      2  C   UNL     1      -0.690  -0.103  -0.064  0.00  0.00    -0.050 A 
ATOM      3  C   UNL     1       0.188  -0.463  -1.076  0.00  0.00    +0.007 A 
ATOM      4  C   UNL     1       0.689  -1.747  -1.149  0.00  0.00    +0.047 A 
ATOM      5  C   UNL     1       0.314  -2.688  -0.202  0.00  0.00    +0.137 A 
ATOM      6  C   UNL     1      -0.574  -2.320   0.826  0.00  0.00    +0.018 A 
ATOM      7  C   UNL     1      -1.069  -1.012   0.883  0.00  0.00    +0.015 A 
ATOM      8  C   UNL     1      -0.961  -3.313   1.831  0.00  0.00    +0.030 A 
ATOM      9  C   UNL     1      -0.226  -4.491   1.880  0.00  0.00    +0.098 A 
ATOM     10  C   UNL     1       0.880  -4.635   0.912  0.00  0.00    +0.212 A 
ATOM     11  N   UNL     1       1.917  -5.399   1.177  0.00  0.00    -0.325 N 
ATOM     12  O   UNL     1       0.792  -3.955  -0.260  0.00  0.00    -0.439 OA
ATOM     13  H   UNL     1       2.055  -5.735   2.076  0.00  0.00    +0.169 HD
ENDROOT
BRANCH  11  14
ATOM     14  C   UNL     1       2.802  -5.719   0.184  0.00  0.00    +0.042 A 
ATOM     15  C   UNL     1       2.335  -6.113  -1.072  0.00  0.00    +0.027 A 
ATOM     16  C   UNL     1       3.233  -6.434  -2.069  0.00  0.00    +0.030 A 
ATOM     17  C   UNL     1       4.593  -6.366  -1.827  0.00  0.00    +0.105 A 
ATOM     18  C   UNL     1       5.063  -5.976  -0.585  0.00  0.00    +0.030 A 
ATOM     19  C   UNL     1       4.177  -5.647   0.419  0.00  0.00    +0.027 A 
BRANCH  17  20
ATOM     20  S   UNL     1       5.733  -6.779  -3.105  0.00  0.00    +0.056 S 
ATOM     21  O   UNL     1       6.942  -7.162  -2.464  0.00  0.00    -0.153 OA
ATOM     22  O   UNL     1       5.043  -7.637  -4.003  0.00  0.00    -0.153 OA
BRANCH  20  23
ATOM     23  N   UNL     1       6.060  -5.386  -3.939  0.00  0.00    -0.204 NA
ATOM     24  H   UNL     1       5.638  -4.553  -3.675  0.00  0.00    +0.144 HD
ATOM     25  H   UNL     1       6.673  -5.402  -4.690  0.00  0.00    +0.144 HD
ENDBRANCH  20  23
ENDBRANCH  17  20
ENDBRANCH  11  14
BRANCH   9  26
ATOM     26  C   UNL     1      -0.536  -5.550   2.855  0.00  0.00    +0.253 C 
ATOM     27  O   UNL     1      -1.373  -5.358   3.716  0.00  0.00    -0.270 OA
ATOM     28  N   UNL     1       0.108  -6.733   2.793  0.00  0.00    -0.281 N 
ATOM     29  H   UNL     1       0.798  -6.875   2.127  0.00  0.00    +0.155 HD
BRANCH  28  30
ATOM     30  C   UNL     1      -0.221  -7.755   3.688  0.00  0.00    +0.037 A 
ATOM     31  C   UNL     1      -0.670  -7.443   4.966  0.00  0.00    +0.023 A 
ATOM     32  C   UNL     1      -0.995  -8.453   5.850  0.00  0.00    +0.005 A 
ATOM     33  C   UNL     1      -0.873  -9.776   5.468  0.00  0.00    +0.046 A 
ATOM     34  C   UNL     1      -0.424 -10.093   4.194  0.00  0.00    +0.122 A 
ATOM     35  C   UNL     1      -0.103  -9.082   3.301  0.00  0.00    +0.069 A 
BRANCH  34  36
ATOM     36  O   UNL     1      -0.305 -11.394   3.819  0.00  0.00    -0.495 OA
ATOM     37  C   UNL     1      -0.660 -12.383   4.788  0.00  0.00    +0.277 C 
ENDBRANCH  34  36
ENDBRANCH  28  30
ENDBRANCH   9  26
TORSDOF 6
