REMARK  Name = ZINC14477448
REMARK  3 active torsions:
REMARK  status: ('A' for Active; 'I' for Inactive)
REMARK    1  A    between atoms: C_4  and  O_7
REMARK    2  A    between atoms: O_7  and  C_8
REMARK    3  A    between atoms: C_21  and  C_24
REMARK                            x       y       z     vdW  Elec       q    Type
REMARK                         _______ _______ _______ _____ _____    ______ ____
ROOT
ATOM      1  C   UNL     1       1.757   4.889   0.256  0.00  0.00    +0.129 A 
ATOM      2  C   UNL     1       2.779   3.951   0.238  0.00  0.00    +0.048 A 
ATOM      3  C   UNL     1       4.093   4.371   0.297  0.00  0.00    +0.027 A 
ATOM      4  C   UNL     1       4.387   5.728   0.375  0.00  0.00    +0.032 A 
ATOM      5  C   UNL     1       3.373   6.668   0.397  0.00  0.00    -0.016 A 
ATOM      6  C   UNL     1       2.054   6.240   0.330  0.00  0.00    +0.052 A 
ATOM      7  C   UNL     1       3.631   8.147   0.488  0.00  0.00    +0.049 C 
ATOM      8  C   UNL     1       2.951   8.652   1.754  0.00  0.00    -0.023 C 
ATOM      9  C   UNL     1       3.811   8.717   2.740  0.00  0.00    -0.030 C 
ATOM     10  C   UNL     1       5.186   8.270   2.276  0.00  0.00    +0.033 C 
ATOM     11  C   UNL     1       5.115   8.470   0.744  0.00  0.00    +0.029 C 
ATOM     12  C   UNL     1       6.042   7.508   0.025  0.00  0.00    +0.106 C 
ATOM     13  N   UNL     1       5.729   6.133   0.429  0.00  0.00    -0.336 N 
ATOM     14  H   UNL     1       6.425   5.524   0.722  0.00  0.00    +0.147 HD
ENDROOT
BRANCH  12  15
ATOM     15  C   UNL     1       5.857   7.650  -1.464  0.00  0.00    -0.009 A 
ATOM     16  C   UNL     1       5.101   6.723  -2.157  0.00  0.00    +0.008 A 
ATOM     17  C   UNL     1       4.931   6.852  -3.522  0.00  0.00    +0.020 A 
ATOM     18  C   UNL     1       5.516   7.909  -4.196  0.00  0.00    +0.042 A 
ATOM     19  C   UNL     1       6.272   8.837  -3.503  0.00  0.00    +0.040 A 
ATOM     20  C   UNL     1       6.438   8.710  -2.135  0.00  0.00    +0.047 A 
ATOM     21 CL   UNL     1       7.380   9.878  -1.263  0.00  0.00    -0.083 Cl
ATOM     22 CL   UNL     1       5.301   8.072  -5.911  0.00  0.00    -0.083 Cl
ENDBRANCH  12  15
BRANCH   1  23
ATOM     23  O   UNL     1       0.461   4.481   0.196  0.00  0.00    -0.456 OA
BRANCH  23  27
ATOM     24  C   UNL     1      -0.301   0.429   0.313  0.00  0.00    +0.000 A 
ATOM     25  C   UNL     1       0.020   1.105   1.476  0.00  0.00    +0.004 A 
ATOM     26  C   UNL     1       0.276   2.462   1.439  0.00  0.00    +0.046 A 
ATOM     27  C   UNL     1       0.209   3.147   0.234  0.00  0.00    +0.128 A 
ATOM     28  C   UNL     1      -0.113   2.466  -0.931  0.00  0.00    +0.046 A 
ATOM     29  C   UNL     1      -0.368   1.109  -0.889  0.00  0.00    +0.004 A 
ENDBRANCH  23  27
ENDBRANCH   1  23
TORSDOF 3
