REMARK  Name = ZINC09886420
REMARK  10 active torsions:
REMARK  status: ('A' for Active; 'I' for Inactive)
REMARK    1  A    between atoms: C_1  and  C_2
REMARK    2  A    between atoms: C_2  and  C_3
REMARK    3  A    between atoms: C_2  and  C_4
REMARK    4  A    between atoms: C_4  and  C_6
REMARK    5  A    between atoms: C_4  and  N_28
REMARK    6  A    between atoms: N_8  and  N_9
REMARK    7  A    between atoms: C_10  and  C_11
REMARK    8  A    between atoms: N_13  and  C_20
REMARK    9  A    between atoms: C_20  and  C_21
REMARK   10  A    between atoms: C_29  and  C_31
REMARK                            x       y       z     vdW  Elec       q    Type
REMARK                         _______ _______ _______ _____ _____    ______ ____
ROOT
ATOM      1  C   UNL     1       4.081  -4.606  -0.512  0.00  0.00    +0.253 C 
ATOM      2  O   UNL     1       4.609  -3.748  -1.187  0.00  0.00    -0.272 OA
ATOM      3  N   UNL     1       4.478  -5.890  -0.623  0.00  0.00    -0.205 N 
ATOM      4  H   UNL     1       4.025  -6.583  -0.118  0.00  0.00    +0.177 HD
ENDROOT
BRANCH   3   5
ATOM      5  N   UNL     1       5.546  -6.222  -1.467  0.00  0.00    -0.188 NA
ATOM      6  C   UNL     1       5.864  -7.468  -1.652  0.00  0.00    +0.140 C 
BRANCH   6   7
ATOM      7  C   UNL     1       4.982  -8.535  -1.151  0.00  0.00    +0.020 A 
ATOM      8  C   UNL     1       3.656  -8.427  -0.865  0.00  0.00    +0.096 A 
ATOM      9  N   UNL     1       3.182  -9.626  -0.425  0.00  0.00    -0.342 N 
ATOM     10  C   UNL     1       4.193 -10.563  -0.410  0.00  0.00    +0.050 A 
ATOM     11  C   UNL     1       5.361  -9.930  -0.867  0.00  0.00    +0.009 A 
ATOM     12  C   UNL     1       6.555 -10.644  -0.950  0.00  0.00    +0.010 A 
ATOM     13  C   UNL     1       6.580 -11.974  -0.593  0.00  0.00    +0.001 A 
ATOM     14  C   UNL     1       5.426 -12.602  -0.147  0.00  0.00    +0.002 A 
ATOM     15  C   UNL     1       4.240 -11.907  -0.054  0.00  0.00    +0.026 A 
BRANCH   9  16
ATOM     16  C   UNL     1       1.796  -9.883  -0.025  0.00  0.00    +0.159 C 
BRANCH  16  17
ATOM     17  C   UNL     1       1.069 -10.573  -1.150  0.00  0.00    +0.007 A 
ATOM     18  C   UNL     1       0.865 -11.939  -1.106  0.00  0.00    +0.008 A 
ATOM     19  C   UNL     1       0.197 -12.573  -2.138  0.00  0.00    +0.000 A 
ATOM     20  C   UNL     1      -0.268 -11.840  -3.214  0.00  0.00    +0.003 A 
ATOM     21  C   UNL     1      -0.066 -10.474  -3.260  0.00  0.00    +0.039 A 
ATOM     22  C   UNL     1       0.599  -9.838  -2.225  0.00  0.00    +0.128 A 
ATOM     23  F   UNL     1       0.793  -8.502  -2.267  0.00  0.00    -0.205 F 
ENDBRANCH  16  17
ENDBRANCH   9  16
ENDBRANCH   6   7
ENDBRANCH   3   5
BRANCH   1  24
ATOM     24  C   UNL     1       2.981  -4.238   0.450  0.00  0.00    +0.163 C 
BRANCH  24  25
ATOM     25  N   UNL     1       2.519  -2.878   0.165  0.00  0.00    -0.300 N 
ATOM     26  C   UNL     1       1.270  -2.505   0.509  0.00  0.00    +0.245 C 
ATOM     27  O   UNL     1       0.527  -3.297   1.055  0.00  0.00    -0.270 OA
ATOM     28  H   UNL     1       3.112  -2.245  -0.270  0.00  0.00    +0.150 HD
BRANCH  26  29
ATOM     29  C   UNL     1       0.804  -1.132   0.222  0.00  0.00    +0.037 A 
ATOM     30  C   UNL     1      -0.489  -0.742   0.577  0.00  0.00    +0.014 A 
ATOM     31  C   UNL     1      -0.919   0.540   0.306  0.00  0.00    +0.021 A 
ATOM     32  C   UNL     1      -0.070   1.441  -0.316  0.00  0.00    +0.041 A 
ATOM     33  C   UNL     1       1.214   1.060  -0.670  0.00  0.00    +0.021 A 
ATOM     34  C   UNL     1       1.655  -0.219  -0.405  0.00  0.00    +0.014 A 
ATOM     35 CL   UNL     1      -0.618   3.053  -0.654  0.00  0.00    -0.084 Cl
ENDBRANCH  26  29
ENDBRANCH  24  25
BRANCH  24  37
ATOM     36  C   UNL     1       2.383  -3.980   2.862  0.00  0.00    +0.009 C 
ATOM     37  C   UNL     1       3.512  -4.308   1.883  0.00  0.00    +0.012 C 
ATOM     38  C   UNL     1       4.038  -5.717   2.164  0.00  0.00    +0.009 C 
ENDBRANCH  24  37
ENDBRANCH   1  24
TORSDOF 8
