REMARK  Name = ZINC39691316
REMARK  11 active torsions:
REMARK  status: ('A' for Active; 'I' for Inactive)
REMARK    1  A    between atoms: C_1  and  C_2
REMARK    2  A    between atoms: C_2  and  C_3
REMARK    3  A    between atoms: C_3  and  C_4
REMARK    4  A    between atoms: C_4  and  C_6
REMARK    5  A    between atoms: C_4  and  C_7
REMARK    6  A    between atoms: C_11  and  C_20
REMARK    7  A    between atoms: N_22  and  C_23
REMARK    8  A    between atoms: C_23  and  C_24
REMARK    9  A    between atoms: C_24  and  N_25
REMARK   10  A    between atoms: C_26  and  C_28
REMARK   11  A    between atoms: C_28  and  C_29
REMARK                            x       y       z     vdW  Elec       q    Type
REMARK                         _______ _______ _______ _____ _____    ______ ____
ROOT
ATOM      1  C   UNL     1      -0.910  -5.295  -3.511  0.00  0.00    +0.218 C 
ATOM      2  O   UNL     1      -1.278  -4.146  -3.390  0.00  0.00    -0.275 OA
ATOM      3  N   UNL     1      -1.707  -6.198  -4.117  0.00  0.00    -0.314 N 
ATOM      4  H   UNL     1      -1.413  -7.117  -4.213  0.00  0.00    +0.149 HD
ENDROOT
BRANCH   1   9
ATOM      5  C   UNL     1       1.777  -2.439  -2.209  0.00  0.00    +0.218 C 
ATOM      6  O   UNL     1       2.457  -1.707  -2.897  0.00  0.00    -0.275 OA
ATOM      7  N   UNL     1       1.728  -3.760  -2.475  0.00  0.00    -0.300 N 
ATOM      8  C   UNL     1       0.876  -4.785  -1.829  0.00  0.00    +0.121 C 
ATOM      9  C   UNL     1       0.438  -5.714  -2.984  0.00  0.00    +0.100 C 
ATOM     10  C   UNL     1       1.518  -5.532  -4.064  0.00  0.00    -0.004 C 
ATOM     11  C   UNL     1       2.509  -4.513  -3.485  0.00  0.00    +0.115 C 
ATOM     12  C   UNL     1       0.896  -4.986  -5.346  0.00  0.00    -0.010 C 
ATOM     13  C   UNL     1       1.979  -4.869  -6.422  0.00  0.00    -0.082 C 
ATOM     14  N   UNL     1       2.574  -6.188  -6.666  0.00  0.00    +0.379 N 
ATOM     15  C   UNL     1       3.250  -6.665  -5.454  0.00  0.00    -0.082 C 
ATOM     16  C   UNL     1       2.221  -6.859  -4.336  0.00  0.00    -0.010 C 
ATOM     17  H   UNL     1       1.848  -6.840  -6.924  0.00  0.00    -0.086 HD
ATOM     18  H   UNL     1       3.244  -6.120  -7.418  0.00  0.00    -0.086 HD
BRANCH   5  19
ATOM     19  C   UNL     1       0.987  -1.873  -1.058  0.00  0.00    +0.072 C 
ATOM     20  C   UNL     1       0.493  -0.470  -1.419  0.00  0.00    +0.017 C 
BRANCH  19  21
ATOM     21  C   UNL     1       1.879  -1.795   0.183  0.00  0.00    +0.012 C 
BRANCH  21  23
ATOM     22  C   UNL     1       1.938  -1.260   2.623  0.00  0.00    +0.004 C 
ATOM     23  C   UNL     1       1.046  -1.338   1.382  0.00  0.00    -0.003 C 
ENDBRANCH  21  23
ENDBRANCH  19  21
ENDBRANCH   5  19
ENDBRANCH   1   9
BRANCH   3  24
ATOM     24  C   UNL     1      -3.018  -5.791  -4.629  0.00  0.00    +0.123 C 
BRANCH  24  25
ATOM     25  C   UNL     1      -3.713  -6.996  -5.265  0.00  0.00    +0.123 C 
BRANCH  25  26
ATOM     26  N   UNL     1      -5.024  -6.589  -5.777  0.00  0.00    -0.314 N 
ATOM     27  C   UNL     1      -5.821  -7.492  -6.383  0.00  0.00    +0.217 C 
ATOM     28  O   UNL     1      -5.453  -8.641  -6.503  0.00  0.00    -0.275 OA
ATOM     29  H   UNL     1      -5.319  -5.670  -5.681  0.00  0.00    +0.149 HD
BRANCH  27  30
ATOM     30  C   UNL     1      -7.169  -7.073  -6.910  0.00  0.00    +0.131 C 
BRANCH  30  31
ATOM     31  C   UNL     1      -7.854  -8.261  -7.536  0.00  0.00    -0.031 A 
ATOM     32  C   UNL     1      -7.755  -8.480  -8.876  0.00  0.00    +0.005 A 
ATOM     33  C   UNL     1      -8.382  -9.572  -9.473  0.00  0.00    +0.001 A 
ATOM     34  C   UNL     1      -9.112 -10.451  -8.733  0.00  0.00    +0.008 A 
ATOM     35  C   UNL     1      -9.236 -10.258  -7.347  0.00  0.00    -0.018 A 
ATOM     36  C   UNL     1      -8.594  -9.150  -6.739  0.00  0.00    -0.014 A 
ATOM     37  C   UNL     1      -8.714  -8.961  -5.351  0.00  0.00    +0.009 A 
ATOM     38  C   UNL     1      -9.438  -9.843  -4.611  0.00  0.00    +0.001 A 
ATOM     39  C   UNL     1     -10.065 -10.936  -5.208  0.00  0.00    +0.001 A 
ATOM     40  C   UNL     1      -9.982 -11.145  -6.551  0.00  0.00    +0.008 A 
ENDBRANCH  30  31
ENDBRANCH  27  30
ENDBRANCH  25  26
ENDBRANCH  24  25
ENDBRANCH   3  24
TORSDOF 9
