REMARK  Name = ZINC14471512
REMARK  7 active torsions:
REMARK  status: ('A' for Active; 'I' for Inactive)
REMARK    1  A    between atoms: C_1  and  C_2
REMARK    2  A    between atoms: C_5  and  N_9
REMARK    3  A    between atoms: C_7  and  C_8
REMARK    4  A    between atoms: N_9  and  S_10
REMARK    5  A    between atoms: S_10  and  C_13
REMARK    6  A    between atoms: C_26  and  C_29
REMARK    7  A    between atoms: C_33  and  N_35
REMARK                            x       y       z     vdW  Elec       q    Type
REMARK                         _______ _______ _______ _____ _____    ______ ____
ROOT
ATOM      1  C   UNL     1       0.442   3.952  -1.317  0.00  0.00    +0.109 A 
ATOM      2  C   UNL     1      -0.094   2.682  -1.429  0.00  0.00    +0.030 A 
ATOM      3  C   UNL     1      -1.282   2.487  -2.102  0.00  0.00    +0.025 A 
ATOM      4  C   UNL     1      -1.948   3.563  -2.675  0.00  0.00    +0.031 A 
ATOM      5  C   UNL     1      -1.397   4.845  -2.564  0.00  0.00    -0.018 A 
ATOM      6  C   UNL     1      -0.211   5.029  -1.887  0.00  0.00    +0.034 A 
ATOM      7  C   UNL     1      -2.126   5.959  -3.208  0.00  0.00    +0.049 C 
ATOM      8  C   UNL     1      -1.998   7.360  -2.731  0.00  0.00    -0.023 C 
ATOM      9  C   UNL     1      -3.145   7.991  -2.955  0.00  0.00    -0.030 C 
ATOM     10  C   UNL     1      -4.157   7.030  -3.582  0.00  0.00    +0.033 C 
ATOM     11  C   UNL     1      -3.652   5.674  -3.071  0.00  0.00    +0.029 C 
ATOM     12  C   UNL     1      -3.917   4.461  -3.945  0.00  0.00    +0.105 C 
ATOM     13  N   UNL     1      -3.174   3.347  -3.317  0.00  0.00    -0.336 N 
ATOM     14  H   UNL     1      -3.541   2.450  -3.354  0.00  0.00    +0.147 HD
ENDROOT
BRANCH  12  15
ATOM     15  C   UNL     1      -5.392   4.153  -3.973  0.00  0.00    -0.025 A 
ATOM     16  C   UNL     1      -5.976   3.469  -2.922  0.00  0.00    +0.005 A 
ATOM     17  C   UNL     1      -7.328   3.186  -2.948  0.00  0.00    +0.003 A 
ATOM     18  C   UNL     1      -8.098   3.587  -4.024  0.00  0.00    +0.033 A 
ATOM     19  C   UNL     1      -7.515   4.271  -5.074  0.00  0.00    +0.127 A 
ATOM     20  C   UNL     1      -6.162   4.558  -5.046  0.00  0.00    +0.038 A 
BRANCH  19  21
ATOM     21  N   UNL     1      -8.339   4.700  -6.227  0.00  0.00    +0.056 N 
ATOM     22  O   UNL     1      -9.530   4.450  -6.250  0.00  0.00    -0.126 OA
ATOM     23  O   UNL     1      -7.825   5.303  -7.152  0.00  0.00    -0.126 OA
ENDBRANCH  19  21
ENDBRANCH  12  15
BRANCH   1  24
ATOM     24  S   UNL     1       1.954   4.198  -0.448  0.00  0.00    +0.072 S 
ATOM     25  O   UNL     1       1.906   5.513   0.089  0.00  0.00    -0.150 OA
ATOM     26  O   UNL     1       2.146   3.049   0.367  0.00  0.00    -0.150 OA
BRANCH  24  27
ATOM     27  N   UNL     1       3.171   4.190  -1.571  0.00  0.00    -0.216 N 
ATOM     28  H   UNL     1       3.714   4.983  -1.704  0.00  0.00    +0.174 HD
BRANCH  27  33
ATOM     29  C   UNL     1       4.168  -0.473  -4.641  0.00  0.00    +0.044 C 
ATOM     30  C   UNL     1       3.903   0.766  -3.825  0.00  0.00    -0.047 A 
ATOM     31  C   UNL     1       4.298   0.818  -2.501  0.00  0.00    +0.005 A 
ATOM     32  C   UNL     1       4.061   1.953  -1.752  0.00  0.00    +0.025 A 
ATOM     33  C   UNL     1       3.416   3.041  -2.327  0.00  0.00    +0.048 A 
ATOM     34  C   UNL     1       3.021   2.986  -3.658  0.00  0.00    +0.028 A 
ATOM     35  C   UNL     1       3.265   1.849  -4.402  0.00  0.00    -0.046 A 
ATOM     36  C   UNL     1       2.837   1.788  -5.846  0.00  0.00    +0.044 C 
ENDBRANCH  27  33
ENDBRANCH  24  27
ENDBRANCH   1  24
TORSDOF 5
