REMARK  Name = ZINC16689115
REMARK  9 active torsions:
REMARK  status: ('A' for Active; 'I' for Inactive)
REMARK    1  A    between atoms: C_1  and  C_2
REMARK    2  A    between atoms: C_2  and  O_3
REMARK    3  A    between atoms: O_3  and  C_4
REMARK    4  A    between atoms: C_6  and  C_20
REMARK    5  A    between atoms: C_9  and  O_10
REMARK    6  A    between atoms: O_10  and  C_11
REMARK    7  A    between atoms: C_11  and  C_12
REMARK    8  A    between atoms: N_21  and  N_22
REMARK    9  A    between atoms: N_25  and  N_26
REMARK                            x       y       z     vdW  Elec       q    Type
REMARK                         _______ _______ _______ _____ _____    ______ ____
ROOT
ATOM      1  C   UNL     1       0.717  -1.821  -1.381  0.00  0.00    +0.163 A 
ATOM      2  C   UNL     1       0.189  -2.673  -0.430  0.00  0.00    +0.059 A 
ATOM      3  C   UNL     1       0.308  -4.056  -0.592  0.00  0.00    -0.002 A 
ATOM      4  C   UNL     1       0.961  -4.570  -1.716  0.00  0.00    +0.013 A 
ATOM      5  C   UNL     1       1.486  -3.713  -2.660  0.00  0.00    +0.050 A 
ATOM      6  C   UNL     1       1.361  -2.340  -2.502  0.00  0.00    +0.162 A 
ENDROOT
BRANCH   3   7
ATOM      7  C   UNL     1      -0.253  -4.970   0.419  0.00  0.00    +0.140 C 
ATOM      8  N   UNL     1      -0.141  -6.254   0.267  0.00  0.00    -0.179 NA
BRANCH   8   9
ATOM      9  N   UNL     1      -0.673  -7.123   1.228  0.00  0.00    -0.247 N 
ATOM     10  C   UNL     1      -0.555  -8.484   1.066  0.00  0.00    +0.213 C 
ATOM     11  N   UNL     1      -0.048  -8.968  -0.033  0.00  0.00    -0.369 N 
ATOM     12  N   UNL     1      -0.971  -9.334   2.065  0.00  0.00    -0.197 N 
ATOM     13  H   UNL     1      -0.814 -10.288   1.986  0.00  0.00    +0.197 HD
ATOM     14  H   UNL     1      -0.031  -9.927  -0.178  0.00  0.00    +0.159 HD
ATOM     15  H   UNL     1      -1.126  -6.765   2.008  0.00  0.00    +0.192 HD
ATOM     16  H   UNL     1       0.312  -8.370  -0.706  0.00  0.00    +0.159 HD
BRANCH  12  17
ATOM     17  N   UNL     1      -1.621  -8.822   3.195  0.00  0.00    +0.133 N 
ATOM     18  O   UNL     1      -1.719  -7.627   3.346  0.00  0.00    -0.108 OA
ATOM     19  O   UNL     1      -2.083  -9.576   4.020  0.00  0.00    -0.108 OA
ENDBRANCH  12  17
ENDBRANCH   8   9
ENDBRANCH   3   7
BRANCH   1  20
ATOM     20  O   UNL     1       0.602  -0.474  -1.226  0.00  0.00    -0.489 OA
BRANCH  20  22
ATOM     21  C   UNL     1      -0.101   1.518  -0.054  0.00  0.00    +0.048 C 
ATOM     22  C   UNL     1      -0.071  -0.011  -0.054  0.00  0.00    +0.226 C 
ENDBRANCH  20  22
ENDBRANCH   1  20
BRANCH   6  23
ATOM     23  O   UNL     1       1.875  -1.500  -3.439  0.00  0.00    -0.484 OA
BRANCH  23  24
ATOM     24  C   UNL     1       2.523  -2.100  -4.562  0.00  0.00    +0.266 C 
BRANCH  24  25
ATOM     25  C   UNL     1       3.026  -1.022  -5.487  0.00  0.00    +0.008 A 
ATOM     26  C   UNL     1       2.826   0.309  -5.170  0.00  0.00    +0.010 A 
ATOM     27  C   UNL     1       3.286   1.299  -6.018  0.00  0.00    +0.020 A 
ATOM     28  C   UNL     1       3.947   0.958  -7.185  0.00  0.00    +0.042 A 
ATOM     29  C   UNL     1       4.148  -0.373  -7.502  0.00  0.00    +0.040 A 
ATOM     30  C   UNL     1       3.691  -1.363  -6.651  0.00  0.00    +0.049 A 
ATOM     31 CL   UNL     1       3.947  -3.034  -7.046  0.00  0.00    -0.083 Cl
ATOM     32 CL   UNL     1       4.525   2.201  -8.250  0.00  0.00    -0.083 Cl
ENDBRANCH  24  25
ENDBRANCH  23  24
ENDBRANCH   6  23
TORSDOF 8
