REMARK  Name = ZINC60343089
REMARK  14 active torsions:
REMARK  status: ('A' for Active; 'I' for Inactive)
REMARK    1  A    between atoms: C_1  and  C_2
REMARK    2  A    between atoms: C_5  and  C_8
REMARK    3  A    between atoms: C_8  and  N_9
REMARK    4  A    between atoms: C_10  and  C_12
REMARK    5  A    between atoms: C_15  and  C_17
REMARK    6  A    between atoms: C_17  and  N_18
REMARK    7  A    between atoms: C_23  and  C_25
REMARK    8  A    between atoms: C_25  and  C_27
REMARK    9  A    between atoms: C_25  and  N_28
REMARK   10  A    between atoms: C_29  and  O_31
REMARK   11  A    between atoms: O_31  and  C_32
REMARK   12  A    between atoms: C_32  and  C_33
REMARK   13  A    between atoms: C_32  and  C_34
REMARK   14  A    between atoms: C_32  and  C_35
REMARK                            x       y       z     vdW  Elec       q    Type
REMARK                         _______ _______ _______ _____ _____    ______ ____
ROOT
ATOM      1  C   UNL     1       6.591  -8.699  -0.086  0.00  0.00    -0.012 C 
ENDROOT
BRANCH   1   2
ATOM      2  N   UNL     1       6.988  -9.008   1.294  0.00  0.00    +0.387 N 
ATOM      3  C   UNL     1       5.922  -9.778   1.947  0.00  0.00    -0.078 C 
ATOM      4  C   UNL     1       6.295 -10.033   3.409  0.00  0.00    -0.019 C 
ATOM      5  C   UNL     1       7.606 -10.823   3.466  0.00  0.00    -0.003 C 
ATOM      6  C   UNL     1       8.692 -10.045   2.718  0.00  0.00    -0.014 C 
ATOM      7  C   UNL     1       8.231  -9.789   1.281  0.00  0.00    -0.048 C 
ATOM      8  H   UNL     1       7.137  -8.148   1.800  0.00  0.00    -0.081 HD
BRANCH   7   9
ATOM      9  C   UNL     1       9.313  -9.012   0.529  0.00  0.00    +0.060 C 
ATOM     10  C   UNL     1       9.471  -7.624   1.153  0.00  0.00    +0.026 C 
BRANCH   9  11
ATOM     11  N   UNL     1      10.584  -9.735   0.618  0.00  0.00    -0.280 N 
ATOM     12  C   UNL     1      11.527  -9.559  -0.328  0.00  0.00    +0.401 C 
ATOM     13  O   UNL     1      11.323  -8.800  -1.256  0.00  0.00    -0.226 OA
ATOM     14  H   UNL     1      10.747 -10.341   1.358  0.00  0.00    +0.152 HD
BRANCH  12  15
ATOM     15  O   UNL     1      12.695 -10.223  -0.247  0.00  0.00    -0.445 OA
BRANCH  15  16
ATOM     16  C   UNL     1      13.649  -9.988  -1.284  0.00  0.00    +0.107 C 
ATOM     17  C   UNL     1      14.021  -8.504  -1.309  0.00  0.00    +0.055 C 
ATOM     18  C   UNL     1      14.904 -10.824  -1.023  0.00  0.00    +0.055 C 
ATOM     19  C   UNL     1      13.044 -10.385  -2.632  0.00  0.00    +0.055 C 
ENDBRANCH  15  16
ENDBRANCH  12  15
ENDBRANCH   9  11
ENDBRANCH   7   9
ENDBRANCH   1   2
BRANCH   1  23
ATOM     20  C   UNL     1       3.105  -6.540  -0.051  0.00  0.00    +0.186 A 
ATOM     21  N   UNL     1       4.241  -5.848  -0.047  0.00  0.00    -0.137 NA
ATOM     22  N   UNL     1       5.337  -6.478  -0.058  0.00  0.00    -0.148 NA
ATOM     23  C   UNL     1       5.386  -7.795  -0.072  0.00  0.00    +0.086 A 
ATOM     24  S   UNL     1       3.751  -8.207  -0.063  0.00  0.00    -0.048 S 
BRANCH  20  26
ATOM     25  N   UNL     1       1.447  -4.746  -0.032  0.00  0.00    -0.305 N 
ATOM     26  C   UNL     1       1.710  -6.067  -0.040  0.00  0.00    +0.271 C 
ATOM     27  O   UNL     1       0.796  -6.870  -0.040  0.00  0.00    -0.268 OA
ATOM     28  H   UNL     1       2.176  -4.106  -0.032  0.00  0.00    +0.149 HD
BRANCH  25  29
ATOM     29  C   UNL     1       0.059  -4.275  -0.021  0.00  0.00    +0.140 C 
BRANCH  29  34
ATOM     30  C   UNL     1      -0.018   1.503   0.010  0.00  0.00    +0.044 C 
ATOM     31  C   UNL     1       0.002  -0.004   0.002  0.00  0.00    -0.050 A 
ATOM     32  C   UNL     1       0.006  -0.689  -1.199  0.00  0.00    +0.003 A 
ATOM     33  C   UNL     1       0.025  -2.071  -1.206  0.00  0.00    +0.005 A 
ATOM     34  C   UNL     1       0.040  -2.768  -0.013  0.00  0.00    -0.030 A 
ATOM     35  C   UNL     1       0.037  -2.084   1.188  0.00  0.00    +0.005 A 
ATOM     36  C   UNL     1       0.023  -0.702   1.195  0.00  0.00    +0.003 A 
ENDBRANCH  29  34
ENDBRANCH  25  29
ENDBRANCH  20  26
ENDBRANCH   1  23
TORSDOF 9
