REMARK  Name = ZINC20805671
REMARK  6 active torsions:
REMARK  status: ('A' for Active; 'I' for Inactive)
REMARK    1  A    between atoms: C_10  and  C_11
REMARK    2  A    between atoms: N_12  and  N_13
REMARK    3  A    between atoms: C_17  and  S_20
REMARK    4  A    between atoms: N_18  and  N_19
REMARK    5  A    between atoms: S_20  and  C_21
REMARK    6  A    between atoms: C_21  and  C_22
REMARK                            x       y       z     vdW  Elec       q    Type
REMARK                         _______ _______ _______ _____ _____    ______ ____
ROOT
ATOM      1  N   UNL     1      -1.150   2.163   0.012  0.00  0.00    -0.204 N 
ATOM      2  C   UNL     1      -0.017   1.363  -0.006  0.00  0.00    +0.254 A 
ATOM      3  N   UNL     1       1.225   1.785  -0.024  0.00  0.00    -0.109 NA
ATOM      4  N   UNL     1       2.063   0.663  -0.044  0.00  0.00    -0.119 NA
ATOM      5  C   UNL     1       1.306  -0.408  -0.038  0.00  0.00    +0.210 A 
ATOM      6  N   UNL     1       0.002  -0.004  -0.014  0.00  0.00    -0.211 N 
ATOM      7  H   UNL     1      -2.148   1.702   0.021  0.00  0.00    +0.177 HD
ENDROOT
BRANCH   6   8
ATOM      8  N   UNL     1      -1.092  -0.822  -0.002  0.00  0.00    -0.294 N 
ATOM      9  H   UNL     1      -0.962  -1.914  -0.011  0.00  0.00    +0.163 HD
ATOM     10  H   UNL     1      -2.103  -0.388   0.016  0.00  0.00    +0.163 HD
ENDBRANCH   6   8
BRANCH   1  12
ATOM     11  C   UNL     1      -2.084   4.308   0.036  0.00  0.00    +0.139 C 
ATOM     12  N   UNL     1      -1.022   3.558   0.019  0.00  0.00    -0.187 NA
BRANCH  11  22
ATOM     13  C   UNL     1       1.829   7.656   0.331  0.00  0.00    +0.001 A 
ATOM     14  C   UNL     1       1.743   6.265   0.328  0.00  0.00    +0.001 A 
ATOM     15  C   UNL     1       0.536   5.639   0.236  0.00  0.00    +0.009 A 
ATOM     16  C   UNL     1      -0.635   6.401   0.143  0.00  0.00    -0.009 A 
ATOM     17  C   UNL     1      -0.551   7.815   0.146  0.00  0.00    -0.017 A 
ATOM     18  C   UNL     1       0.711   8.428   0.243  0.00  0.00    +0.008 A 
ATOM     19  C   UNL     1      -1.728   8.577   0.054  0.00  0.00    +0.008 A 
ATOM     20  C   UNL     1      -2.943   7.970  -0.038  0.00  0.00    +0.001 A 
ATOM     21  C   UNL     1      -3.072   6.588  -0.051  0.00  0.00    +0.010 A 
ATOM     22  C   UNL     1      -1.950   5.772   0.043  0.00  0.00    +0.002 A 
ENDBRANCH  11  22
ENDBRANCH   1  12
BRANCH   5  23
ATOM     23  S   UNL     1       1.873  -2.077  -0.057  0.00  0.00    -0.080 S 
BRANCH  23  24
ATOM     24  C   UNL     1       3.662  -1.801  -0.084  0.00  0.00    +0.112 C 
BRANCH  24  25
ATOM     25  C   UNL     1       4.375  -3.128  -0.104  0.00  0.00    -0.036 A 
ATOM     26  C   UNL     1       4.726  -3.741   1.085  0.00  0.00    +0.006 A 
ATOM     27  C   UNL     1       5.375  -4.962   1.068  0.00  0.00    +0.022 A 
ATOM     28  C   UNL     1       5.683  -5.565  -0.138  0.00  0.00    +0.059 A 
ATOM     29  C   UNL     1       5.336  -4.948  -1.328  0.00  0.00    +0.060 A 
ATOM     30  C   UNL     1       4.682  -3.729  -1.310  0.00  0.00    +0.026 A 
ATOM     31 CL   UNL     1       5.722  -5.704  -2.842  0.00  0.00    -0.082 Cl
ATOM     32 CL   UNL     1       6.504  -7.094  -0.159  0.00  0.00    -0.082 Cl
ENDBRANCH  24  25
ENDBRANCH  23  24
ENDBRANCH   5  23
TORSDOF 6
