REMARK  Name = ZINC00887313
REMARK  11 active torsions:
REMARK  status: ('A' for Active; 'I' for Inactive)
REMARK    1  A    between atoms: C_1  and  C_2
REMARK    2  A    between atoms: C_7  and  C_8
REMARK    3  A    between atoms: C_8  and  C_9
REMARK    4  A    between atoms: C_9  and  N_10
REMARK    5  A    between atoms: N_10  and  C_11
REMARK    6  A    between atoms: C_11  and  C_13
REMARK    7  A    between atoms: C_11  and  C_18
REMARK    8  A    between atoms: N_20  and  C_21
REMARK    9  A    between atoms: C_26  and  C_28
REMARK   10  A    between atoms: C_28  and  N_29
REMARK   11  A    between atoms: C_31  and  C_34
REMARK                            x       y       z     vdW  Elec       q    Type
REMARK                         _______ _______ _______ _____ _____    ______ ____
ROOT
ATOM      1  N   UNL     1      -1.187   1.112   4.869  0.00  0.00    -0.284 N 
ATOM      2  C   UNL     1      -1.294   0.868   6.190  0.00  0.00    +0.240 C 
ATOM      3  O   UNL     1      -1.111  -0.253   6.617  0.00  0.00    -0.273 OA
ENDROOT
BRANCH   1   4
ATOM      4  C   UNL     1      -0.850   0.024   3.948  0.00  0.00    +0.113 C 
BRANCH   4   5
ATOM      5  C   UNL     1       0.663  -0.203   3.960  0.00  0.00    +0.054 C 
BRANCH   5  12
ATOM      6  C   UNL     1       0.993  -0.019   1.096  0.00  0.00    +0.044 C 
ATOM      7  C   UNL     1       1.150  -1.348   1.788  0.00  0.00    -0.047 A 
ATOM      8  C   UNL     1       1.458  -2.478   1.054  0.00  0.00    +0.003 A 
ATOM      9  C   UNL     1       1.602  -3.697   1.689  0.00  0.00    +0.000 A 
ATOM     10  C   UNL     1       1.439  -3.786   3.059  0.00  0.00    +0.000 A 
ATOM     11  C   UNL     1       1.132  -2.656   3.793  0.00  0.00    +0.004 A 
ATOM     12  C   UNL     1       0.992  -1.436   3.159  0.00  0.00    -0.043 A 
ENDBRANCH   5  12
ENDBRANCH   4   5
ENDBRANCH   1   4
BRANCH   1  13
ATOM     13  C   UNL     1      -1.409   2.466   4.354  0.00  0.00    +0.199 C 
BRANCH  13  14
ATOM     14  C   UNL     1      -2.590   2.460   3.418  0.00  0.00    +0.019 A 
ATOM     15  C   UNL     1      -3.663   3.287   3.393  0.00  0.00    +0.013 A 
ATOM     16  C   UNL     1      -4.637   3.093   2.431  0.00  0.00    +0.008 A 
ATOM     17  C   UNL     1      -4.489   2.080   1.542  0.00  0.00    +0.045 A 
ATOM     18  S   UNL     1      -2.934   1.366   2.049  0.00  0.00    -0.099 S 
ENDBRANCH  13  14
BRANCH  13  19
ATOM     19  C   UNL     1      -0.182   2.928   3.613  0.00  0.00    +0.239 C 
ATOM     20  O   UNL     1       0.296   2.235   2.739  0.00  0.00    -0.273 OA
ATOM     21  N   UNL     1       0.385   4.112   3.920  0.00  0.00    -0.311 N 
ATOM     22  H   UNL     1       0.003   4.666   4.618  0.00  0.00    +0.149 HD
BRANCH  21  23
ATOM     23  C   UNL     1       1.579   4.561   3.198  0.00  0.00    +0.073 C 
ATOM     24  C   UNL     1       2.848   4.021   3.888  0.00  0.00    +0.022 C 
ATOM     25  C   UNL     1       3.873   5.174   3.754  0.00  0.00    +0.002 C 
ATOM     26  C   UNL     1       2.998   6.436   3.958  0.00  0.00    +0.002 C 
ATOM     27  C   UNL     1       1.674   6.096   3.242  0.00  0.00    +0.022 C 
ENDBRANCH  21  23
ENDBRANCH  13  19
ENDBRANCH   1  13
BRANCH   2  28
ATOM     28  C   UNL     1      -1.641   1.987   7.138  0.00  0.00    +0.264 C 
BRANCH  28  29
ATOM     29  N   UNL     1      -1.697   1.468   8.507  0.00  0.00    -0.154 N 
ATOM     30  N   UNL     1      -2.745   0.985   9.080  0.00  0.00    -0.130 NA
ATOM     31  C   UNL     1      -2.407   0.623  10.301  0.00  0.00    +0.205 A 
ATOM     32  N   UNL     1      -1.105   0.908  10.440  0.00  0.00    -0.108 NA
ATOM     33  N   UNL     1      -0.704   1.417   9.325  0.00  0.00    -0.045 NA
BRANCH  31  34
ATOM     34  C   UNL     1      -3.296   0.016  11.324  0.00  0.00    +0.023 A 
ATOM     35  C   UNL     1      -4.636  -0.228  11.029  0.00  0.00    +0.014 A 
ATOM     36  C   UNL     1      -5.458  -0.791  11.983  0.00  0.00    +0.039 A 
ATOM     37  C   UNL     1      -4.954  -1.115  13.232  0.00  0.00    +0.123 A 
ATOM     38  C   UNL     1      -3.622  -0.874  13.529  0.00  0.00    +0.039 A 
ATOM     39  C   UNL     1      -2.791  -0.316  12.579  0.00  0.00    +0.014 A 
ATOM     40  F   UNL     1      -5.763  -1.666  14.163  0.00  0.00    -0.205 F 
ENDBRANCH  31  34
ENDBRANCH  28  29
ENDBRANCH   2  28
TORSDOF 10
