REMARK  Name = ZINC12030189
REMARK  6 active torsions:
REMARK  status: ('A' for Active; 'I' for Inactive)
REMARK    1  A    between atoms: C_6  and  C_7
REMARK    2  A    between atoms: C_8  and  C_20
REMARK    3  A    between atoms: C_20  and  N_54
REMARK    4  A    between atoms: C_21  and  C_22
REMARK    5  A    between atoms: C_21  and  N_54
REMARK    6  A    between atoms: C_22  and  O_28
REMARK                            x       y       z     vdW  Elec       q    Type
REMARK                         _______ _______ _______ _____ _____    ______ ____
ROOT
ATOM      1  C   UNL     1      -1.789   0.708   6.658  0.00  0.00    +0.073 A 
ATOM      2  C   UNL     1      -0.530   1.273   6.403  0.00  0.00    -0.038 A 
ATOM      3  C   UNL     1      -0.122   2.366   7.110  0.00  0.00    +0.014 A 
ATOM      4  C   UNL     1      -0.995   2.901   8.076  0.00  0.00    +0.004 A 
ATOM      5  C   UNL     1      -0.636   4.027   8.835  0.00  0.00    +0.059 A 
ATOM      6  C   UNL     1      -1.503   4.522   9.766  0.00  0.00    +0.167 A 
ATOM      7  C   UNL     1      -2.754   3.915   9.975  0.00  0.00    +0.168 A 
ATOM      8  C   UNL     1      -3.126   2.818   9.252  0.00  0.00    +0.078 A 
ATOM      9  C   UNL     1      -2.255   2.286   8.286  0.00  0.00    +0.075 A 
ATOM     10  N   UNL     1      -2.600   1.213   7.568  0.00  0.00    -0.246 NA
ATOM     11  O   UNL     1      -3.410   4.607  10.951  0.00  0.00    -0.453 OA
ATOM     12  C   UNL     1      -2.735   5.875  11.047  0.00  0.00    +0.466 C 
ATOM     13  O   UNL     1      -1.392   5.585  10.616  0.00  0.00    -0.453 OA
ENDROOT
BRANCH   1  19
ATOM     14  C   UNL     1      -2.048  -0.521   4.505  0.00  0.00    +0.013 A 
ATOM     15  C   UNL     1      -2.444  -1.634   3.792  0.00  0.00    +0.039 A 
ATOM     16  C   UNL     1      -3.018  -2.711   4.449  0.00  0.00    +0.123 A 
ATOM     17  C   UNL     1      -3.192  -2.677   5.823  0.00  0.00    +0.039 A 
ATOM     18  C   UNL     1      -2.795  -1.570   6.544  0.00  0.00    +0.013 A 
ATOM     19  C   UNL     1      -2.217  -0.484   5.888  0.00  0.00    +0.001 A 
ATOM     20  F   UNL     1      -3.408  -3.797   3.747  0.00  0.00    -0.205 F 
ENDBRANCH   1  19
BRANCH   2  21
ATOM     21  C   UNL     1       0.370   0.671   5.356  0.00  0.00    -0.044 C 
BRANCH  21  22
ATOM     22  N   UNL     1       1.688   1.331   5.414  0.00  0.00    +0.384 N 
ATOM     23  H   UNL     1       2.055   1.270   6.371  0.00  0.00    -0.085 HD
ATOM     24  H   UNL     1       1.585   2.317   5.149  0.00  0.00    -0.085 HD
BRANCH  22  25
ATOM     25  C   UNL     1       2.631   0.674   4.489  0.00  0.00    -0.047 C 
BRANCH  25  26
ATOM     26  C   UNL     1       3.987   1.378   4.571  0.00  0.00    +0.051 C 
ATOM     27  C   UNL     1       4.971   0.703   3.614  0.00  0.00    +0.033 C 
ATOM     28  C   UNL     1       6.327   1.407   3.696  0.00  0.00    +0.003 C 
ATOM     29  C   UNL     1       6.863   1.317   5.126  0.00  0.00    +0.000 C 
ATOM     30  C   UNL     1       5.878   1.992   6.083  0.00  0.00    +0.003 C 
ATOM     31  C   UNL     1       4.522   1.288   6.001  0.00  0.00    +0.033 C 
BRANCH  26  32
ATOM     32  O   UNL     1       3.833   2.751   4.206  0.00  0.00    -0.390 OA
ATOM     33  H   UNL     1       3.221   3.243   4.771  0.00  0.00    +0.210 HD
ENDBRANCH  26  32
ENDBRANCH  25  26
ENDBRANCH  22  25
ENDBRANCH  21  22
ENDBRANCH   2  21
TORSDOF 6
