REMARK  Name = ZINC00888100
REMARK  12 active torsions:
REMARK  status: ('A' for Active; 'I' for Inactive)
REMARK    1  A    between atoms: C_1  and  C_2
REMARK    2  A    between atoms: C_6  and  N_9
REMARK    3  A    between atoms: C_7  and  C_8
REMARK    4  A    between atoms: N_9  and  C_10
REMARK    5  A    between atoms: C_10  and  C_12
REMARK    6  A    between atoms: C_10  and  C_17
REMARK    7  A    between atoms: N_19  and  C_20
REMARK    8  A    between atoms: C_20  and  C_21
REMARK    9  A    between atoms: C_28  and  C_30
REMARK   10  A    between atoms: C_30  and  N_31
REMARK   11  A    between atoms: C_33  and  C_36
REMARK   12  A    between atoms: C_39  and  C_41
REMARK                            x       y       z     vdW  Elec       q    Type
REMARK                         _______ _______ _______ _____ _____    ______ ____
ROOT
ATOM      1  N   UNL     1      -0.681  -3.470   2.432  0.00  0.00    -0.253 N 
ATOM      2  C   UNL     1      -1.512  -3.788   3.444  0.00  0.00    +0.244 C 
ATOM      3  O   UNL     1      -1.066  -3.991   4.554  0.00  0.00    -0.273 OA
ENDROOT
BRANCH   1   9
ATOM      4  C   UNL     1      -2.151  -5.213  -1.924  0.00  0.00    +0.044 C 
ATOM      5  C   UNL     1      -1.917  -4.062  -0.980  0.00  0.00    -0.046 A 
ATOM      6  C   UNL     1      -2.212  -2.771  -1.379  0.00  0.00    +0.004 A 
ATOM      7  C   UNL     1      -2.000  -1.712  -0.516  0.00  0.00    +0.002 A 
ATOM      8  C   UNL     1      -1.493  -1.940   0.748  0.00  0.00    +0.024 A 
ATOM      9  C   UNL     1      -1.196  -3.235   1.152  0.00  0.00    +0.041 A 
ATOM     10  C   UNL     1      -1.415  -4.297   0.284  0.00  0.00    -0.026 A 
ATOM     11  C   UNL     1      -1.099  -5.705   0.721  0.00  0.00    +0.046 C 
ENDBRANCH   1   9
BRANCH   1  12
ATOM     12  C   UNL     1       0.760  -3.369   2.671  0.00  0.00    +0.204 C 
BRANCH  12  13
ATOM     13  C   UNL     1       1.497  -4.212   1.663  0.00  0.00    +0.019 A 
ATOM     14  C   UNL     1       2.285  -5.296   1.869  0.00  0.00    +0.013 A 
ATOM     15  C   UNL     1       2.865  -5.919   0.780  0.00  0.00    +0.008 A 
ATOM     16  C   UNL     1       2.629  -5.429  -0.462  0.00  0.00    +0.045 A 
ATOM     17  S   UNL     1       1.553  -4.048  -0.114  0.00  0.00    -0.099 S 
ENDBRANCH  12  13
BRANCH  12  18
ATOM     18  C   UNL     1       1.193  -1.932   2.537  0.00  0.00    +0.239 C 
ATOM     19  O   UNL     1       0.373  -1.072   2.292  0.00  0.00    -0.273 OA
ATOM     20  N   UNL     1       2.491  -1.602   2.688  0.00  0.00    -0.309 N 
ATOM     21  H   UNL     1       3.147  -2.290   2.884  0.00  0.00    +0.149 HD
BRANCH  20  22
ATOM     22  C   UNL     1       2.912  -0.205   2.557  0.00  0.00    +0.139 C 
BRANCH  22  23
ATOM     23  C   UNL     1       4.401  -0.106   2.770  0.00  0.00    -0.030 A 
ATOM     24  C   UNL     1       4.905   0.097   4.041  0.00  0.00    +0.008 A 
ATOM     25  C   UNL     1       6.270   0.187   4.238  0.00  0.00    +0.038 A 
ATOM     26  C   UNL     1       7.132   0.073   3.161  0.00  0.00    +0.123 A 
ATOM     27  C   UNL     1       6.626  -0.130   1.888  0.00  0.00    +0.038 A 
ATOM     28  C   UNL     1       5.261  -0.225   1.695  0.00  0.00    +0.008 A 
ATOM     29  F   UNL     1       8.467   0.162   3.351  0.00  0.00    -0.205 F 
ENDBRANCH  22  23
ENDBRANCH  20  22
ENDBRANCH  12  18
ENDBRANCH   1  12
BRANCH   2  30
ATOM     30  C   UNL     1      -2.995  -3.891   3.198  0.00  0.00    +0.264 C 
BRANCH  30  31
ATOM     31  N   UNL     1      -3.674  -4.247   4.446  0.00  0.00    -0.154 N 
ATOM     32  N   UNL     1      -3.905  -5.448   4.853  0.00  0.00    -0.127 NA
ATOM     33  C   UNL     1      -4.532  -5.368   6.012  0.00  0.00    +0.239 A 
ATOM     34  N   UNL     1      -4.667  -4.061   6.285  0.00  0.00    -0.105 NA
ATOM     35  N   UNL     1      -4.128  -3.409   5.311  0.00  0.00    -0.045 NA
BRANCH  33  36
ATOM     36  C   UNL     1      -4.995  -6.497   6.846  0.00  0.00    +0.175 A 
ATOM     37  C   UNL     1      -5.644  -6.397   8.036  0.00  0.00    +0.053 A 
ATOM     38  C   UNL     1      -5.893  -7.713   8.476  0.00  0.00    +0.045 A 
ATOM     39  C   UNL     1      -5.388  -8.542   7.542  0.00  0.00    +0.103 A 
ATOM     40  O   UNL     1      -4.852  -7.805   6.556  0.00  0.00    -0.457 OA
ATOM     41  C   UNL     1      -5.426 -10.048   7.592  0.00  0.00    +0.086 C 
ENDBRANCH  33  36
ENDBRANCH  30  31
ENDBRANCH   2  30
TORSDOF 9
