REMARK  Name = ZINC38700597
REMARK  9 active torsions:
REMARK  status: ('A' for Active; 'I' for Inactive)
REMARK    1  A    between atoms: C_1  and  C_2
REMARK    2  A    between atoms: C_5  and  C_37
REMARK    3  A    between atoms: C_6  and  C_12
REMARK    4  A    between atoms: C_10  and  C_11
REMARK    5  A    between atoms: C_12  and  O_14
REMARK    6  A    between atoms: O_14  and  C_15
REMARK    7  A    between atoms: C_22  and  N_36
REMARK    8  A    between atoms: C_23  and  C_34
REMARK    9  A    between atoms: C_24  and  C_26
REMARK                            x       y       z     vdW  Elec       q    Type
REMARK                         _______ _______ _______ _____ _____    ______ ____
ROOT
ATOM      1  C   UNL     1       0.134  -7.864  -2.287  0.00  0.00    +0.136 A 
ATOM      2  C   UNL     1       0.204  -7.787  -3.671  0.00  0.00    +0.047 A 
ATOM      3  C   UNL     1       0.251  -8.943  -4.426  0.00  0.00    +0.012 A 
ATOM      4  C   UNL     1       0.229 -10.180  -3.807  0.00  0.00    +0.008 A 
ATOM      5  C   UNL     1       0.159 -10.263  -2.425  0.00  0.00    +0.138 A 
ATOM      6  C   UNL     1       0.118  -9.102  -1.665  0.00  0.00    +0.093 A 
ATOM      7  O   UNL     1       0.137 -11.467  -1.801  0.00  0.00    -0.441 OA
ATOM      8  C   UNL     1       0.560 -12.565  -2.448  0.00  0.00    +0.199 C 
ATOM      9  C   UNL     1       0.651 -12.612  -3.798  0.00  0.00    +0.098 C 
ATOM     10  C   UNL     1       0.280 -11.429  -4.647  0.00  0.00    +0.102 C 
ENDROOT
BRANCH  10  11
ATOM     11  C   UNL     1      -1.071 -11.666  -5.271  0.00  0.00    +0.019 A 
ATOM     12  C   UNL     1      -2.184 -11.843  -4.466  0.00  0.00    +0.129 A 
ATOM     13  C   UNL     1      -3.425 -12.061  -5.040  0.00  0.00    +0.039 A 
ATOM     14  C   UNL     1      -3.552 -12.103  -6.416  0.00  0.00    +0.004 A 
ATOM     15  C   UNL     1      -2.441 -11.927  -7.219  0.00  0.00    +0.020 A 
ATOM     16  C   UNL     1      -1.201 -11.703  -6.647  0.00  0.00    +0.048 A 
ATOM     17 CL   UNL     1       0.192 -11.475  -7.657  0.00  0.00    -0.083 Cl
ATOM     18  F   UNL     1      -2.059 -11.802  -3.122  0.00  0.00    -0.205 F 
ENDBRANCH  10  11
BRANCH   8  19
ATOM     19  N   UNL     1       0.911 -13.674  -1.718  0.00  0.00    -0.328 N 
ATOM     20  H   UNL     1       0.852 -13.656  -0.750  0.00  0.00    +0.145 HD
ATOM     21  H   UNL     1       1.219 -14.475  -2.171  0.00  0.00    +0.145 HD
ENDBRANCH   8  19
BRANCH   9  22
ATOM     22  C   UNL     1       1.111 -13.812  -4.429  0.00  0.00    +0.101 C 
ATOM     23  N   UNL     1       1.475 -14.764  -4.930  0.00  0.00    -0.191 NA
ENDBRANCH   9  22
BRANCH   1  24
ATOM     24  O   UNL     1       0.089  -6.728  -1.543  0.00  0.00    -0.420 OA
BRANCH  24  25
ATOM     25  C   UNL     1       1.217  -6.334  -0.918  0.00  0.00    +0.380 C 
ATOM     26  O   UNL     1       2.209  -7.036  -0.955  0.00  0.00    -0.241 OA
BRANCH  25  32
ATOM     27  C   UNL     1       2.501  -0.129   3.017  0.00  0.00    +0.044 C 
ATOM     28  C   UNL     1       1.827  -1.187   2.182  0.00  0.00    -0.047 A 
ATOM     29  C   UNL     1       2.524  -2.302   1.808  0.00  0.00    +0.015 A 
ATOM     30  C   UNL     1       1.898  -3.282   1.035  0.00  0.00    +0.024 A 
ATOM     31  C   UNL     1       2.324  -4.562   0.472  0.00  0.00    +0.010 A 
ATOM     32  C   UNL     1       1.248  -5.059  -0.193  0.00  0.00    +0.216 A 
ATOM     33  O   UNL     1       0.211  -4.201  -0.085  0.00  0.00    -0.448 OA
ATOM     34  C   UNL     1       0.555  -3.121   0.642  0.00  0.00    +0.137 A 
ATOM     35  C   UNL     1      -0.132  -1.979   1.035  0.00  0.00    +0.050 A 
ATOM     36  C   UNL     1       0.502  -1.026   1.803  0.00  0.00    -0.044 A 
ATOM     37  C   UNL     1      -0.250   0.208   2.230  0.00  0.00    +0.044 C 
ATOM     38  C   UNL     1       3.683  -5.202   0.602  0.00  0.00    +0.048 C 
ENDBRANCH  25  32
ENDBRANCH  24  25
ENDBRANCH   1  24
TORSDOF 6
