REMARK  Name = ZINC39710515
REMARK  13 active torsions:
REMARK  status: ('A' for Active; 'I' for Inactive)
REMARK    1  A    between atoms: C_1  and  C_2
REMARK    2  A    between atoms: C_2  and  C_3
REMARK    3  A    between atoms: C_10  and  C_15
REMARK    4  A    between atoms: C_15  and  C_17
REMARK    5  A    between atoms: C_15  and  N_27
REMARK    6  A    between atoms: N_22  and  C_23
REMARK    7  A    between atoms: C_23  and  C_24
REMARK    8  A    between atoms: C_23  and  C_25
REMARK    9  A    between atoms: C_23  and  C_26
REMARK   10  A    between atoms: N_27  and  C_28
REMARK   11  A    between atoms: N_27  and  C_35
REMARK   12  A    between atoms: C_28  and  C_29
REMARK   13  A    between atoms: C_35  and  C_36
REMARK                            x       y       z     vdW  Elec       q    Type
REMARK                         _______ _______ _______ _____ _____    ______ ____
ROOT
ATOM      1  C   UNL     1      -6.343   0.623  -6.412  0.00  0.00    -0.008 C 
ENDROOT
BRANCH   1   9
ATOM      2  C   UNL     1      -6.711  -0.324 -12.158  0.00  0.00    -0.047 A 
ATOM      3  C   UNL     1      -7.239   0.948 -12.383  0.00  0.00    +0.005 A 
ATOM      4  C   UNL     1      -7.236   1.920 -11.434  0.00  0.00    +0.024 A 
ATOM      5  C   UNL     1      -6.688   1.675 -10.161  0.00  0.00    +0.040 A 
ATOM      6  N   UNL     1      -6.691   2.637  -9.238  0.00  0.00    -0.285 N 
ATOM      7  C   UNL     1      -6.193   2.474  -8.024  0.00  0.00    +0.223 C 
ATOM      8  O   UNL     1      -6.224   3.389  -7.223  0.00  0.00    -0.275 OA
ATOM      9  C   UNL     1      -5.586   1.145  -7.635  0.00  0.00    +0.088 C 
ATOM     10  C   UNL     1      -5.580   0.048  -8.681  0.00  0.00    -0.006 C 
ATOM     11  C   UNL     1      -6.124   0.340  -9.896  0.00  0.00    -0.007 A 
ATOM     12  C   UNL     1      -6.165  -0.662 -10.961  0.00  0.00    +0.013 A 
ATOM     13  H   UNL     1      -7.077   3.497  -9.468  0.00  0.00    +0.155 HD
BRANCH   2  15
ATOM     14  C   UNL     1      -8.060  -2.139 -13.175  0.00  0.00    +0.009 C 
ATOM     15  C   UNL     1      -6.755  -1.347 -13.264  0.00  0.00    +0.032 C 
ENDBRANCH   2  15
ENDBRANCH   1   9
BRANCH   1  16
ATOM     16  C   UNL     1      -6.062  -0.871  -6.237  0.00  0.00    +0.205 C 
ATOM     17  N   UNL     1      -7.306  -1.596  -5.945  0.00  0.00    -0.152 NA
ATOM     18  N   UNL     1      -7.206  -2.129  -4.838  0.00  0.00    -0.070 NA
ATOM     19  N   UNL     1      -5.977  -1.884  -4.227  0.00  0.00    -0.179 N 
ATOM     20  N   UNL     1      -5.209  -1.101  -5.053  0.00  0.00    -0.183 NA
ATOM     21  H   UNL     1      -5.707  -2.215  -3.356  0.00  0.00    +0.191 HD
BRANCH  20  22
ATOM     22  C   UNL     1      -4.860   0.168  -4.401  0.00  0.00    +0.035 C 
ATOM     23  C   UNL     1      -6.107   0.763  -3.742  0.00  0.00    +0.029 C 
ATOM     24  C   UNL     1      -3.791  -0.082  -3.336  0.00  0.00    +0.029 C 
ATOM     25  C   UNL     1      -4.320   1.147  -5.446  0.00  0.00    +0.029 C 
ENDBRANCH  20  22
ENDBRANCH   1  16
BRANCH   1  26
ATOM     26  N   UNL     1      -7.784   0.831  -6.603  0.00  0.00    +0.392 N 
ATOM     27  H   UNL     1      -8.283  -0.004  -6.336  0.00  0.00    -0.080 HD
BRANCH  26  28
ATOM     28  C   UNL     1      -8.053   1.132  -8.015  0.00  0.00    -0.042 C 
BRANCH  28  29
ATOM     29  C   UNL     1      -8.814  -0.011  -8.636  0.00  0.00    -0.064 A 
ATOM     30  C   UNL     1      -8.154  -1.178  -8.973  0.00  0.00    +0.002 A 
ATOM     31  C   UNL     1      -8.852  -2.226  -9.543  0.00  0.00    +0.000 A 
ATOM     32  C   UNL     1     -10.210  -2.108  -9.775  0.00  0.00    +0.000 A 
ATOM     33  C   UNL     1     -10.870  -0.941  -9.438  0.00  0.00    +0.000 A 
ATOM     34  C   UNL     1     -10.172   0.106  -8.864  0.00  0.00    +0.002 A 
ENDBRANCH  28  29
ENDBRANCH  26  28
BRANCH  26  35
ATOM     35  C   UNL     1      -8.231   1.955  -5.769  0.00  0.00    -0.002 C 
BRANCH  35  36
ATOM     36  C   UNL     1      -9.737   2.017  -5.775  0.00  0.00    +0.089 A 
ATOM     37  C   UNL     1     -10.550   1.475  -4.851  0.00  0.00    +0.042 A 
ATOM     38  C   UNL     1     -11.875   1.772  -5.246  0.00  0.00    +0.041 A 
ATOM     39  C   UNL     1     -11.792   2.478  -6.388  0.00  0.00    +0.195 A 
ATOM     40  O   UNL     1     -10.494   2.629  -6.700  0.00  0.00    -0.470 OA
ENDBRANCH  35  36
ENDBRANCH  26  35
ENDBRANCH   1  26
TORSDOF 9
