REMARK  Name = ZINC38547910
REMARK  12 active torsions:
REMARK  status: ('A' for Active; 'I' for Inactive)
REMARK    1  A    between atoms: C_1  and  C_2
REMARK    2  A    between atoms: C_2  and  C_3
REMARK    3  A    between atoms: C_5  and  C_16
REMARK    4  A    between atoms: C_6  and  N_8
REMARK    5  A    between atoms: C_9  and  C_11
REMARK    6  A    between atoms: C_16  and  C_18
REMARK    7  A    between atoms: C_16  and  N_28
REMARK    8  A    between atoms: C_21  and  O_26
REMARK    9  A    between atoms: C_22  and  O_24
REMARK   10  A    between atoms: O_24  and  C_25
REMARK   11  A    between atoms: O_26  and  C_27
REMARK   12  A    between atoms: C_33  and  C_35
REMARK                            x       y       z     vdW  Elec       q    Type
REMARK                         _______ _______ _______ _____ _____    ______ ____
ROOT
ATOM      1  C   UNL     1      -4.360  -1.611  -1.994  0.00  0.00    +0.135 C 
ENDROOT
BRANCH   1   2
ATOM      2  N   UNL     1      -3.751  -2.090  -3.237  0.00  0.00    -0.320 N 
ATOM      3  C   UNL     1      -3.420  -3.433  -3.377  0.00  0.00    +0.097 A 
ATOM      4  C   UNL     1      -3.586  -4.299  -2.301  0.00  0.00    +0.041 A 
ATOM      5  C   UNL     1      -3.253  -5.633  -2.453  0.00  0.00    +0.005 A 
ATOM      6  C   UNL     1      -2.762  -6.057  -3.681  0.00  0.00    +0.021 A 
ATOM      7  C   UNL     1      -2.623  -5.143  -4.706  0.00  0.00    +0.014 A 
ATOM      8  N   UNL     1      -2.954  -3.877  -4.534  0.00  0.00    -0.347 N 
ATOM      9  C   UNL     1      -2.091  -5.598  -6.041  0.00  0.00    +0.063 C 
ATOM     10  H   UNL     1      -3.578  -1.470  -3.963  0.00  0.00    +0.148 HD
ATOM     11  H   UNL     1      -2.850  -3.256  -5.272  0.00  0.00    +0.167 HD
ENDBRANCH   1   2
BRANCH   1  12
ATOM     12  C   UNL     1      -5.184  -0.382  -2.280  0.00  0.00    -0.019 A 
ATOM     13  C   UNL     1      -4.665   0.629  -3.068  0.00  0.00    +0.009 A 
ATOM     14  C   UNL     1      -5.417   1.758  -3.333  0.00  0.00    +0.050 A 
ATOM     15  C   UNL     1      -6.694   1.879  -2.809  0.00  0.00    +0.162 A 
ATOM     16  C   UNL     1      -7.217   0.862  -2.017  0.00  0.00    +0.162 A 
ATOM     17  C   UNL     1      -6.460  -0.270  -1.759  0.00  0.00    +0.055 A 
BRANCH  16  18
ATOM     18  O   UNL     1      -8.470   0.976  -1.500  0.00  0.00    -0.491 OA
ATOM     19  C   UNL     1      -8.941  -0.108  -0.696  0.00  0.00    +0.277 C 
ENDBRANCH  16  18
BRANCH  15  20
ATOM     20  O   UNL     1      -7.434   2.990  -3.068  0.00  0.00    -0.491 OA
ATOM     21  C   UNL     1      -6.833   3.993  -3.889  0.00  0.00    +0.277 C 
ENDBRANCH  15  20
ENDBRANCH   1  12
BRANCH   1  24
ATOM     22  C   UNL     1      -1.059  -0.631  -0.516  0.00  0.00    -0.008 A 
ATOM     23  C   UNL     1      -2.009  -0.931  -1.434  0.00  0.00    +0.019 A 
ATOM     24  C   UNL     1      -3.278  -1.271  -1.003  0.00  0.00    +0.006 A 
ATOM     25  C   UNL     1      -3.532  -1.292   0.336  0.00  0.00    +0.078 A 
ATOM     26  S   UNL     1      -1.948  -0.830   1.019  0.00  0.00    -0.078 S 
BRANCH  25  27
ATOM     27  N   UNL     1      -4.720  -1.600   1.001  0.00  0.00    -0.273 N 
ATOM     28  C   UNL     1      -4.768  -1.563   2.347  0.00  0.00    +0.284 C 
ATOM     29  O   UNL     1      -3.776  -1.261   2.984  0.00  0.00    -0.266 OA
ATOM     30  H   UNL     1      -5.511  -1.841   0.494  0.00  0.00    +0.156 HD
BRANCH  28  31
ATOM     31  C   UNL     1      -6.016  -1.887   3.046  0.00  0.00    +0.189 A 
ATOM     32  C   UNL     1      -6.204  -1.882   4.398  0.00  0.00    +0.054 A 
ATOM     33  C   UNL     1      -7.540  -2.250   4.622  0.00  0.00    +0.042 A 
ATOM     34  C   UNL     1      -8.102  -2.460   3.412  0.00  0.00    +0.196 A 
ATOM     35  O   UNL     1      -7.183  -2.235   2.464  0.00  0.00    -0.458 OA
ENDBRANCH  28  31
ENDBRANCH  25  27
BRANCH  22  37
ATOM     36  C   UNL     1       0.477   1.287  -0.853  0.00  0.00    +0.009 C 
ATOM     37  C   UNL     1       0.379  -0.236  -0.734  0.00  0.00    +0.039 C 
ENDBRANCH  22  37
ENDBRANCH   1  24
TORSDOF 8
