REMARK  Name = ZINC05082375
REMARK  6 active torsions:
REMARK  status: ('A' for Active; 'I' for Inactive)
REMARK    1  A    between atoms: C_3  and  C_6
REMARK    2  A    between atoms: N_8  and  C_9
REMARK    3  A    between atoms: C_10  and  N_26
REMARK    4  A    between atoms: C_12  and  S_17
REMARK    5  A    between atoms: S_17  and  C_18
REMARK    6  A    between atoms: C_18  and  C_19
REMARK                            x       y       z     vdW  Elec       q    Type
REMARK                         _______ _______ _______ _____ _____    ______ ____
ROOT
ATOM      1  C   UNL     1      -4.392  -0.837   0.042  0.00  0.00    +0.139 A 
ATOM      2  C   UNL     1      -3.892   0.461   0.053  0.00  0.00    +0.146 A 
ATOM      3  N   UNL     1      -2.569   0.661   0.045  0.00  0.00    -0.207 NA
ATOM      4  C   UNL     1      -1.726  -0.350   0.026  0.00  0.00    +0.171 A 
ATOM      5  N   UNL     1      -2.163  -1.639   0.009  0.00  0.00    -0.300 N 
ATOM      6  H   UNL     1      -1.503  -2.390  -0.012  0.00  0.00    +0.171 HD
ATOM      7  C   UNL     1      -3.486  -1.907   0.022  0.00  0.00    +0.275 A 
ATOM      8  O   UNL     1      -3.886  -3.061   0.012  0.00  0.00    -0.266 OA
ENDROOT
BRANCH   1  11
ATOM      9  C   UNL     1      -6.354  -1.756  -0.960  0.00  0.00    +0.284 C 
ATOM     10  O   UNL     1      -5.662  -2.245  -1.834  0.00  0.00    -0.266 OA
ATOM     11  N   UNL     1      -5.781  -1.072   0.050  0.00  0.00    -0.272 N 
ATOM     12  H   UNL     1      -6.325  -0.741   0.782  0.00  0.00    +0.155 HD
BRANCH   9  15
ATOM     13  C   UNL     1      -9.873  -2.475  -1.614  0.00  0.00    +0.042 A 
ATOM     14  C   UNL     1      -8.518  -2.577  -1.966  0.00  0.00    +0.054 A 
ATOM     15  C   UNL     1      -7.812  -1.912  -1.005  0.00  0.00    +0.189 A 
ATOM     16  O   UNL     1      -8.689  -1.428  -0.102  0.00  0.00    -0.458 OA
ATOM     17  C   UNL     1      -9.934  -1.761  -0.469  0.00  0.00    +0.196 A 
ENDBRANCH   9  15
ENDBRANCH   1  11
BRANCH   2  18
ATOM     18  N   UNL     1      -4.758   1.539   0.072  0.00  0.00    -0.341 N 
ATOM     19  H   UNL     1      -4.406   2.443   0.079  0.00  0.00    +0.144 HD
ATOM     20  H   UNL     1      -5.716   1.391   0.078  0.00  0.00    +0.144 HD
ENDBRANCH   2  18
BRANCH   4  21
ATOM     21  S   UNL     1       0.006  -0.027   0.016  0.00  0.00    -0.083 S 
BRANCH  21  22
ATOM     22  C   UNL     1      -0.011   1.783   0.036  0.00  0.00    +0.112 C 
BRANCH  22  23
ATOM     23  C   UNL     1       1.405   2.299   0.030  0.00  0.00    -0.037 A 
ATOM     24  C   UNL     1       2.062   2.527   1.225  0.00  0.00    +0.006 A 
ATOM     25  C   UNL     1       3.362   2.995   1.220  0.00  0.00    +0.020 A 
ATOM     26  C   UNL     1       4.003   3.246   0.020  0.00  0.00    +0.041 A 
ATOM     27  C   UNL     1       3.343   3.022  -1.175  0.00  0.00    +0.020 A 
ATOM     28  C   UNL     1       2.044   2.549  -1.169  0.00  0.00    +0.006 A 
ATOM     29 CL   UNL     1       5.634   3.840   0.013  0.00  0.00    -0.084 Cl
ENDBRANCH  22  23
ENDBRANCH  21  22
ENDBRANCH   4  21
TORSDOF 6
