REMARK  Name = ZINC40611517
REMARK  6 active torsions:
REMARK  status: ('A' for Active; 'I' for Inactive)
REMARK    1  A    between atoms: C_4  and  C_7
REMARK    2  A    between atoms: C_7  and  N_8
REMARK    3  A    between atoms: C_15  and  N_28
REMARK    4  A    between atoms: C_16  and  N_20
REMARK    5  A    between atoms: N_20  and  N_21
REMARK    6  A    between atoms: N_21  and  C_22
REMARK                            x       y       z     vdW  Elec       q    Type
REMARK                         _______ _______ _______ _____ _____    ______ ____
ROOT
ATOM      1  N   UNL     1       3.679  -0.998   1.534  0.00  0.00    +0.384 N 
ATOM      2  C   UNL     1       2.823  -1.867   2.350  0.00  0.00    -0.059 C 
ATOM      3  C   UNL     1       3.429  -2.012   3.749  0.00  0.00    +0.088 C 
ATOM      4  N   UNL     1       4.816  -2.483   3.611  0.00  0.00    -0.317 N 
ATOM      5  C   UNL     1       5.703  -1.764   2.683  0.00  0.00    +0.088 C 
ATOM      6  C   UNL     1       4.989  -1.631   1.334  0.00  0.00    -0.059 C 
ATOM      7  C   UNL     1       5.274  -3.573   4.333  0.00  0.00    +0.157 A 
ATOM      8  C   UNL     1       5.840  -3.398   5.593  0.00  0.00    +0.207 A 
ATOM      9  C   UNL     1       6.285  -4.524   6.278  0.00  0.00    +0.170 A 
ATOM     10  N   UNL     1       6.155  -5.721   5.708  0.00  0.00    -0.217 NA
ATOM     11  C   UNL     1       5.614  -5.846   4.513  0.00  0.00    +0.225 A 
ATOM     12  N   UNL     1       5.176  -4.804   3.835  0.00  0.00    -0.218 NA
ATOM     13  H   UNL     1       3.803  -0.114   2.005  0.00  0.00    -0.081 HD
ENDROOT
BRANCH   8  14
ATOM     14  N   UNL     1       5.965  -2.049   6.188  0.00  0.00    +0.063 N 
ATOM     15  O   UNL     1       5.074  -1.605   6.874  0.00  0.00    -0.126 OA
ATOM     16  O   UNL     1       6.958  -1.389   5.988  0.00  0.00    -0.126 OA
ENDBRANCH   8  14
BRANCH   9  17
ATOM     17  N   UNL     1       6.856  -4.403   7.536  0.00  0.00    -0.249 N 
ATOM     18  H   UNL     1       6.947  -3.528   7.944  0.00  0.00    +0.172 HD
BRANCH  17  19
ATOM     19  N   UNL     1       7.300  -5.544   8.216  0.00  0.00    -0.265 N 
ATOM     20  H   UNL     1       7.208  -6.419   7.808  0.00  0.00    +0.170 HD
BRANCH  19  21
ATOM     21  C   UNL     1       7.875  -5.421   9.483  0.00  0.00    +0.044 A 
ATOM     22  C   UNL     1       8.002  -4.169  10.072  0.00  0.00    +0.024 A 
ATOM     23  C   UNL     1       8.571  -4.052  11.325  0.00  0.00    +0.002 A 
ATOM     24  C   UNL     1       9.014  -5.178  11.993  0.00  0.00    +0.000 A 
ATOM     25  C   UNL     1       8.890  -6.426  11.410  0.00  0.00    +0.002 A 
ATOM     26  C   UNL     1       8.317  -6.551  10.160  0.00  0.00    +0.024 A 
ENDBRANCH  19  21
ENDBRANCH  17  19
ENDBRANCH   9  17
BRANCH   1  27
ATOM     27  C   UNL     1       3.043  -0.770   0.230  0.00  0.00    -0.043 C 
BRANCH  27  31
ATOM     28  C   UNL     1      -0.606   1.382   0.780  0.00  0.00    +0.000 A 
ATOM     29  C   UNL     1       0.578   2.068   0.582  0.00  0.00    +0.000 A 
ATOM     30  C   UNL     1       1.759   1.371   0.404  0.00  0.00    +0.002 A 
ATOM     31  C   UNL     1       1.756  -0.011   0.424  0.00  0.00    -0.064 A 
ATOM     32  C   UNL     1       0.572  -0.697   0.623  0.00  0.00    +0.002 A 
ATOM     33  C   UNL     1      -0.609  -0.000   0.799  0.00  0.00    +0.000 A 
ENDBRANCH  27  31
ENDBRANCH   1  27
TORSDOF 6
