REMARK  Name = ZINC64491179
REMARK  7 active torsions:
REMARK  status: ('A' for Active; 'I' for Inactive)
REMARK    1  A    between atoms: C_1  and  C_2
REMARK    2  A    between atoms: C_8  and  C_11
REMARK    3  A    between atoms: C_11  and  C_12
REMARK    4  A    between atoms: C_12  and  N_13
REMARK    5  A    between atoms: C_14  and  C_16
REMARK    6  A    between atoms: C_16  and  C_17
REMARK    7  A    between atoms: N_25  and  C_26
REMARK                            x       y       z     vdW  Elec       q    Type
REMARK                         _______ _______ _______ _____ _____    ______ ____
ROOT
ATOM      1  N   UNL     1      -1.384  -2.597   5.603  0.00  0.00    -0.315 N 
ATOM      2  C   UNL     1      -2.542  -2.597   6.292  0.00  0.00    +0.213 C 
ATOM      3  O   UNL     1      -3.589  -2.810   5.718  0.00  0.00    -0.276 OA
ATOM      4  H   UNL     1      -0.547  -2.427   6.062  0.00  0.00    +0.149 HD
ENDROOT
BRANCH   1   5
ATOM      5  C   UNL     1      -1.390  -2.853   4.161  0.00  0.00    +0.108 C 
BRANCH   5   6
ATOM      6  C   UNL     1       0.043  -2.797   3.627  0.00  0.00    +0.052 C 
BRANCH   6  14
ATOM      7  C   UNL     1      -0.050   1.497  -0.012  0.00  0.00    +0.044 C 
ATOM      8  C   UNL     1      -0.026  -0.009  -0.017  0.00  0.00    -0.050 A 
ATOM      9  C   UNL     1      -0.025  -0.688  -1.244  0.00  0.00    +0.005 A 
ATOM     10  C   UNL     1      -0.004  -2.035  -1.332  0.00  0.00    +0.026 A 
ATOM     11  C   UNL     1       0.018  -2.832  -0.154  0.00  0.00    +0.043 A 
ATOM     12  N   UNL     1       0.039  -4.131   0.020  0.00  0.00    -0.380 N 
ATOM     13  C   UNL     1       0.053  -4.410   1.460  0.00  0.00    +0.144 C 
ATOM     14  C   UNL     1       0.037  -3.061   2.144  0.00  0.00    -0.040 C 
ATOM     15  C   UNL     1       0.016  -2.139   1.154  0.00  0.00    -0.001 A 
ATOM     16  C   UNL     1      -0.001  -0.672   1.162  0.00  0.00    +0.013 A 
ATOM     17  H   UNL     1       0.044  -4.797  -0.686  0.00  0.00    +0.160 HD
ENDBRANCH   6  14
ENDBRANCH   5   6
ENDBRANCH   1   5
BRANCH   2  18
ATOM     18  C   UNL     1      -2.537  -2.333   7.776  0.00  0.00    +0.099 C 
BRANCH  18  19
ATOM     19  C   UNL     1      -3.969  -2.390   8.310  0.00  0.00    +0.001 C 
ATOM     20  C   UNL     1      -4.787  -1.250   7.697  0.00  0.00    +0.023 C 
ATOM     21  C   UNL     1      -6.229  -1.331   8.207  0.00  0.00    +0.109 C 
ATOM     22  N   UNL     1      -6.212  -1.339   9.676  0.00  0.00    -0.286 N 
ATOM     23  C   UNL     1      -5.385  -2.338  10.367  0.00  0.00    +0.109 C 
ATOM     24  C   UNL     1      -3.952  -2.246   9.833  0.00  0.00    +0.023 C 
ATOM     25  C   UNL     1      -6.941  -0.448  10.376  0.00  0.00    +0.302 C 
ATOM     26  O   UNL     1      -7.545   0.433   9.796  0.00  0.00    -0.253 OA
ATOM     27  N   UNL     1      -6.999  -0.532  11.720  0.00  0.00    -0.296 N 
ATOM     28  H   UNL     1      -6.460  -1.189  12.189  0.00  0.00    +0.151 HD
BRANCH  27  29
ATOM     29  C   UNL     1      -7.876   0.367  12.473  0.00  0.00    +0.074 C 
ATOM     30  C   UNL     1      -7.149   1.688  12.735  0.00  0.00    +0.022 C 
ATOM     31  C   UNL     1      -8.065   2.628  13.521  0.00  0.00    +0.002 C 
ATOM     32  C   UNL     1      -8.438   1.978  14.856  0.00  0.00    +0.000 C 
ATOM     33  C   UNL     1      -9.165   0.657  14.594  0.00  0.00    +0.002 C 
ATOM     34  C   UNL     1      -8.249  -0.282  13.807  0.00  0.00    +0.022 C 
ENDBRANCH  27  29
ENDBRANCH  18  19
ENDBRANCH   2  18
TORSDOF 6
