REMARK  Name = ZINC34757934
REMARK  8 active torsions:
REMARK  status: ('A' for Active; 'I' for Inactive)
REMARK    1  A    between atoms: C_1  and  C_2
REMARK    2  A    between atoms: C_2  and  C_4
REMARK    3  A    between atoms: C_4  and  N_5
REMARK    4  A    between atoms: C_18  and  S_20
REMARK    5  A    between atoms: S_20  and  C_21
REMARK    6  A    between atoms: C_21  and  C_22
REMARK    7  A    between atoms: N_24  and  C_25
REMARK    8  A    between atoms: C_25  and  C_26
REMARK                            x       y       z     vdW  Elec       q    Type
REMARK                         _______ _______ _______ _____ _____    ______ ____
ROOT
ATOM      1  N   UNL     1      -2.479  -0.293  -0.954  0.00  0.00    +0.384 N 
ATOM      2  C   UNL     1      -3.916  -0.423  -1.226  0.00  0.00    -0.059 C 
ATOM      3  C   UNL     1      -4.118  -1.046  -2.611  0.00  0.00    +0.088 C 
ATOM      4  N   UNL     1      -3.384  -0.238  -3.598  0.00  0.00    -0.318 N 
ATOM      5  C   UNL     1      -1.974   0.079  -3.322  0.00  0.00    +0.088 C 
ATOM      6  C   UNL     1      -1.873   0.649  -1.904  0.00  0.00    -0.059 C 
ATOM      7  C   UNL     1      -4.001   0.209  -4.752  0.00  0.00    +0.134 A 
ATOM      8  C   UNL     1      -4.050  -0.617  -5.909  0.00  0.00    +0.051 A 
ATOM      9  C   UNL     1      -3.506  -1.974  -6.087  0.00  0.00    -0.025 A 
ATOM     10  C   UNL     1      -3.683  -2.546  -7.288  0.00  0.00    -0.004 A 
ATOM     11  S   UNL     1      -4.573  -1.342  -8.248  0.00  0.00    -0.073 S 
ATOM     12  C   UNL     1      -4.702  -0.065  -7.026  0.00  0.00    +0.115 A 
ATOM     13  N   UNL     1      -5.231   1.144  -6.990  0.00  0.00    -0.214 NA
ATOM     14  C   UNL     1      -5.156   1.871  -5.884  0.00  0.00    +0.191 A 
ATOM     15  N   UNL     1      -4.559   1.407  -4.792  0.00  0.00    -0.206 NA
ATOM     16  C   UNL     1      -3.083  -3.925  -7.356  0.00  0.00    +0.043 C 
ATOM     17  C   UNL     1      -2.116  -3.986  -6.153  0.00  0.00    +0.010 C 
ATOM     18  C   UNL     1      -2.746  -2.958  -5.193  0.00  0.00    +0.037 C 
ATOM     19  H   UNL     1      -2.038  -1.195  -1.050  0.00  0.00    -0.081 HD
ENDROOT
BRANCH   1  20
ATOM     20  C   UNL     1      -2.284   0.202   0.415  0.00  0.00    -0.048 C 
BRANCH  20  22
ATOM     21  C   UNL     1      -1.885  -1.982   1.789  0.00  0.00    +0.036 C 
ATOM     22  C   UNL     1      -2.776  -0.831   1.397  0.00  0.00    -0.096 C 
ATOM     23  C   UNL     1      -3.977  -0.728   1.909  0.00  0.00    +0.005 C 
ENDBRANCH  20  22
ENDBRANCH   1  20
BRANCH  14  24
ATOM     24  S   UNL     1      -5.869   3.482  -5.859  0.00  0.00    -0.077 S 
BRANCH  24  25
ATOM     25  C   UNL     1      -6.560   3.682  -7.525  0.00  0.00    +0.173 C 
BRANCH  25  26
ATOM     26  C   UNL     1      -7.209   5.037  -7.641  0.00  0.00    +0.224 C 
ATOM     27  O   UNL     1      -7.206   5.794  -6.693  0.00  0.00    -0.275 OA
ATOM     28  N   UNL     1      -7.793   5.407  -8.797  0.00  0.00    -0.311 N 
ATOM     29  H   UNL     1      -7.796   4.802  -9.555  0.00  0.00    +0.149 HD
BRANCH  28  30
ATOM     30  C   UNL     1      -8.424   6.725  -8.910  0.00  0.00    +0.139 C 
BRANCH  30  31
ATOM     31  C   UNL     1      -8.998   6.890 -10.293  0.00  0.00    -0.030 A 
ATOM     32  C   UNL     1      -8.222   7.426 -11.304  0.00  0.00    +0.005 A 
ATOM     33  C   UNL     1      -8.749   7.577 -12.573  0.00  0.00    +0.000 A 
ATOM     34  C   UNL     1     -10.051   7.193 -12.832  0.00  0.00    +0.000 A 
ATOM     35  C   UNL     1     -10.827   6.657 -11.821  0.00  0.00    +0.000 A 
ATOM     36  C   UNL     1     -10.299   6.502 -10.553  0.00  0.00    +0.005 A 
ENDBRANCH  30  31
ENDBRANCH  28  30
ENDBRANCH  25  26
ENDBRANCH  24  25
ENDBRANCH  14  24
TORSDOF 7
