REMARK  Name = ZINC02901888
REMARK  4 active torsions:
REMARK  status: ('A' for Active; 'I' for Inactive)
REMARK    1  A    between atoms: C_10  and  C_11
REMARK    2  A    between atoms: C_11  and  C_12
REMARK    3  A    between atoms: N_14  and  N_15
REMARK    4  A    between atoms: C_16  and  C_17
REMARK                            x       y       z     vdW  Elec       q    Type
REMARK                         _______ _______ _______ _____ _____    ______ ____
ROOT
ATOM      1  N   UNL     1      -2.292   7.693  -2.913  0.00  0.00    -0.188 NA
ATOM      2  C   UNL     1      -2.276   8.975  -3.142  0.00  0.00    +0.139 C 
ENDROOT
BRANCH   2   3
ATOM      3  C   UNL     1      -2.174   9.472  -4.517  0.00  0.00    +0.010 A 
ATOM      4  C   UNL     1      -2.283  10.852  -4.786  0.00  0.00    -0.009 A 
ATOM      5  C   UNL     1      -2.480  11.780  -3.749  0.00  0.00    +0.009 A 
ATOM      6  C   UNL     1      -2.575  13.105  -4.042  0.00  0.00    +0.001 A 
ATOM      7  C   UNL     1      -2.477  13.574  -5.351  0.00  0.00    +0.001 A 
ATOM      8  C   UNL     1      -2.282  12.730  -6.397  0.00  0.00    +0.008 A 
ATOM      9  C   UNL     1      -2.175  11.342  -6.162  0.00  0.00    -0.017 A 
ATOM     10  C   UNL     1      -1.975  10.449  -7.215  0.00  0.00    +0.017 A 
ATOM     11  C   UNL     1      -1.871   9.081  -6.958  0.00  0.00    -0.017 A 
ATOM     12  C   UNL     1      -1.972   8.576  -5.587  0.00  0.00    -0.009 A 
ATOM     13  C   UNL     1      -1.863   7.192  -5.364  0.00  0.00    +0.009 A 
ATOM     14  C   UNL     1      -1.667   6.356  -6.418  0.00  0.00    +0.001 A 
ATOM     15  C   UNL     1      -1.571   6.833  -7.724  0.00  0.00    +0.001 A 
ATOM     16  C   UNL     1      -1.668   8.159  -8.007  0.00  0.00    +0.008 A 
ENDBRANCH   2   3
BRANCH   1  19
ATOM     17  C   UNL     1      -2.406   5.891  -1.362  0.00  0.00    +0.237 C 
ATOM     18  O   UNL     1      -2.336   5.109  -2.287  0.00  0.00    -0.274 OA
ATOM     19  N   UNL     1      -2.389   7.218  -1.599  0.00  0.00    -0.207 N 
ATOM     20  H   UNL     1      -2.445   7.843  -0.860  0.00  0.00    +0.177 HD
BRANCH  17  21
ATOM     21  C   UNL     1      -2.510   5.379   0.051  0.00  0.00    +0.133 C 
BRANCH  21  31
ATOM     22  C   UNL     1       1.080   1.732  -0.021  0.00  0.00    +0.001 A 
ATOM     23  C   UNL     1       1.098   3.125  -0.012  0.00  0.00    +0.001 A 
ATOM     24  C   UNL     1      -0.059   3.841   0.008  0.00  0.00    +0.009 A 
ATOM     25  C   UNL     1      -1.293   3.168   0.021  0.00  0.00    -0.014 A 
ATOM     26  C   UNL     1      -1.311   1.751   0.007  0.00  0.00    -0.018 A 
ATOM     27  C   UNL     1      -0.095   1.046  -0.009  0.00  0.00    +0.008 A 
ATOM     28  C   UNL     1      -2.545   1.078   0.013  0.00  0.00    +0.008 A 
ATOM     29  C   UNL     1      -3.702   1.793   0.029  0.00  0.00    +0.001 A 
ATOM     30  C   UNL     1      -3.684   3.187   0.037  0.00  0.00    +0.005 A 
ATOM     31  C   UNL     1      -2.508   3.872   0.042  0.00  0.00    -0.031 A 
ENDBRANCH  21  31
ENDBRANCH  17  21
ENDBRANCH   1  19
TORSDOF 4
