REMARK  Name = ZINC01771782
REMARK  9 active torsions:
REMARK  status: ('A' for Active; 'I' for Inactive)
REMARK    1  A    between atoms: C_1  and  N_59
REMARK    2  A    between atoms: C_2  and  C_3
REMARK    3  A    between atoms: C_2  and  N_59
REMARK    4  A    between atoms: C_9  and  C_10
REMARK    5  A    between atoms: C_9  and  N_59
REMARK    6  A    between atoms: C_11  and  O_36
REMARK    7  A    between atoms: C_17  and  C_32
REMARK    8  A    between atoms: C_18  and  O_21
REMARK    9  A    between atoms: O_21  and  C_22
REMARK                            x       y       z     vdW  Elec       q    Type
REMARK                         _______ _______ _______ _____ _____    ______ ____
ROOT
ATOM      1  C   UNL     1       7.010   4.086   0.171  0.00  0.00    +0.020 A 
ATOM      2  C   UNL     1       7.647   4.505  -0.985  0.00  0.00    +0.122 A 
ATOM      3  C   UNL     1       7.125   4.187  -2.237  0.00  0.00    +0.046 A 
ATOM      4  C   UNL     1       5.976   3.456  -2.341  0.00  0.00    +0.019 A 
ATOM      5  C   UNL     1       5.323   3.026  -1.186  0.00  0.00    +0.068 A 
ATOM      6  C   UNL     1       5.841   3.342   0.082  0.00  0.00    +0.144 A 
ATOM      7  O   UNL     1       5.201   2.921   1.191  0.00  0.00    -0.447 OA
ATOM      8  C   UNL     1       4.072   2.201   1.139  0.00  0.00    +0.254 A 
ATOM      9  C   UNL     1       3.489   1.843  -0.022  0.00  0.00    +0.222 A 
ATOM     10  C   UNL     1       4.084   2.231  -1.256  0.00  0.00    +0.235 A 
ATOM     11  O   UNL     1       3.588   1.921  -2.326  0.00  0.00    -0.283 OA
ENDROOT
BRANCH   8  12
ATOM     12  C   UNL     1       3.428   1.775   2.433  0.00  0.00    +0.454 C 
ATOM     13  F   UNL     1       3.937   0.531   2.820  0.00  0.00    -0.163 F 
ATOM     14  F   UNL     1       3.703   2.721   3.425  0.00  0.00    -0.163 F 
ATOM     15  F   UNL     1       2.043   1.677   2.254  0.00  0.00    -0.163 F 
ENDBRANCH   8  12
BRANCH   2  16
ATOM     16  O   UNL     1       8.790   5.232  -0.897  0.00  0.00    -0.506 OA
ATOM     17  H   UNL     1       9.595   4.698  -0.879  0.00  0.00    +0.292 HD
ENDBRANCH   2  16
BRANCH   1  18
ATOM     18  C   UNL     1       7.583   4.435   1.520  0.00  0.00    -0.035 C 
BRANCH  18  20
ATOM     19  C   UNL     1       9.690   3.333   1.067  0.00  0.00    -0.095 C 
ATOM     20  N   UNL     1       8.500   3.356   1.943  0.00  0.00    +0.383 N 
ATOM     21  H   UNL     1       8.012   2.455   1.867  0.00  0.00    -0.081 HD
BRANCH  20  22
ATOM     22  C   UNL     1       8.910   3.562   3.348  0.00  0.00    -0.043 C 
BRANCH  22  23
ATOM     23  C   UNL     1       9.660   2.343   3.820  0.00  0.00    -0.064 A 
ATOM     24  C   UNL     1       8.974   1.291   4.397  0.00  0.00    +0.002 A 
ATOM     25  C   UNL     1       9.661   0.170   4.825  0.00  0.00    +0.000 A 
ATOM     26  C   UNL     1      11.035   0.107   4.686  0.00  0.00    +0.000 A 
ATOM     27  C   UNL     1      11.721   1.162   4.114  0.00  0.00    +0.000 A 
ATOM     28  C   UNL     1      11.034   2.280   3.681  0.00  0.00    +0.002 A 
ENDBRANCH  22  23
ENDBRANCH  20  22
ENDBRANCH  18  20
ENDBRANCH   1  18
BRANCH   9  29
ATOM     29  O   UNL     1       2.342   1.111  -0.015  0.00  0.00    -0.448 OA
BRANCH  29  30
ATOM     30  C   UNL     1       1.159   1.779   0.001  0.00  0.00    +0.129 A 
ATOM     31  C   UNL     1       1.156   3.178   0.008  0.00  0.00    +0.047 A 
ATOM     32  C   UNL     1      -0.012   3.874   0.024  0.00  0.00    +0.012 A 
ATOM     33  C   UNL     1      -1.236   3.183   0.032  0.00  0.00    -0.018 A 
ATOM     34  C   UNL     1      -2.461   3.871   0.048  0.00  0.00    +0.008 A 
ATOM     35  C   UNL     1      -3.628   3.171   0.055  0.00  0.00    +0.001 A 
ATOM     36  C   UNL     1      -3.628   1.777   0.046  0.00  0.00    +0.001 A 
ATOM     37  C   UNL     1      -2.461   1.076   0.031  0.00  0.00    +0.008 A 
ATOM     38  C   UNL     1      -1.236   1.766   0.018  0.00  0.00    -0.014 A 
ATOM     39  C   UNL     1      -0.013   1.076   0.008  0.00  0.00    +0.054 A 
ENDBRANCH  29  30
ENDBRANCH   9  29
TORSDOF 8
