REMARK  Name = ZINC25436286
REMARK  13 active torsions:
REMARK  status: ('A' for Active; 'I' for Inactive)
REMARK    1  A    between atoms: C_1  and  C_2
REMARK    2  A    between atoms: C_4  and  C_33
REMARK    3  A    between atoms: C_6  and  N_8
REMARK    4  A    between atoms: C_12  and  C_13
REMARK    5  A    between atoms: C_16  and  O_19
REMARK    6  A    between atoms: O_19  and  C_20
REMARK    7  A    between atoms: C_22  and  S_23
REMARK    8  A    between atoms: S_23  and  C_24
REMARK    9  A    between atoms: C_24  and  C_25
REMARK   10  A    between atoms: C_25  and  C_27
REMARK   11  A    between atoms: C_27  and  C_31
REMARK   12  A    between atoms: C_28  and  C_29
REMARK   13  A    between atoms: C_28  and  N_30
REMARK                            x       y       z     vdW  Elec       q    Type
REMARK                         _______ _______ _______ _____ _____    ______ ____
ROOT
ATOM      1  N   UNL     1      -0.605   1.090   1.937  0.00  0.00    -0.214 N 
ATOM      2  C   UNL     1       0.649   0.592   2.002  0.00  0.00    +0.275 C 
ATOM      3  O   UNL     1       0.986  -0.507   2.402  0.00  0.00    -0.268 OA
ATOM      4  C   UNL     1       1.524   1.659   1.483  0.00  0.00    +0.129 C 
ATOM      5  C   UNL     1       2.884   1.619   1.354  0.00  0.00    +0.041 C 
ATOM      6  N   UNL     1       0.697   2.698   1.158  0.00  0.00    -0.220 NA
ATOM      7  C   UNL     1      -0.539   2.363   1.424  0.00  0.00    +0.169 C 
ENDROOT
BRANCH   1  13
ATOM      8  C   UNL     1      -4.469   0.732   4.958  0.00  0.00    +0.044 C 
ATOM      9  C   UNL     1      -3.665   0.228   3.788  0.00  0.00    -0.048 A 
ATOM     10  C   UNL     1      -4.082  -0.895   3.097  0.00  0.00    +0.006 A 
ATOM     11  C   UNL     1      -3.347  -1.361   2.022  0.00  0.00    -0.048 A 
ATOM     12  C   UNL     1      -2.195  -0.706   1.635  0.00  0.00    +0.027 A 
ATOM     13  C   UNL     1      -1.774   0.422   2.327  0.00  0.00    +0.044 A 
ATOM     14  C   UNL     1      -2.510   0.884   3.410  0.00  0.00    +0.027 A 
ATOM     15  C   UNL     1      -3.804  -2.586   1.272  0.00  0.00    +0.044 C 
ENDBRANCH   1  13
BRANCH   5  16
ATOM     16  C   UNL     1       3.618   2.824   0.955  0.00  0.00    -0.023 A 
ATOM     17  C   UNL     1       4.993   2.755   0.693  0.00  0.00    +0.011 A 
ATOM     18  C   UNL     1       5.676   3.888   0.313  0.00  0.00    +0.046 A 
ATOM     19  C   UNL     1       5.006   5.101   0.200  0.00  0.00    +0.120 A 
ATOM     20  C   UNL     1       3.643   5.177   0.463  0.00  0.00    +0.046 A 
ATOM     21  C   UNL     1       2.949   4.050   0.839  0.00  0.00    +0.011 A 
BRANCH  19  22
ATOM     22  O   UNL     1       5.686   6.217  -0.170  0.00  0.00    -0.495 OA
ATOM     23  C   UNL     1       7.085   6.069  -0.426  0.00  0.00    +0.277 C 
ENDBRANCH  19  22
ENDBRANCH   5  16
BRANCH   7  24
ATOM     24  S   UNL     1      -1.935   3.402   1.151  0.00  0.00    -0.082 S 
BRANCH  24  25
ATOM     25  C   UNL     1      -1.110   4.869   0.484  0.00  0.00    +0.157 C 
BRANCH  25  26
ATOM     26  C   UNL     1      -2.138   5.924   0.168  0.00  0.00    +0.185 C 
ATOM     27  O   UNL     1      -3.315   5.706   0.375  0.00  0.00    -0.290 OA
BRANCH  26  28
ATOM     28  C   UNL     1      -1.733   7.169  -0.369  0.00  0.00    +0.111 C 
ATOM     29  C   UNL     1      -2.682   8.082  -0.793  0.00  0.00    +0.019 C 
ATOM     30  C   UNL     1      -4.136   7.689  -0.841  0.00  0.00    +0.061 C 
BRANCH  29  31
ATOM     31  N   UNL     1      -2.306   9.323  -1.164  0.00  0.00    -0.360 N 
ATOM     32  H   UNL     1      -3.061  10.049  -1.502  0.00  0.00    +0.142 HD
ATOM     33  H   UNL     1      -1.245   9.610  -1.129  0.00  0.00    +0.142 HD
ENDBRANCH  29  31
BRANCH  28  34
ATOM     34  C   UNL     1      -0.340   7.485  -0.473  0.00  0.00    +0.104 C 
ATOM     35  N   UNL     1       0.765   7.735  -0.556  0.00  0.00    -0.191 NA
ENDBRANCH  28  34
ENDBRANCH  26  28
ENDBRANCH  25  26
ENDBRANCH  24  25
ENDBRANCH   7  24
TORSDOF 9
