REMARK  Name = ZINC35645038
REMARK  12 active torsions:
REMARK  status: ('A' for Active; 'I' for Inactive)
REMARK    1  A    between atoms: C_1  and  C_2
REMARK    2  A    between atoms: C_2  and  O_3
REMARK    3  A    between atoms: O_3  and  C_4
REMARK    4  A    between atoms: C_4  and  C_6
REMARK    5  A    between atoms: C_7  and  C_22
REMARK    6  A    between atoms: N_8  and  C_21
REMARK    7  A    between atoms: C_12  and  C_14
REMARK    8  A    between atoms: C_17  and  C_20
REMARK    9  A    between atoms: C_22  and  N_23
REMARK   10  A    between atoms: N_32  and  C_33
REMARK   11  A    between atoms: C_33  and  C_34
REMARK   12  A    between atoms: C_33  and  C_35
REMARK                            x       y       z     vdW  Elec       q    Type
REMARK                         _______ _______ _______ _____ _____    ______ ____
ROOT
ATOM      1  C   UNL     1      -2.196  -2.851   0.703  0.00  0.00    +0.076 C 
ATOM      2  C   UNL     1      -2.696  -4.054   0.348  0.00  0.00    +0.010 C 
ATOM      3  N   UNL     1      -4.020  -4.207   0.049  0.00  0.00    -0.264 N 
ATOM      4  C   UNL     1      -4.909  -3.207   0.081  0.00  0.00    +0.307 C 
ATOM      5  O   UNL     1      -6.067  -3.440  -0.202  0.00  0.00    -0.252 OA
ATOM      6  N   UNL     1      -4.561  -1.948   0.416  0.00  0.00    -0.288 N 
ATOM      7  C   UNL     1      -3.155  -1.679   0.763  0.00  0.00    +0.143 C 
ATOM      8  C   UNL     1      -4.494  -5.541  -0.327  0.00  0.00    +0.139 C 
ATOM      9  H   UNL     1      -5.221  -1.238   0.432  0.00  0.00    +0.151 HD
ENDROOT
BRANCH   7  10
ATOM     10  C   UNL     1      -2.646  -0.614  -0.175  0.00  0.00    -0.022 A 
ATOM     11  C   UNL     1      -2.888  -0.715  -1.532  0.00  0.00    +0.006 A 
ATOM     12  C   UNL     1      -2.422   0.261  -2.392  0.00  0.00    +0.004 A 
ATOM     13  C   UNL     1      -1.714   1.340  -1.894  0.00  0.00    -0.050 A 
ATOM     14  C   UNL     1      -1.473   1.441  -0.537  0.00  0.00    +0.004 A 
ATOM     15  C   UNL     1      -1.943   0.467   0.323  0.00  0.00    +0.006 A 
ATOM     16  C   UNL     1      -1.205   2.404  -2.832  0.00  0.00    +0.044 C 
ENDBRANCH   7  10
BRANCH   1  17
ATOM     17  C   UNL     1      -0.825  -2.691   1.013  0.00  0.00    +0.339 C 
ATOM     18  O   UNL     1      -0.099  -3.665   1.080  0.00  0.00    -0.245 OA
BRANCH  17  19
ATOM     19  O   UNL     1      -0.323  -1.458   1.234  0.00  0.00    -0.462 OA
BRANCH  19  21
ATOM     20  C   UNL     1       1.453   0.094   1.759  0.00  0.00    +0.048 C 
ATOM     21  C   UNL     1       1.070  -1.371   1.542  0.00  0.00    +0.229 C 
ENDBRANCH  19  21
ENDBRANCH  17  19
ENDBRANCH   1  17
BRANCH   2  22
ATOM     22  C   UNL     1      -1.778  -5.247   0.281  0.00  0.00    -0.026 C 
BRANCH  22  23
ATOM     23  N   UNL     1      -1.605  -5.809   1.627  0.00  0.00    +0.384 N 
ATOM     24  C   UNL     1      -0.525  -6.792   1.582  0.00  0.00    -0.077 C 
ATOM     25  C   UNL     1       0.156  -6.848   2.931  0.00  0.00    +0.000 C 
ATOM     26  C   UNL     1      -0.482  -7.963   3.780  0.00  0.00    +0.107 C 
ATOM     27  N   UNL     1      -1.947  -7.998   3.597  0.00  0.00    -0.287 N 
ATOM     28  C   UNL     1      -2.748  -6.794   3.529  0.00  0.00    +0.091 C 
ATOM     29  C   UNL     1      -2.850  -6.313   2.064  0.00  0.00    -0.059 C 
ATOM     30  C   UNL     1      -2.560  -9.194   3.488  0.00  0.00    +0.302 C 
ATOM     31  O   UNL     1      -1.922 -10.219   3.632  0.00  0.00    -0.253 OA
ATOM     32  N   UNL     1      -3.879  -9.253   3.220  0.00  0.00    -0.297 N 
ATOM     33  H   UNL     1      -4.373  -8.439   3.033  0.00  0.00    +0.150 HD
ATOM     34  H   UNL     1      -1.328  -5.063   2.248  0.00  0.00    -0.081 HD
BRANCH  32  35
ATOM     35  C   UNL     1      -4.568 -10.546   3.211  0.00  0.00    +0.068 C 
ATOM     36  C   UNL     1      -4.990 -10.908   4.636  0.00  0.00    +0.027 C 
ATOM     37  C   UNL     1      -5.807 -10.457   2.318  0.00  0.00    +0.027 C 
ENDBRANCH  32  35
ENDBRANCH  22  23
ENDBRANCH   2  22
TORSDOF 7
