REMARK  Name = ZINC45717043
REMARK  10 active torsions:
REMARK  status: ('A' for Active; 'I' for Inactive)
REMARK    1  A    between atoms: C_1  and  C_2
REMARK    2  A    between atoms: C_4  and  C_29
REMARK    3  A    between atoms: C_8  and  N_28
REMARK    4  A    between atoms: C_9  and  C_11
REMARK    5  A    between atoms: C_11  and  O_13
REMARK    6  A    between atoms: O_13  and  C_14
REMARK    7  A    between atoms: C_14  and  C_15
REMARK    8  A    between atoms: N_17  and  C_18
REMARK    9  A    between atoms: C_21  and  S_24
REMARK   10  A    between atoms: S_24  and  N_27
REMARK                            x       y       z     vdW  Elec       q    Type
REMARK                         _______ _______ _______ _____ _____    ______ ____
ROOT
ATOM      1  O   UNL     1       1.607  -2.049   4.720  0.00  0.00    -0.451 OA
ENDROOT
BRANCH   1   2
ATOM      2  C   UNL     1       1.015  -0.978   4.150  0.00  0.00    +0.348 C 
ATOM      3  O   UNL     1       1.140   0.124   4.652  0.00  0.00    -0.244 OA
BRANCH   2  12
ATOM      4  C   UNL     1      -2.038   1.705   0.395  0.00  0.00    +0.044 C 
ATOM      5  C   UNL     1      -1.904   0.221   0.167  0.00  0.00    -0.037 A 
ATOM      6  C   UNL     1      -2.511  -0.376  -0.913  0.00  0.00    +0.025 A 
ATOM      7  C   UNL     1      -2.387  -1.742  -1.121  0.00  0.00    +0.014 A 
ATOM      8  N   UNL     1      -1.686  -2.484  -0.285  0.00  0.00    -0.353 N 
ATOM      9  C   UNL     1      -1.087  -1.959   0.762  0.00  0.00    +0.088 A 
ATOM     10  C   UNL     1      -1.148  -0.578   1.059  0.00  0.00    +0.030 A 
ATOM     11  C   UNL     1      -0.422  -0.170   2.252  0.00  0.00    +0.055 A 
ATOM     12  C   UNL     1       0.250  -1.136   2.971  0.00  0.00    +0.119 A 
ATOM     13  S   UNL     1      -0.087  -2.633   2.065  0.00  0.00    -0.062 S 
ATOM     14  C   UNL     1      -3.057  -2.382  -2.308  0.00  0.00    +0.063 C 
ATOM     15  H   UNL     1      -1.611  -3.437  -0.446  0.00  0.00    +0.166 HD
BRANCH  11  16
ATOM     16  N   UNL     1      -0.406   1.156   2.656  0.00  0.00    -0.356 N 
ATOM     17  H   UNL     1      -0.612   1.859   2.020  0.00  0.00    +0.142 HD
ATOM     18  H   UNL     1      -0.190   1.381   3.574  0.00  0.00    +0.142 HD
ENDBRANCH  11  16
ENDBRANCH   2  12
ENDBRANCH   1   2
BRANCH   1  19
ATOM     19  C   UNL     1       2.364  -1.816   5.909  0.00  0.00    +0.328 C 
BRANCH  19  20
ATOM     20  C   UNL     1       2.946  -3.118   6.397  0.00  0.00    +0.255 C 
ATOM     21  O   UNL     1       2.733  -4.144   5.787  0.00  0.00    -0.272 OA
ATOM     22  N   UNL     1       3.703  -3.141   7.512  0.00  0.00    -0.283 N 
ATOM     23  H   UNL     1       3.871  -2.321   8.002  0.00  0.00    +0.155 HD
BRANCH  22  24
ATOM     24  C   UNL     1       4.246  -4.349   7.963  0.00  0.00    +0.034 A 
ATOM     25  C   UNL     1       4.470  -4.548   9.319  0.00  0.00    +0.025 A 
ATOM     26  C   UNL     1       5.006  -5.741   9.762  0.00  0.00    +0.030 A 
ATOM     27  C   UNL     1       5.320  -6.738   8.856  0.00  0.00    +0.105 A 
ATOM     28  C   UNL     1       5.098  -6.543   7.505  0.00  0.00    +0.030 A 
ATOM     29  C   UNL     1       4.556  -5.354   7.057  0.00  0.00    +0.025 A 
BRANCH  27  30
ATOM     30  S   UNL     1       6.004  -8.259   9.424  0.00  0.00    +0.056 S 
ATOM     31  O   UNL     1       6.716  -8.818   8.329  0.00  0.00    -0.153 OA
ATOM     32  O   UNL     1       6.621  -7.985  10.674  0.00  0.00    -0.153 OA
BRANCH  30  33
ATOM     33  N   UNL     1       4.737  -9.280   9.736  0.00  0.00    -0.204 NA
ATOM     34  H   UNL     1       4.850 -10.238   9.634  0.00  0.00    +0.144 HD
ATOM     35  H   UNL     1       3.882  -8.919  10.019  0.00  0.00    +0.144 HD
ENDBRANCH  30  33
ENDBRANCH  27  30
ENDBRANCH  22  24
ENDBRANCH  19  20
ENDBRANCH   1  19
TORSDOF 8
