REMARK  Name = ZINC12741683
REMARK  10 active torsions:
REMARK  status: ('A' for Active; 'I' for Inactive)
REMARK    1  A    between atoms: C_1  and  C_2
REMARK    2  A    between atoms: C_2  and  C_3
REMARK    3  A    between atoms: C_2  and  C_4
REMARK    4  A    between atoms: C_2  and  O_25
REMARK    5  A    between atoms: N_6  and  N_7
REMARK    6  A    between atoms: C_8  and  C_10
REMARK    7  A    between atoms: C_15  and  N_16
REMARK    8  A    between atoms: N_16  and  S_17
REMARK    9  A    between atoms: S_17  and  C_20
REMARK   10  A    between atoms: O_25  and  C_26
REMARK                            x       y       z     vdW  Elec       q    Type
REMARK                         _______ _______ _______ _____ _____    ______ ____
ROOT
ATOM      1  N   UNL     1       3.537   7.403  -0.161  0.00  0.00    -0.230 N 
ATOM      2  C   UNL     1       4.586   8.232   0.006  0.00  0.00    +0.262 C 
ATOM      3  O   UNL     1       5.719   7.820  -0.153  0.00  0.00    -0.269 OA
ATOM      4  H   UNL     1       2.633   7.732  -0.035  0.00  0.00    +0.173 HD
ENDROOT
BRANCH   2   5
ATOM      5  C   UNL     1       4.360   9.640   0.381  0.00  0.00    +0.060 A 
ATOM      6  C   UNL     1       3.060  10.120   0.559  0.00  0.00    +0.015 A 
ATOM      7  C   UNL     1       2.856  11.436   0.914  0.00  0.00    +0.001 A 
ATOM      8  C   UNL     1       3.934  12.290   1.086  0.00  0.00    +0.002 A 
ATOM      9  C   UNL     1       5.223  11.832   0.909  0.00  0.00    +0.025 A 
ATOM     10  C   UNL     1       5.449  10.508   0.556  0.00  0.00    +0.060 A 
BRANCH  10  11
ATOM     11  N   UNL     1       6.746  10.045   0.378  0.00  0.00    -0.215 N 
ATOM     12  H   UNL     1       6.937   9.389  -0.312  0.00  0.00    +0.174 HD
BRANCH  11  13
ATOM     13  S   UNL     1       7.968  10.611   1.341  0.00  0.00    +0.079 S 
ATOM     14  O   UNL     1       9.131   9.870   1.000  0.00  0.00    -0.149 OA
ATOM     15  O   UNL     1       7.919  12.030   1.267  0.00  0.00    -0.149 OA
BRANCH  13  16
ATOM     16  C   UNL     1       7.564  10.180   3.001  0.00  0.00    +0.146 A 
ATOM     17  C   UNL     1       7.881   9.058   3.693  0.00  0.00    +0.036 A 
ATOM     18  C   UNL     1       7.453   8.933   5.001  0.00  0.00    +0.010 A 
ATOM     19  C   UNL     1       6.729   9.937   5.554  0.00  0.00    +0.047 A 
ATOM     20  S   UNL     1       6.639  11.110   4.212  0.00  0.00    -0.077 S 
ENDBRANCH  13  16
ENDBRANCH  11  13
ENDBRANCH  10  11
ENDBRANCH   2   5
BRANCH   1  23
ATOM     21  C   UNL     1       2.703   5.236  -0.685  0.00  0.00    +0.272 C 
ATOM     22  O   UNL     1       1.573   5.647  -0.527  0.00  0.00    -0.270 OA
ATOM     23  N   UNL     1       3.752   6.065  -0.518  0.00  0.00    -0.231 N 
ATOM     24  H   UNL     1       4.655   5.736  -0.645  0.00  0.00    +0.173 HD
BRANCH  21  26
ATOM     25  C   UNL     1       3.779   3.111   0.006  0.00  0.00    +0.065 C 
ATOM     26  C   UNL     1       2.933   3.797  -1.069  0.00  0.00    +0.181 C 
ATOM     27  C   UNL     1       3.668   3.738  -2.410  0.00  0.00    +0.065 C 
BRANCH  26  28
ATOM     28  O   UNL     1       1.676   3.127  -1.185  0.00  0.00    -0.477 OA
BRANCH  28  29
ATOM     29  C   UNL     1       0.813   3.594  -2.126  0.00  0.00    +0.122 A 
ATOM     30  C   UNL     1      -0.368   2.914  -2.382  0.00  0.00    +0.047 A 
ATOM     31  C   UNL     1      -1.245   3.390  -3.338  0.00  0.00    +0.023 A 
ATOM     32  C   UNL     1      -0.945   4.544  -4.039  0.00  0.00    +0.041 A 
ATOM     33  C   UNL     1       0.234   5.223  -3.785  0.00  0.00    +0.023 A 
ATOM     34  C   UNL     1       1.113   4.750  -2.830  0.00  0.00    +0.047 A 
ATOM     35 CL   UNL     1      -2.047   5.141  -5.240  0.00  0.00    -0.084 Cl
ENDBRANCH  28  29
ENDBRANCH  26  28
ENDBRANCH  21  26
ENDBRANCH   1  23
TORSDOF 8
