REMARK  Name = ZINC35097630
REMARK  7 active torsions:
REMARK  status: ('A' for Active; 'I' for Inactive)
REMARK    1  A    between atoms: C_1  and  C_2
REMARK    2  A    between atoms: C_7  and  S_8
REMARK    3  A    between atoms: S_8  and  N_11
REMARK    4  A    between atoms: N_11  and  C_12
REMARK    5  A    between atoms: C_12  and  C_13
REMARK    6  A    between atoms: N_15  and  C_16
REMARK    7  A    between atoms: C_16  and  C_17
REMARK                            x       y       z     vdW  Elec       q    Type
REMARK                         _______ _______ _______ _____ _____    ______ ____
ROOT
ATOM      1  S   UNL     1      -0.070  -0.046   2.739  0.00  0.00    +0.059 S 
ATOM      2  O   UNL     1      -1.271   0.710   2.800  0.00  0.00    -0.153 OA
ATOM      3  O   UNL     1       0.197  -1.125   3.624  0.00  0.00    -0.153 OA
ENDROOT
BRANCH   1  10
ATOM      4  C   UNL     1       2.223  -1.738   1.726  0.00  0.00    +0.046 C 
ATOM      5  C   UNL     1       1.123  -1.462   0.734  0.00  0.00    -0.024 A 
ATOM      6  C   UNL     1       1.201  -1.979  -0.547  0.00  0.00    +0.006 A 
ATOM      7  C   UNL     1       0.192  -1.727  -1.457  0.00  0.00    +0.015 A 
ATOM      8  C   UNL     1      -0.896  -0.958  -1.087  0.00  0.00    +0.020 A 
ATOM      9  C   UNL     1      -0.974  -0.441   0.194  0.00  0.00    +0.044 A 
ATOM     10  C   UNL     1       0.033  -0.698   1.105  0.00  0.00    +0.109 A 
ATOM     11 BR   UNL     1      -2.277  -0.612  -2.331  0.00  0.00    -0.050 Br
ENDBRANCH   1  10
BRANCH   1  12
ATOM     12  N   UNL     1       1.177   1.030   2.916  0.00  0.00    -0.181 NA
ATOM     13  H   UNL     1       1.879   0.856   3.561  0.00  0.00    +0.149 HD
BRANCH  12  14
ATOM     14  C   UNL     1       1.217   2.244   2.098  0.00  0.00    +0.201 C 
BRANCH  14  15
ATOM     15  C   UNL     1       2.192   3.223   2.699  0.00  0.00    +0.229 C 
ATOM     16  O   UNL     1       2.794   2.935   3.712  0.00  0.00    -0.274 OA
ATOM     17  N   UNL     1       2.396   4.419   2.112  0.00  0.00    -0.304 N 
ATOM     18  H   UNL     1       1.915   4.650   1.302  0.00  0.00    +0.149 HD
BRANCH  17  19
ATOM     19  C   UNL     1       3.344   5.371   2.697  0.00  0.00    +0.229 C 
BRANCH  19  20
ATOM     20  C   UNL     1       3.386   6.620   1.855  0.00  0.00    +0.373 C 
ATOM     21  O   UNL     1       2.688   6.707   0.859  0.00  0.00    -0.245 OA
ATOM     22  O   UNL     1       4.117   7.543   2.170  0.00  0.00    -0.245 OA
ENDBRANCH  19  20
ENDBRANCH  17  19
ENDBRANCH  14  15
ENDBRANCH  12  14
ENDBRANCH   1  12
TORSDOF 6
