REMARK  Name = ZINC22370030
REMARK  15 active torsions:
REMARK  status: ('A' for Active; 'I' for Inactive)
REMARK    1  A    between atoms: C_1  and  C_2
REMARK    2  A    between atoms: C_2  and  C_3
REMARK    3  A    between atoms: C_3  and  C_5
REMARK    4  A    between atoms: C_3  and  N_13
REMARK    5  A    between atoms: C_8  and  C_12
REMARK    6  A    between atoms: C_10  and  C_11
REMARK    7  A    between atoms: C_14  and  C_16
REMARK    8  A    between atoms: C_16  and  N_17
REMARK    9  A    between atoms: N_17  and  C_18
REMARK   10  A    between atoms: N_17  and  S_25
REMARK   11  A    between atoms: S_25  and  C_28
REMARK   12  A    between atoms: C_31  and  O_36
REMARK   13  A    between atoms: C_32  and  O_34
REMARK   14  A    between atoms: O_34  and  C_35
REMARK   15  A    between atoms: O_36  and  C_37
REMARK                            x       y       z     vdW  Elec       q    Type
REMARK                         _______ _______ _______ _____ _____    ______ ____
ROOT
ATOM      1  N   UNL     1      -1.083  -2.211  -2.069  0.00  0.00    -0.194 N 
ENDROOT
BRANCH   1   2
ATOM      2  C   UNL     1      -0.510  -3.211  -2.859  0.00  0.00    +0.052 A 
ATOM      3  C   UNL     1       0.596  -3.913  -2.399  0.00  0.00    +0.026 A 
ATOM      4  C   UNL     1       1.156  -4.905  -3.179  0.00  0.00    +0.022 A 
ATOM      5  C   UNL     1       0.624  -5.191  -4.425  0.00  0.00    +0.041 A 
ATOM      6  C   UNL     1      -0.475  -4.489  -4.888  0.00  0.00    +0.022 A 
ATOM      7  C   UNL     1      -1.043  -3.500  -4.109  0.00  0.00    +0.026 A 
ATOM      8 CL   UNL     1       1.335  -6.433  -5.407  0.00  0.00    -0.084 Cl
ENDBRANCH   1   2
BRANCH   1   9
ATOM      9  S   UNL     1      -0.920  -2.262  -0.422  0.00  0.00    +0.075 S 
ATOM     10  O   UNL     1      -1.561  -1.100   0.086  0.00  0.00    -0.150 OA
ATOM     11  O   UNL     1       0.445  -2.556  -0.158  0.00  0.00    -0.150 OA
BRANCH   9  12
ATOM     12  C   UNL     1      -1.852  -3.643   0.151  0.00  0.00    +0.112 A 
ATOM     13  C   UNL     1      -3.170  -3.475   0.534  0.00  0.00    +0.032 A 
ATOM     14  C   UNL     1      -3.906  -4.555   0.984  0.00  0.00    +0.051 A 
ATOM     15  C   UNL     1      -3.323  -5.810   1.052  0.00  0.00    +0.162 A 
ATOM     16  C   UNL     1      -1.996  -5.980   0.667  0.00  0.00    +0.163 A 
ATOM     17  C   UNL     1      -1.264  -4.893   0.217  0.00  0.00    +0.078 A 
BRANCH  16  18
ATOM     18  O   UNL     1      -1.419  -7.210   0.732  0.00  0.00    -0.491 OA
ATOM     19  C   UNL     1      -0.025  -7.289   0.428  0.00  0.00    +0.277 C 
ENDBRANCH  16  18
BRANCH  15  20
ATOM     20  O   UNL     1      -4.045  -6.874   1.494  0.00  0.00    -0.491 OA
ATOM     21  C   UNL     1      -5.401  -6.626   1.873  0.00  0.00    +0.277 C 
ENDBRANCH  15  20
ENDBRANCH   9  12
ENDBRANCH   1   9
BRANCH   1  22
ATOM     22  C   UNL     1      -1.828  -1.117  -2.697  0.00  0.00    +0.227 C 
BRANCH  22  24
ATOM     23  N   UNL     1      -1.340   1.124  -3.625  0.00  0.00    -0.307 N 
ATOM     24  C   UNL     1      -0.869  -0.031  -3.114  0.00  0.00    +0.233 C 
ATOM     25  O   UNL     1       0.326  -0.197  -2.990  0.00  0.00    -0.274 OA
ATOM     26  H   UNL     1      -2.424   1.309  -3.659  0.00  0.00    +0.149 HD
BRANCH  23  27
ATOM     27  C   UNL     1      -0.408   2.133  -4.136  0.00  0.00    +0.103 C 
BRANCH  27  28
ATOM     28  C   UNL     1      -1.038   2.855  -5.299  0.00  0.00    -0.024 A 
ATOM     29  C   UNL     1      -2.415   2.919  -5.409  0.00  0.00    +0.006 A 
ATOM     30  C   UNL     1      -2.992   3.582  -6.476  0.00  0.00    +0.004 A 
ATOM     31  C   UNL     1      -2.193   4.181  -7.432  0.00  0.00    -0.050 A 
ATOM     32  C   UNL     1      -0.817   4.118  -7.321  0.00  0.00    +0.007 A 
ATOM     33  C   UNL     1      -0.240   3.458  -6.252  0.00  0.00    -0.045 A 
ATOM     34  C   UNL     1       1.261   3.393  -6.128  0.00  0.00    +0.044 C 
ATOM     35  C   UNL     1      -2.823   4.903  -8.596  0.00  0.00    +0.044 C 
ENDBRANCH  27  28
BRANCH  27  37
ATOM     36  C   UNL     1       0.645   2.420  -1.889  0.00  0.00    +0.006 C 
ATOM     37  C   UNL     1      -0.085   3.136  -3.027  0.00  0.00    +0.024 C 
ENDBRANCH  27  37
ENDBRANCH  23  27
ENDBRANCH  22  24
ENDBRANCH   1  22
TORSDOF 10
