REMARK  Name = ZINC39916072
REMARK  5 active torsions:
REMARK  status: ('A' for Active; 'I' for Inactive)
REMARK    1  A    between atoms: C_4  and  C_7
REMARK    2  A    between atoms: C_7  and  C_8
REMARK    3  A    between atoms: C_7  and  S_14
REMARK    4  A    between atoms: S_14  and  C_15
REMARK    5  A    between atoms: C_22  and  C_26
REMARK                            x       y       z     vdW  Elec       q    Type
REMARK                         _______ _______ _______ _____ _____    ______ ____
ROOT
ATOM      1  C   UNL     1       5.631  -2.383  -1.053  0.00  0.00    +0.167 C 
ATOM      2  N   UNL     1       6.705  -2.291  -0.290  0.00  0.00    -0.223 NA
ATOM      3  C   UNL     1       7.675  -3.220  -0.870  0.00  0.00    +0.284 C 
ATOM      4  N   UNL     1       8.448  -4.007   0.085  0.00  0.00    -0.312 N 
ATOM      5  C   UNL     1       9.042  -5.144  -0.424  0.00  0.00    +0.015 C 
ATOM      6  C   UNL     1       8.661  -5.655  -1.617  0.00  0.00    +0.035 C 
ATOM      7  C   UNL     1       7.539  -5.024  -2.425  0.00  0.00    +0.142 C 
ATOM      8  N   UNL     1       6.751  -4.188  -1.546  0.00  0.00    -0.176 NA
ATOM      9  N   UNL     1       5.836  -3.324  -2.059  0.00  0.00    -0.253 N 
ATOM     10  C   UNL     1       9.291  -6.789  -2.151  0.00  0.00    +0.163 C 
ATOM     11  O   UNL     1       8.927  -7.222  -3.227  0.00  0.00    -0.292 OA
ATOM     12  C   UNL     1      10.409  -7.479  -1.419  0.00  0.00    +0.080 C 
ATOM     13  C   UNL     1      11.144  -6.457  -0.546  0.00  0.00    +0.014 C 
ATOM     14  C   UNL     1      10.128  -5.798   0.391  0.00  0.00    +0.051 C 
ATOM     15  H   UNL     1       8.538  -3.749   1.015  0.00  0.00    +0.149 HD
ATOM     16  H   UNL     1       5.419  -3.355  -2.935  0.00  0.00    +0.169 HD
ENDROOT
BRANCH   7  17
ATOM     17  C   UNL     1       8.119  -4.170  -3.522  0.00  0.00    -0.026 C 
ATOM     18  C   UNL     1       7.941  -2.862  -3.699  0.00  0.00    +0.020 C 
ATOM     19  C   UNL     1       8.680  -2.425  -4.885  0.00  0.00    +0.078 C 
ATOM     20  N   UNL     1       9.300  -3.414  -5.436  0.00  0.00    -0.386 N 
ATOM     21  C   UNL     1       9.028  -4.621  -4.644  0.00  0.00    +0.145 C 
ATOM     22  H   UNL     1       9.853  -3.368  -6.231  0.00  0.00    +0.159 HD
ENDBRANCH   7  17
BRANCH   1  23
ATOM     23  S   UNL     1       4.151  -1.456  -0.826  0.00  0.00    -0.077 S 
BRANCH  23  24
ATOM     24  C   UNL     1       4.499  -0.422   0.624  0.00  0.00    +0.114 C 
BRANCH  24  28
ATOM     25  C   UNL     1       1.230   2.248   1.283  0.00  0.00    +0.000 A 
ATOM     26  C   UNL     1       2.521   2.740   1.211  0.00  0.00    +0.000 A 
ATOM     27  C   UNL     1       3.578   1.875   0.998  0.00  0.00    +0.005 A 
ATOM     28  C   UNL     1       3.346   0.520   0.857  0.00  0.00    -0.030 A 
ATOM     29  C   UNL     1       2.056   0.029   0.930  0.00  0.00    +0.005 A 
ATOM     30  C   UNL     1       0.998   0.893   1.142  0.00  0.00    +0.000 A 
ENDBRANCH  24  28
BRANCH  24  31
ATOM     31  C   UNL     1       4.683  -1.300   1.834  0.00  0.00    -0.030 A 
ATOM     32  C   UNL     1       3.734  -2.255   2.147  0.00  0.00    +0.005 A 
ATOM     33  C   UNL     1       3.903  -3.060   3.257  0.00  0.00    +0.000 A 
ATOM     34  C   UNL     1       5.021  -2.911   4.055  0.00  0.00    +0.000 A 
ATOM     35  C   UNL     1       5.971  -1.957   3.743  0.00  0.00    +0.000 A 
ATOM     36  C   UNL     1       5.804  -1.154   2.629  0.00  0.00    +0.005 A 
ENDBRANCH  24  31
ENDBRANCH  23  24
ENDBRANCH   1  23
TORSDOF 5
