REMARK  Name = ZINC12650078
REMARK  9 active torsions:
REMARK  status: ('A' for Active; 'I' for Inactive)
REMARK    1  A    between atoms: C_4  and  C_7
REMARK    2  A    between atoms: C_7  and  C_9
REMARK    3  A    between atoms: C_7  and  O_23
REMARK    4  A    between atoms: N_11  and  C_12
REMARK    5  A    between atoms: C_16  and  C_18
REMARK    6  A    between atoms: O_23  and  C_24
REMARK    7  A    between atoms: C_24  and  C_26
REMARK    8  A    between atoms: C_29  and  N_35
REMARK    9  A    between atoms: C_30  and  N_32
REMARK                            x       y       z     vdW  Elec       q    Type
REMARK                         _______ _______ _______ _____ _____    ______ ____
ROOT
ATOM      1  C   UNL     1       1.043  -6.433  -0.311  0.00  0.00    +0.292 C 
ENDROOT
BRANCH   1   5
ATOM      2  C   UNL     1       1.238  -8.082   3.625  0.00  0.00    +0.000 A 
ATOM      3  C   UNL     1       0.444  -8.680   2.664  0.00  0.00    +0.000 A 
ATOM      4  C   UNL     1       0.381  -8.146   1.390  0.00  0.00    +0.008 A 
ATOM      5  C   UNL     1       1.111  -7.015   1.078  0.00  0.00    +0.002 A 
ATOM      6  C   UNL     1       1.909  -6.420   2.038  0.00  0.00    +0.008 A 
ATOM      7  C   UNL     1       1.968  -6.951   3.313  0.00  0.00    +0.000 A 
ENDBRANCH   1   5
BRANCH   1   8
ATOM      8  C   UNL     1       2.189  -6.962  -1.134  0.00  0.00    +0.263 C 
ATOM      9  O   UNL     1       3.049  -6.206  -1.533  0.00  0.00    -0.271 OA
ATOM     10  N   UNL     1       2.258  -8.276  -1.427  0.00  0.00    -0.282 N 
ATOM     11  H   UNL     1       1.538  -8.870  -1.164  0.00  0.00    +0.155 HD
BRANCH  10  12
ATOM     12  C   UNL     1       3.369  -8.783  -2.110  0.00  0.00    +0.034 A 
ATOM     13  C   UNL     1       3.992  -8.020  -3.090  0.00  0.00    +0.025 A 
ATOM     14  C   UNL     1       5.091  -8.520  -3.759  0.00  0.00    +0.022 A 
ATOM     15  C   UNL     1       5.566  -9.786  -3.462  0.00  0.00    +0.053 A 
ATOM     16  C   UNL     1       4.945 -10.550  -2.491  0.00  0.00    +0.075 A 
ATOM     17  C   UNL     1       3.848 -10.052  -1.815  0.00  0.00    +0.037 A 
ATOM     18 CL   UNL     1       6.944 -10.415  -4.310  0.00  0.00    -0.083 Cl
BRANCH  16  19
ATOM     19  C   UNL     1       5.465 -11.928  -2.170  0.00  0.00    +0.419 C 
ATOM     20  F   UNL     1       4.680 -12.500  -1.163  0.00  0.00    -0.166 F 
ATOM     21  F   UNL     1       5.408 -12.727  -3.317  0.00  0.00    -0.166 F 
ATOM     22  F   UNL     1       6.790 -11.835  -1.732  0.00  0.00    -0.166 F 
ENDBRANCH  16  19
ENDBRANCH  10  12
ENDBRANCH   1   8
BRANCH   1  23
ATOM     23  O   UNL     1       1.129  -4.986  -0.234  0.00  0.00    -0.444 OA
BRANCH  23  24
ATOM     24  C   UNL     1      -0.030  -4.309  -0.115  0.00  0.00    +0.340 C 
ATOM     25  O   UNL     1      -1.084  -4.912  -0.075  0.00  0.00    -0.245 OA
BRANCH  24  26
ATOM     26  C   UNL     1      -0.019  -2.838  -0.031  0.00  0.00    +0.061 A 
ATOM     27  C   UNL     1       1.194  -2.142  -0.076  0.00  0.00    +0.017 A 
ATOM     28  C   UNL     1       1.204  -0.779   0.001  0.00  0.00    +0.026 A 
ATOM     29  C   UNL     1       0.008  -0.076   0.124  0.00  0.00    +0.055 A 
ATOM     30  C   UNL     1      -1.203  -0.760   0.175  0.00  0.00    +0.147 A 
ATOM     31  C   UNL     1      -1.221  -2.134   0.092  0.00  0.00    +0.049 A 
BRANCH  30  32
ATOM     32  N   UNL     1      -2.472  -0.010   0.312  0.00  0.00    +0.058 N 
ATOM     33  O   UNL     1      -3.372  -0.456   1.002  0.00  0.00    -0.126 OA
ATOM     34  O   UNL     1      -2.617   1.053  -0.265  0.00  0.00    -0.126 OA
ENDBRANCH  30  32
BRANCH  29  35
ATOM     35  N   UNL     1       0.025   1.312   0.202  0.00  0.00    -0.356 N 
ATOM     36  H   UNL     1       0.871   1.786   0.236  0.00  0.00    +0.142 HD
ATOM     37  H   UNL     1      -0.809   1.807   0.218  0.00  0.00    +0.142 HD
ENDBRANCH  29  35
ENDBRANCH  24  26
ENDBRANCH  23  24
ENDBRANCH   1  23
TORSDOF 9
