REMARK  Name = ZINC39672015
REMARK  6 active torsions:
REMARK  status: ('A' for Active; 'I' for Inactive)
REMARK    1  A    between atoms: C_1  and  O_2
REMARK    2  A    between atoms: O_2  and  C_3
REMARK    3  A    between atoms: C_7  and  C_9
REMARK    4  A    between atoms: C_13  and  C_22
REMARK    5  A    between atoms: N_24  and  C_25
REMARK    6  A    between atoms: C_25  and  C_26
REMARK                            x       y       z     vdW  Elec       q    Type
REMARK                         _______ _______ _______ _____ _____    ______ ____
ROOT
ATOM      1  C   UNL     1       1.306  -4.354  -2.454  0.00  0.00    +0.248 C 
ATOM      2  O   UNL     1       1.722  -4.978  -3.410  0.00  0.00    -0.270 OA
ATOM      3  N   UNL     1       0.851  -5.009  -1.367  0.00  0.00    -0.296 N 
ATOM      4  C   UNL     1       0.215  -4.433  -0.159  0.00  0.00    +0.121 C 
ATOM      5  C   UNL     1      -0.911  -5.428   0.201  0.00  0.00    +0.100 C 
ATOM      6  C   UNL     1      -0.471  -6.762  -0.425  0.00  0.00    -0.004 C 
ATOM      7  C   UNL     1       0.870  -6.470  -1.113  0.00  0.00    +0.115 C 
ATOM      8  C   UNL     1      -1.496  -7.226  -1.455  0.00  0.00    -0.010 C 
ATOM      9  C   UNL     1      -1.065  -8.582  -2.021  0.00  0.00    -0.082 C 
ATOM     10  N   UNL     1      -0.961  -9.559  -0.930  0.00  0.00    +0.379 N 
ATOM     11  C   UNL     1       0.092  -9.152   0.008  0.00  0.00    -0.082 C 
ATOM     12  C   UNL     1      -0.290  -7.820   0.660  0.00  0.00    -0.010 C 
ATOM     13  H   UNL     1      -1.842  -9.612  -0.443  0.00  0.00    -0.086 HD
ATOM     14  H   UNL     1      -0.736 -10.466  -1.313  0.00  0.00    -0.086 HD
ENDROOT
BRANCH   1  19
ATOM     15  C   UNL     1       1.560  -0.767  -1.357  0.00  0.00    +0.121 A 
ATOM     16  C   UNL     1       1.278  -0.103  -2.544  0.00  0.00    +0.047 A 
ATOM     17  C   UNL     1       1.006  -0.819  -3.694  0.00  0.00    +0.019 A 
ATOM     18  C   UNL     1       1.014  -2.200  -3.672  0.00  0.00    +0.030 A 
ATOM     19  C   UNL     1       1.297  -2.876  -2.483  0.00  0.00    +0.054 A 
ATOM     20  C   UNL     1       1.576  -2.151  -1.323  0.00  0.00    +0.059 A 
ATOM     21 BR   UNL     1       0.641  -3.174  -5.249  0.00  0.00    -0.050 Br
BRANCH  15  23
ATOM     22  C   UNL     1       1.792   1.367  -0.335  0.00  0.00    +0.277 C 
ATOM     23  O   UNL     1       1.826  -0.058  -0.229  0.00  0.00    -0.495 OA
ENDBRANCH  15  23
ENDBRANCH   1  19
BRANCH   5  24
ATOM     24  C   UNL     1      -2.221  -4.975  -0.392  0.00  0.00    +0.219 C 
ATOM     25  O   UNL     1      -2.231  -4.339  -1.425  0.00  0.00    -0.275 OA
ATOM     26  N   UNL     1      -3.380  -5.276   0.226  0.00  0.00    -0.309 N 
ATOM     27  H   UNL     1      -3.372  -5.784   1.052  0.00  0.00    +0.149 HD
BRANCH  26  28
ATOM     28  C   UNL     1      -4.653  -4.835  -0.350  0.00  0.00    +0.161 C 
BRANCH  28  29
ATOM     29  C   UNL     1      -5.788  -5.297   0.527  0.00  0.00    +0.077 A 
ATOM     30  C   UNL     1      -6.385  -4.566   1.494  0.00  0.00    +0.117 A 
ATOM     31  N   UNL     1      -7.361  -5.348   2.047  0.00  0.00    -0.306 N 
ATOM     32  C   UNL     1      -8.263  -5.129   3.048  0.00  0.00    +0.092 A 
ATOM     33  C   UNL     1      -9.138  -6.092   3.407  0.00  0.00    +0.018 A 
ATOM     34  C   UNL     1      -9.131  -7.336   2.754  0.00  0.00    +0.005 A 
ATOM     35  C   UNL     1      -8.238  -7.567   1.755  0.00  0.00    +0.047 A 
ATOM     36  C   UNL     1      -7.331  -6.552   1.391  0.00  0.00    +0.138 A 
ATOM     37  N   UNL     1      -6.375  -6.495   0.474  0.00  0.00    -0.231 NA
ENDBRANCH  28  29
ENDBRANCH  26  28
ENDBRANCH   5  24
TORSDOF 5
