REMARK  Name = ZINC35574123
REMARK  6 active torsions:
REMARK  status: ('A' for Active; 'I' for Inactive)
REMARK    1  A    between atoms: C_1  and  C_2
REMARK    2  A    between atoms: C_2  and  C_3
REMARK    3  A    between atoms: C_3  and  N_4
REMARK    4  A    between atoms: N_4  and  C_5
REMARK    5  A    between atoms: C_5  and  C_7
REMARK    6  A    between atoms: C_5  and  C_14
REMARK                            x       y       z     vdW  Elec       q    Type
REMARK                         _______ _______ _______ _____ _____    ______ ____
ROOT
ATOM      1  C   UNL     1      -2.792  -2.511   0.015  0.00  0.00    -0.009 C 
ENDROOT
BRANCH   1   2
ATOM      2  C   UNL     1      -3.483  -2.115  -1.264  0.00  0.00    -0.038 A 
ATOM      3  C   UNL     1      -2.740  -1.868  -2.403  0.00  0.00    +0.019 A 
ATOM      4  C   UNL     1      -3.375  -1.504  -3.577  0.00  0.00    +0.018 A 
ATOM      5  C   UNL     1      -4.753  -1.387  -3.611  0.00  0.00    +0.017 A 
ATOM      6  C   UNL     1      -5.495  -1.633  -2.472  0.00  0.00    +0.021 A 
ATOM      7  C   UNL     1      -4.861  -2.003  -1.299  0.00  0.00    +0.043 A 
ATOM      8 CL   UNL     1      -5.795  -2.320   0.130  0.00  0.00    -0.083 Cl
ATOM      9 BR   UNL     1      -2.358  -1.167  -5.136  0.00  0.00    -0.050 Br
ENDBRANCH   1   2
BRANCH   1  10
ATOM     10  C   UNL     1      -2.772  -4.013   0.131  0.00  0.00    -0.057 A 
ATOM     11  C   UNL     1      -1.826  -4.747  -0.561  0.00  0.00    +0.003 A 
ATOM     12  C   UNL     1      -1.808  -6.125  -0.455  0.00  0.00    +0.015 A 
ATOM     13  C   UNL     1      -2.735  -6.770   0.344  0.00  0.00    +0.018 A 
ATOM     14  C   UNL     1      -3.681  -6.035   1.036  0.00  0.00    +0.015 A 
ATOM     15  C   UNL     1      -3.696  -4.657   0.933  0.00  0.00    +0.003 A 
ATOM     16 BR   UNL     1      -2.710  -8.655   0.489  0.00  0.00    -0.050 Br
ENDBRANCH   1  10
BRANCH   1  17
ATOM     17  N   UNL     1      -1.413  -2.002   0.005  0.00  0.00    +0.386 N 
ATOM     18  H   UNL     1      -0.941  -2.328  -0.825  0.00  0.00    -0.085 HD
ATOM     19  H   UNL     1      -0.925  -2.337   0.822  0.00  0.00    -0.085 HD
BRANCH  17  20
ATOM     20  C   UNL     1      -1.433  -0.534   0.013  0.00  0.00    -0.082 C 
BRANCH  20  22
ATOM     21  C   UNL     1      -0.019   1.526   0.010  0.00  0.00    +0.002 C 
ATOM     22  C   UNL     1       0.002  -0.004   0.002  0.00  0.00    -0.022 C 
ENDBRANCH  20  22
ENDBRANCH  17  20
ENDBRANCH   1  17
TORSDOF 5
