REMARK  Name = ZINC12524431
REMARK  11 active torsions:
REMARK  status: ('A' for Active; 'I' for Inactive)
REMARK    1  A    between atoms: C_1  and  C_2
REMARK    2  A    between atoms: C_6  and  C_31
REMARK    3  A    between atoms: C_8  and  O_11
REMARK    4  A    between atoms: O_11  and  C_12
REMARK    5  A    between atoms: N_14  and  C_15
REMARK    6  A    between atoms: C_15  and  C_17
REMARK    7  A    between atoms: C_15  and  N_21
REMARK    8  A    between atoms: N_21  and  C_22
REMARK    9  A    between atoms: C_25  and  N_28
REMARK   10  A    between atoms: C_31  and  C_32
REMARK   11  A    between atoms: C_31  and  C_33
REMARK                            x       y       z     vdW  Elec       q    Type
REMARK                         _______ _______ _______ _____ _____    ______ ____
ROOT
ATOM      1  C   UNL     1       4.888  -3.426   0.734  0.00  0.00    +0.213 C 
ENDROOT
BRANCH   1   4
ATOM      2  C   UNL     1       3.483  -1.767  -0.365  0.00  0.00    +0.402 C 
ATOM      3  O   UNL     1       3.489  -2.464  -1.361  0.00  0.00    -0.226 OA
ATOM      4  N   UNL     1       4.153  -2.159   0.736  0.00  0.00    -0.259 N 
ATOM      5  H   UNL     1       4.148  -1.603   1.531  0.00  0.00    +0.154 HD
BRANCH   2   6
ATOM      6  O   UNL     1       2.807  -0.602  -0.363  0.00  0.00    -0.447 OA
BRANCH   6  12
ATOM      7  C   UNL     1      -1.480  -0.774  -0.295  0.00  0.00    +0.007 C 
ATOM      8  C   UNL     1      -0.056  -0.215  -0.338  0.00  0.00    -0.011 C 
ATOM      9  C   UNL     1      -0.110   1.308  -0.465  0.00  0.00    +0.004 C 
ATOM     10  C   UNL     1       1.313   1.867  -0.508  0.00  0.00    +0.007 C 
ATOM     11  C   UNL     1       2.055   1.281  -1.711  0.00  0.00    +0.032 C 
ATOM     12  C   UNL     1       2.109  -0.243  -1.584  0.00  0.00    +0.182 C 
ATOM     13  C   UNL     1       0.685  -0.802  -1.541  0.00  0.00    +0.048 C 
BRANCH  11  14
ATOM     14  C   UNL     1       3.479   1.840  -1.755  0.00  0.00    -0.011 C 
ATOM     15  C   UNL     1       4.220   1.253  -2.958  0.00  0.00    +0.007 C 
ATOM     16  C   UNL     1       3.425   3.363  -1.882  0.00  0.00    +0.007 C 
ENDBRANCH  11  14
ENDBRANCH   6  12
ENDBRANCH   2   6
ENDBRANCH   1   4
BRANCH   1  17
ATOM     17  C   UNL     1       4.601  -4.186   2.031  0.00  0.00    +0.225 C 
ATOM     18 CL   UNL     1       2.833  -4.517   2.154  0.00  0.00    -0.080 Cl
ATOM     19 CL   UNL     1       5.506  -5.745   2.027  0.00  0.00    -0.080 Cl
ATOM     20 CL   UNL     1       5.125  -3.189   3.439  0.00  0.00    -0.080 Cl
ENDBRANCH   1  17
BRANCH   1  21
ATOM     21  N   UNL     1       6.325  -3.157   0.634  0.00  0.00    -0.323 N 
ATOM     22  H   UNL     1       6.810  -2.821   1.404  0.00  0.00    +0.148 HD
BRANCH  21  23
ATOM     23  C   UNL     1       6.996  -3.384  -0.570  0.00  0.00    +0.029 A 
ATOM     24  C   UNL     1       6.284  -3.748  -1.706  0.00  0.00    +0.025 A 
ATOM     25  C   UNL     1       6.950  -3.966  -2.896  0.00  0.00    +0.034 A 
ATOM     26  C   UNL     1       8.325  -3.833  -2.954  0.00  0.00    +0.126 A 
ATOM     27  C   UNL     1       9.038  -3.476  -1.824  0.00  0.00    +0.034 A 
ATOM     28  C   UNL     1       8.377  -3.251  -0.632  0.00  0.00    +0.025 A 
BRANCH  26  29
ATOM     29  N   UNL     1       9.037  -4.073  -4.230  0.00  0.00    +0.056 N 
ATOM     30  O   UNL     1      10.248  -3.956  -4.284  0.00  0.00    -0.126 OA
ATOM     31  O   UNL     1       8.411  -4.388  -5.226  0.00  0.00    -0.126 OA
ENDBRANCH  26  29
ENDBRANCH  21  23
ENDBRANCH   1  21
TORSDOF 8
