REMARK  Name = ZINC13523869
REMARK  8 active torsions:
REMARK  status: ('A' for Active; 'I' for Inactive)
REMARK    1  A    between atoms: C_4  and  C_7
REMARK    2  A    between atoms: C_7  and  C_8
REMARK    3  A    between atoms: N_11  and  C_14
REMARK    4  A    between atoms: C_14  and  C_15
REMARK    5  A    between atoms: C_15  and  N_16
REMARK    6  A    between atoms: C_17  and  C_19
REMARK    7  A    between atoms: N_22  and  S_25
REMARK    8  A    between atoms: S_25  and  N_28
REMARK                            x       y       z     vdW  Elec       q    Type
REMARK                         _______ _______ _______ _____ _____    ______ ____
ROOT
ATOM      1  N   UNL     1       7.243  -4.369   6.012  0.00  0.00    -0.317 N 
ATOM      2  C   UNL     1       8.392  -5.055   6.174  0.00  0.00    +0.216 C 
ATOM      3  O   UNL     1       9.054  -5.366   5.207  0.00  0.00    -0.276 OA
ATOM      4  H   UNL     1       6.713  -4.120   6.785  0.00  0.00    +0.149 HD
ENDROOT
BRANCH   2   5
ATOM      5  C   UNL     1       8.853  -5.435   7.558  0.00  0.00    +0.077 C 
ATOM      6  C   UNL     1       9.055  -4.169   8.393  0.00  0.00    +0.030 C 
ATOM      7  C   UNL     1       9.491  -4.560   9.809  0.00  0.00    +0.111 C 
ATOM      8  N   UNL     1      10.679  -5.420   9.718  0.00  0.00    -0.166 NA
ATOM      9  C   UNL     1      10.622  -6.616   8.867  0.00  0.00    +0.111 C 
ATOM     10  C   UNL     1      10.174  -6.202   7.462  0.00  0.00    +0.030 C 
BRANCH   8  11
ATOM     11  S   UNL     1      12.057  -5.046  10.557  0.00  0.00    +0.100 S 
ATOM     12  O   UNL     1      13.133  -5.671   9.871  0.00  0.00    -0.141 OA
ATOM     13  O   UNL     1      12.018  -3.646  10.798  0.00  0.00    -0.141 OA
BRANCH  11  14
ATOM     14  N   UNL     1      11.945  -5.784  12.035  0.00  0.00    -0.166 NA
ATOM     15  C   UNL     1      11.323  -5.092  13.173  0.00  0.00    +0.116 C 
ATOM     16  C   UNL     1      12.304  -5.099  14.350  0.00  0.00    +0.082 C 
ATOM     17  C   UNL     1      12.734  -6.538  14.643  0.00  0.00    +0.173 C 
ATOM     18  C   UNL     1      13.436  -7.131  13.420  0.00  0.00    +0.082 C 
ATOM     19  C   UNL     1      12.460  -7.146  12.233  0.00  0.00    +0.116 C 
ATOM     20  O   UNL     1      13.626  -6.554  15.764  0.00  0.00    -0.346 OA
ATOM     21  C   UNL     1      13.019  -7.375  16.782  0.00  0.00    +0.191 C 
ATOM     22  C   UNL     1      12.025  -8.251  15.980  0.00  0.00    +0.191 C 
ATOM     23  O   UNL     1      11.576  -7.327  14.959  0.00  0.00    -0.346 OA
ENDBRANCH  11  14
ENDBRANCH   8  11
ENDBRANCH   2   5
BRANCH   1  24
ATOM     24  C   UNL     1       6.795  -3.999   4.667  0.00  0.00    +0.085 C 
BRANCH  24  25
ATOM     25  C   UNL     1       5.474  -3.233   4.762  0.00  0.00    -0.060 C 
BRANCH  25  29
ATOM     26  C   UNL     1       4.171  -0.963   1.399  0.00  0.00    -0.010 C 
ATOM     27  C   UNL     1       3.192  -1.919   2.088  0.00  0.00    -0.015 C 
ATOM     28  C   UNL     1       3.701  -2.233   3.496  0.00  0.00    -0.078 C 
ATOM     29  N   UNL     1       5.024  -2.862   3.413  0.00  0.00    +0.381 N 
ATOM     30  C   UNL     1       5.985  -1.925   2.819  0.00  0.00    -0.078 C 
ATOM     31  C   UNL     1       5.565  -1.599   1.385  0.00  0.00    -0.015 C 
ATOM     32  H   UNL     1       4.967  -3.691   2.841  0.00  0.00    -0.082 HD
BRANCH  26  33
ATOM     33  C   UNL     1       3.711  -0.707  -0.038  0.00  0.00    +0.038 C 
BRANCH  33  37
ATOM     34  C   UNL     1      -0.017   1.378   0.010  0.00  0.00    +0.000 A 
ATOM     35  C   UNL     1       1.171   2.086   0.002  0.00  0.00    +0.000 A 
ATOM     36  C   UNL     1       2.377   1.411  -0.013  0.00  0.00    +0.003 A 
ATOM     37  C   UNL     1       2.396   0.029  -0.020  0.00  0.00    -0.047 A 
ATOM     38  C   UNL     1       1.208  -0.679  -0.012  0.00  0.00    +0.003 A 
ATOM     39  C   UNL     1       0.002  -0.004   0.002  0.00  0.00    +0.000 A 
ENDBRANCH  33  37
ENDBRANCH  26  33
ENDBRANCH  25  29
ENDBRANCH  24  25
ENDBRANCH   1  24
TORSDOF 8
