REMARK  Name = ZINC48303842
REMARK  15 active torsions:
REMARK  status: ('A' for Active; 'I' for Inactive)
REMARK    1  A    between atoms: C_1  and  C_2
REMARK    2  A    between atoms: C_2  and  C_3
REMARK    3  A    between atoms: C_2  and  N_4
REMARK    4  A    between atoms: N_4  and  C_5
REMARK    5  A    between atoms: N_4  and  C_27
REMARK    6  A    between atoms: C_5  and  C_6
REMARK    7  A    between atoms: C_6  and  N_7
REMARK    8  A    between atoms: N_7  and  S_8
REMARK    9  A    between atoms: S_8  and  C_11
REMARK   10  A    between atoms: C_14  and  O_25
REMARK   11  A    between atoms: C_15  and  C_17
REMARK   12  A    between atoms: C_17  and  C_24
REMARK   13  A    between atoms: O_25  and  C_26
REMARK   14  A    between atoms: C_27  and  C_28
REMARK   15  A    between atoms: C_27  and  C_29
REMARK                            x       y       z     vdW  Elec       q    Type
REMARK                         _______ _______ _______ _____ _____    ______ ____
ROOT
ATOM      1  C   UNL     1      -2.291   4.669  -2.317  0.00  0.00    +0.106 A 
ATOM      2  C   UNL     1      -1.724   5.130  -1.143  0.00  0.00    +0.032 A 
ATOM      3  C   UNL     1      -0.653   6.000  -1.188  0.00  0.00    +0.048 A 
ATOM      4  C   UNL     1      -0.145   6.411  -2.412  0.00  0.00    +0.126 A 
ATOM      5  C   UNL     1      -0.715   5.947  -3.588  0.00  0.00    +0.028 A 
ATOM      6  C   UNL     1      -1.783   5.072  -3.538  0.00  0.00    +0.038 A 
ENDROOT
BRANCH   5   7
ATOM      7  C   UNL     1      -0.165   6.391  -4.919  0.00  0.00    +0.138 C 
ATOM      8  C   UNL     1       1.243   5.867  -5.117  0.00  0.00    +0.248 C 
ATOM      9  O   UNL     1       2.217   6.109  -4.436  0.00  0.00    -0.273 OA
ATOM     10  N   UNL     1       1.188   5.075  -6.205  0.00  0.00    -0.238 N 
ATOM     11  C   UNL     1      -0.047   5.026  -6.718  0.00  0.00    +0.307 C 
ATOM     12  O   UNL     1      -0.345   4.378  -7.702  0.00  0.00    -0.252 OA
ATOM     13  N   UNL     1      -0.922   5.776  -6.023  0.00  0.00    -0.281 N 
ATOM     14  C   UNL     1      -0.196   7.917  -5.030  0.00  0.00    +0.047 C 
ATOM     15  H   UNL     1       1.950   4.599  -6.572  0.00  0.00    +0.159 HD
ATOM     16  H   UNL     1      -1.866   5.888  -6.212  0.00  0.00    +0.152 HD
ENDBRANCH   5   7
BRANCH   1  17
ATOM     17  S   UNL     1      -3.659   3.559  -2.257  0.00  0.00    +0.058 S 
ATOM     18  O   UNL     1      -4.350   3.699  -3.491  0.00  0.00    -0.153 OA
ATOM     19  O   UNL     1      -4.293   3.764  -1.002  0.00  0.00    -0.153 OA
BRANCH  17  20
ATOM     20  N   UNL     1      -3.042   2.023  -2.231  0.00  0.00    -0.192 NA
ATOM     21  H   UNL     1      -3.208   1.421  -2.974  0.00  0.00    +0.148 HD
BRANCH  20  22
ATOM     22  C   UNL     1      -2.245   1.572  -1.087  0.00  0.00    +0.087 C 
BRANCH  22  23
ATOM     23  C   UNL     1      -2.116   0.048  -1.124  0.00  0.00    -0.061 C 
BRANCH  23  24
ATOM     24  N   UNL     1      -1.448  -0.416   0.099  0.00  0.00    +0.384 N 
ATOM     25  H   UNL     1      -1.932  -0.052   0.905  0.00  0.00    -0.081 HD
BRANCH  24  27
ATOM     26  C   UNL     1       0.438   0.208  -1.333  0.00  0.00    -0.014 C 
ATOM     27  C   UNL     1      -0.058   0.057   0.107  0.00  0.00    -0.074 C 
ATOM     28  C   UNL     1       0.017   1.410   0.817  0.00  0.00    -0.014 C 
ENDBRANCH  24  27
BRANCH  24  29
ATOM     29  C   UNL     1      -1.466  -1.885   0.139  0.00  0.00    -0.074 C 
ATOM     30  C   UNL     1      -0.882  -2.366   1.469  0.00  0.00    -0.014 C 
ATOM     31  C   UNL     1      -2.907  -2.381   0.005  0.00  0.00    -0.014 C 
ENDBRANCH  24  29
ENDBRANCH  23  24
ENDBRANCH  22  23
ENDBRANCH  20  22
ENDBRANCH  17  20
ENDBRANCH   1  17
BRANCH   4  32
ATOM     32  O   UNL     1       0.910   7.268  -2.458  0.00  0.00    -0.495 OA
ATOM     33  C   UNL     1       1.446   7.705  -1.208  0.00  0.00    +0.277 C 
ENDBRANCH   4  32
TORSDOF 9
