REMARK  Name = ZINC03286288
REMARK  8 active torsions:
REMARK  status: ('A' for Active; 'I' for Inactive)
REMARK    1  A    between atoms: C_4  and  C_7
REMARK    2  A    between atoms: C_7  and  N_51
REMARK    3  A    between atoms: C_8  and  C_9
REMARK    4  A    between atoms: C_8  and  N_51
REMARK    5  A    between atoms: C_15  and  C_16
REMARK    6  A    between atoms: C_15  and  N_51
REMARK    7  A    between atoms: N_18  and  N_19
REMARK    8  A    between atoms: C_20  and  C_22
REMARK                            x       y       z     vdW  Elec       q    Type
REMARK                         _______ _______ _______ _____ _____    ______ ____
ROOT
ATOM      1  C   UNL     1      -0.280  -1.601   1.464  0.00  0.00    +0.021 C 
ENDROOT
BRANCH   1   2
ATOM      2  C   UNL     1      -1.751  -1.896   1.321  0.00  0.00    +0.213 C 
ATOM      3  O   UNL     1      -2.538  -0.989   1.151  0.00  0.00    -0.276 OA
ATOM      4  N   UNL     1      -2.192  -3.168   1.382  0.00  0.00    -0.236 N 
ATOM      5  H   UNL     1      -1.562  -3.894   1.517  0.00  0.00    +0.173 HD
BRANCH   4   6
ATOM      6  N   UNL     1      -3.559  -3.443   1.249  0.00  0.00    -0.230 N 
ATOM      7  C   UNL     1      -4.000  -4.715   1.310  0.00  0.00    +0.260 C 
ATOM      8  O   UNL     1      -3.211  -5.625   1.480  0.00  0.00    -0.269 OA
ATOM      9  H   UNL     1      -4.189  -2.718   1.113  0.00  0.00    +0.173 HD
BRANCH   7  10
ATOM     10  C   UNL     1      -5.442  -5.005   1.169  0.00  0.00    +0.038 A 
ATOM     11  C   UNL     1      -6.351  -3.963   0.980  0.00  0.00    +0.014 A 
ATOM     12  C   UNL     1      -7.696  -4.240   0.844  0.00  0.00    +0.016 A 
ATOM     13  C   UNL     1      -8.145  -5.549   0.907  0.00  0.00    +0.018 A 
ATOM     14  C   UNL     1      -7.249  -6.586   1.101  0.00  0.00    +0.016 A 
ATOM     15  C   UNL     1      -5.902  -6.322   1.232  0.00  0.00    +0.014 A 
ATOM     16 BR   UNL     1      -9.991  -5.920   0.727  0.00  0.00    -0.050 Br
ENDBRANCH   7  10
ENDBRANCH   4   6
ENDBRANCH   1   2
BRANCH   1  17
ATOM     17  N   UNL     1      -0.088  -0.135   1.448  0.00  0.00    +0.391 N 
ATOM     18  H   UNL     1      -0.831   0.304   2.006  0.00  0.00    -0.080 HD
BRANCH  17  19
ATOM     19  C   UNL     1      -0.167   0.370   0.061  0.00  0.00    -0.042 C 
BRANCH  19  23
ATOM     20  C   UNL     1      -0.231   4.640   0.152  0.00  0.00    +0.000 A 
ATOM     21  C   UNL     1       0.974   3.969   0.059  0.00  0.00    +0.000 A 
ATOM     22  C   UNL     1       0.995   2.587   0.030  0.00  0.00    +0.002 A 
ATOM     23  C   UNL     1      -0.189   1.877   0.093  0.00  0.00    -0.064 A 
ATOM     24  C   UNL     1      -1.395   2.548   0.181  0.00  0.00    +0.002 A 
ATOM     25  C   UNL     1      -1.415   3.930   0.215  0.00  0.00    +0.000 A 
ENDBRANCH  19  23
ENDBRANCH  17  19
BRANCH  17  26
ATOM     26  C   UNL     1       1.222   0.209   2.038  0.00  0.00    -0.042 C 
BRANCH  26  27
ATOM     27  C   UNL     1       1.165  -0.038   3.524  0.00  0.00    -0.064 A 
ATOM     28  C   UNL     1       0.645   0.928   4.365  0.00  0.00    +0.002 A 
ATOM     29  C   UNL     1       0.589   0.700   5.728  0.00  0.00    +0.000 A 
ATOM     30  C   UNL     1       1.060  -0.490   6.249  0.00  0.00    +0.000 A 
ATOM     31  C   UNL     1       1.585  -1.454   5.409  0.00  0.00    +0.000 A 
ATOM     32  C   UNL     1       1.637  -1.227   4.046  0.00  0.00    +0.002 A 
ENDBRANCH  26  27
ENDBRANCH  17  26
ENDBRANCH   1  17
TORSDOF 8
