REMARK  Name = ZINC08644741
REMARK  5 active torsions:
REMARK  status: ('A' for Active; 'I' for Inactive)
REMARK    1  A    between atoms: C_1  and  C_2
REMARK    2  A    between atoms: C_2  and  C_19
REMARK    3  A    between atoms: N_5  and  C_9
REMARK    4  A    between atoms: C_9  and  C_10
REMARK    5  A    between atoms: N_15  and  C_16
REMARK                            x       y       z     vdW  Elec       q    Type
REMARK                         _______ _______ _______ _____ _____    ______ ____
ROOT
ATOM      1  C   UNL     1      -3.755  -1.842  -1.203  0.00  0.00    +0.047 C 
ATOM      2  C   UNL     1      -4.082  -0.468  -0.615  0.00  0.00    +0.136 C 
ATOM      3  C   UNL     1      -2.886   0.459  -0.709  0.00  0.00    +0.251 C 
ATOM      4  O   UNL     1      -2.329   0.835  -1.718  0.00  0.00    -0.272 OA
ATOM      5  N   UNL     1      -2.571   0.776   0.562  0.00  0.00    -0.215 N 
ATOM      6  C   UNL     1      -3.397   0.191   1.437  0.00  0.00    +0.310 C 
ATOM      7  O   UNL     1      -3.314   0.330   2.641  0.00  0.00    -0.252 OA
ATOM      8  N   UNL     1      -4.329  -0.569   0.834  0.00  0.00    -0.281 N 
ATOM      9  H   UNL     1      -5.028  -1.083   1.268  0.00  0.00    +0.152 HD
ENDROOT
BRANCH   2  10
ATOM     10  C   UNL     1      -5.272   0.137  -1.315  0.00  0.00    -0.008 A 
ATOM     11  C   UNL     1      -6.395   0.448  -0.611  0.00  0.00    +0.007 A 
ATOM     12  C   UNL     1      -7.503   1.013  -1.239  0.00  0.00    +0.001 A 
ATOM     13  C   UNL     1      -7.499   1.260  -2.578  0.00  0.00    +0.008 A 
ATOM     14  C   UNL     1      -6.360   0.947  -3.339  0.00  0.00    -0.018 A 
ATOM     15  C   UNL     1      -5.231   0.377  -2.699  0.00  0.00    -0.012 A 
ATOM     16  C   UNL     1      -4.092   0.064  -3.461  0.00  0.00    +0.009 A 
ATOM     17  C   UNL     1      -4.089   0.310  -4.799  0.00  0.00    +0.001 A 
ATOM     18  C   UNL     1      -5.199   0.870  -5.428  0.00  0.00    +0.001 A 
ATOM     19  C   UNL     1      -6.319   1.187  -4.723  0.00  0.00    +0.008 A 
ENDBRANCH   2  10
BRANCH   5  20
ATOM     20  C   UNL     1      -1.463   1.658   0.940  0.00  0.00    +0.214 C 
BRANCH  20  21
ATOM     21  C   UNL     1      -0.214   0.839   1.139  0.00  0.00    +0.238 C 
ATOM     22  O   UNL     1      -0.246  -0.363   0.981  0.00  0.00    -0.274 OA
ATOM     23  N   UNL     1       0.939   1.442   1.487  0.00  0.00    -0.239 N 
ATOM     24  C   UNL     1       2.058   0.710   1.660  0.00  0.00    +0.306 C 
ATOM     25  O   UNL     1       2.026  -0.494   1.502  0.00  0.00    -0.252 OA
ATOM     26  N   UNL     1       3.211   1.314   2.008  0.00  0.00    -0.296 N 
ATOM     27  H   UNL     1       0.965   2.404   1.613  0.00  0.00    +0.159 HD
ATOM     28  H   UNL     1       3.237   2.276   2.134  0.00  0.00    +0.151 HD
BRANCH  26  29
ATOM     29  C   UNL     1       4.427   0.519   2.196  0.00  0.00    +0.075 C 
ATOM     30  C   UNL     1       5.298   0.836   3.413  0.00  0.00    +0.024 C 
ATOM     31  C   UNL     1       5.770   1.227   2.010  0.00  0.00    +0.024 C 
ENDBRANCH  26  29
ENDBRANCH  20  21
ENDBRANCH   5  20
TORSDOF 4
