REMARK  Name = ZINC27638992
REMARK  7 active torsions:
REMARK  status: ('A' for Active; 'I' for Inactive)
REMARK    1  A    between atoms: C_1  and  N_2
REMARK    2  A    between atoms: N_2  and  C_3
REMARK    3  A    between atoms: N_2  and  S_9
REMARK    4  A    between atoms: S_9  and  C_12
REMARK    5  A    between atoms: C_15  and  C_18
REMARK    6  A    between atoms: N_20  and  N_21
REMARK    7  A    between atoms: C_22  and  C_24
REMARK                            x       y       z     vdW  Elec       q    Type
REMARK                         _______ _______ _______ _____ _____    ______ ____
ROOT
ATOM      1  C   UNL     1       0.688   3.520   2.556  0.00  0.00    +0.106 A 
ATOM      2  C   UNL     1       1.905   3.846   1.984  0.00  0.00    +0.029 A 
ATOM      3  C   UNL     1       2.320   5.162   1.943  0.00  0.00    +0.015 A 
ATOM      4  C   UNL     1       1.514   6.162   2.489  0.00  0.00    +0.038 A 
ATOM      5  C   UNL     1       0.290   5.825   3.069  0.00  0.00    +0.015 A 
ATOM      6  C   UNL     1      -0.116   4.507   3.099  0.00  0.00    +0.029 A 
ENDROOT
BRANCH   4   7
ATOM      7  C   UNL     1       1.955   7.573   2.452  0.00  0.00    +0.260 C 
ATOM      8  O   UNL     1       1.251   8.442   2.928  0.00  0.00    -0.269 OA
ATOM      9  N   UNL     1       3.137   7.895   1.891  0.00  0.00    -0.230 N 
ATOM     10  H   UNL     1       3.774   7.109   1.460  0.00  0.00    +0.173 HD
BRANCH   9  11
ATOM     11  N   UNL     1       3.554   9.232   1.856  0.00  0.00    -0.230 N 
ATOM     12  C   UNL     1       4.737   9.554   1.295  0.00  0.00    +0.260 C 
ATOM     13  O   UNL     1       5.441   8.685   0.819  0.00  0.00    -0.269 OA
ATOM     14  H   UNL     1       2.917  10.018   2.287  0.00  0.00    +0.173 HD
BRANCH  12  15
ATOM     15  C   UNL     1       5.177  10.964   1.259  0.00  0.00    +0.038 A 
ATOM     16  C   UNL     1       4.368  11.966   1.799  0.00  0.00    +0.014 A 
ATOM     17  C   UNL     1       4.787  13.279   1.767  0.00  0.00    +0.021 A 
ATOM     18  C   UNL     1       6.003  13.607   1.190  0.00  0.00    +0.041 A 
ATOM     19  C   UNL     1       6.807  12.619   0.647  0.00  0.00    +0.021 A 
ATOM     20  C   UNL     1       6.402  11.301   0.678  0.00  0.00    +0.014 A 
ATOM     21 CL   UNL     1       6.521  15.264   1.147  0.00  0.00    -0.084 Cl
ENDBRANCH  12  15
ENDBRANCH   9  11
ENDBRANCH   4   7
BRANCH   1  22
ATOM     22  S   UNL     1       0.163   1.838   2.600  0.00  0.00    +0.061 S 
ATOM     23  O   UNL     1      -0.756   1.728   3.678  0.00  0.00    -0.153 OA
ATOM     24  O   UNL     1       1.338   1.044   2.516  0.00  0.00    -0.153 OA
BRANCH  22  26
ATOM     25  C   UNL     1      -0.013   1.086   0.008  0.00  0.00    +0.132 C 
ATOM     26  N   UNL     1      -0.698   1.558   1.213  0.00  0.00    -0.177 NA
BRANCH  26  27
ATOM     27  C   UNL     1      -2.146   1.783   1.192  0.00  0.00    +0.080 C 
ATOM     28  C   UNL     1      -2.860   0.474   0.850  0.00  0.00    +0.020 C 
ATOM     29  C   UNL     1      -4.372   0.709   0.827  0.00  0.00    +0.002 C 
ATOM     30  C   UNL     1      -4.709   1.765  -0.227  0.00  0.00    +0.000 C 
ATOM     31  C   UNL     1      -3.994   3.074   0.115  0.00  0.00    +0.002 C 
ATOM     32  C   UNL     1      -2.483   2.839   0.137  0.00  0.00    +0.020 C 
ENDBRANCH  26  27
ENDBRANCH  22  26
ENDBRANCH   1  22
TORSDOF 6
