REMARK  Name = ZINC39467707
REMARK  6 active torsions:
REMARK  status: ('A' for Active; 'I' for Inactive)
REMARK    1  A    between atoms: C_1  and  O_2
REMARK    2  A    between atoms: O_2  and  P_3
REMARK    3  A    between atoms: C_11  and  C_28
REMARK    4  A    between atoms: C_12  and  C_21
REMARK    5  A    between atoms: C_26  and  O_27
REMARK    6  A    between atoms: C_33  and  O_34
REMARK                            x       y       z     vdW  Elec       q    Type
REMARK                         _______ _______ _______ _____ _____    ______ ____
ROOT
ATOM      1  P   UNL     1      -1.336  -0.899   0.010  0.00  0.00    +0.393 P 
ATOM      2  O   UNL     1      -2.318  -0.344   0.969  0.00  0.00    -0.241 OA
ATOM      3  N   UNL     1      -1.987  -0.969  -1.505  0.00  0.00    -0.268 NA
ATOM      4  N   UNL     1      -2.857  -2.002  -1.784  0.00  0.00    +0.399 N 
ATOM      5  C   UNL     1      -3.185  -1.883  -3.214  0.00  0.00    -0.046 C 
ATOM      6  C   UNL     1      -4.164  -2.969  -3.640  0.00  0.00    +0.005 C 
ATOM      7  C   UNL     1      -5.447  -2.856  -2.861  0.00  0.00    -0.016 C 
ATOM      8  C   UNL     1      -6.245  -3.929  -2.742  0.00  0.00    -0.011 C 
ATOM      9  C   UNL     1      -5.848  -5.202  -3.394  0.00  0.00    -0.011 C 
ATOM     10  C   UNL     1      -4.560  -5.411  -3.704  0.00  0.00    -0.014 C 
ATOM     11  C   UNL     1      -3.542  -4.345  -3.381  0.00  0.00    +0.016 C 
ATOM     12  C   UNL     1      -3.168  -4.439  -1.901  0.00  0.00    -0.003 C 
ATOM     13  C   UNL     1      -2.225  -3.294  -1.511  0.00  0.00    -0.020 C 
ATOM     14  C   UNL     1      -1.908  -3.461  -0.019  0.00  0.00    +0.159 C 
ATOM     15  O   UNL     1      -0.982  -2.441   0.393  0.00  0.00    -0.299 OA
ATOM     16  H   UNL     1      -1.765  -0.306  -2.177  0.00  0.00    +0.113 HD
ATOM     17  H   UNL     1      -3.690  -1.905  -1.223  0.00  0.00    -0.055 HD
ENDROOT
BRANCH   9  18
ATOM     18  C   UNL     1      -6.867  -6.234  -3.699  0.00  0.00    +0.024 A 
ATOM     19  C   UNL     1      -7.399  -7.016  -2.676  0.00  0.00    +0.012 A 
ATOM     20  C   UNL     1      -8.348  -7.975  -2.965  0.00  0.00    +0.001 A 
ATOM     21  C   UNL     1      -8.773  -8.165  -4.268  0.00  0.00    +0.004 A 
ATOM     22  C   UNL     1      -8.251  -7.396  -5.291  0.00  0.00    +0.046 A 
ATOM     23  C   UNL     1      -7.302  -6.425  -5.014  0.00  0.00    +0.125 A 
BRANCH  23  24
ATOM     24  O   UNL     1      -6.793  -5.664  -6.018  0.00  0.00    -0.506 OA
ATOM     25  H   UNL     1      -6.005  -6.039  -6.434  0.00  0.00    +0.292 HD
ENDBRANCH  23  24
ENDBRANCH   9  18
BRANCH   8  26
ATOM     26  C   UNL     1      -7.506  -3.843  -1.968  0.00  0.00    +0.024 A 
ATOM     27  C   UNL     1      -8.731  -3.792  -2.631  0.00  0.00    +0.012 A 
ATOM     28  C   UNL     1      -9.903  -3.713  -1.906  0.00  0.00    +0.001 A 
ATOM     29  C   UNL     1      -9.867  -3.685  -0.523  0.00  0.00    +0.004 A 
ATOM     30  C   UNL     1      -8.658  -3.736   0.144  0.00  0.00    +0.046 A 
ATOM     31  C   UNL     1      -7.473  -3.820  -0.571  0.00  0.00    +0.125 A 
BRANCH  31  32
ATOM     32  O   UNL     1      -6.285  -3.876   0.084  0.00  0.00    -0.506 OA
ATOM     33  H   UNL     1      -5.891  -3.010   0.258  0.00  0.00    +0.292 HD
ENDBRANCH  31  32
ENDBRANCH   8  26
BRANCH   1  35
ATOM     34  C   UNL     1      -0.017   1.425   0.010  0.00  0.00    +0.206 C 
ATOM     35  O   UNL     1       0.002  -0.004   0.002  0.00  0.00    -0.301 OA
ENDBRANCH   1  35
TORSDOF 5
