REMARK  Name = ZINC22828461
REMARK  8 active torsions:
REMARK  status: ('A' for Active; 'I' for Inactive)
REMARK    1  A    between atoms: C_1  and  C_2
REMARK    2  A    between atoms: C_2  and  O_3
REMARK    3  A    between atoms: O_3  and  C_4
REMARK    4  A    between atoms: C_4  and  C_6
REMARK    5  A    between atoms: C_7  and  N_38
REMARK    6  A    between atoms: C_28  and  C_30
REMARK    7  A    between atoms: C_34  and  C_36
REMARK    8  A    between atoms: C_34  and  C_37
REMARK                            x       y       z     vdW  Elec       q    Type
REMARK                         _______ _______ _______ _____ _____    ______ ____
ROOT
ATOM      1  C   UNL     1       1.426  -2.324  -2.467  0.00  0.00    +0.117 C 
ATOM      2  C   UNL     1       1.612  -3.667  -2.570  0.00  0.00    +0.195 C 
ATOM      3  O   UNL     1       2.221  -4.206  -3.634  0.00  0.00    -0.446 OA
ATOM      4  C   UNL     1       2.391  -3.506  -4.774  0.00  0.00    +0.116 C 
ATOM      5  C   UNL     1       2.273  -2.166  -4.795  0.00  0.00    +0.057 C 
ATOM      6  C   UNL     1       1.899  -1.403  -3.551  0.00  0.00    +0.141 C 
ATOM      7  C   UNL     1       3.040  -0.558  -3.086  0.00  0.00    -0.001 A 
ATOM      8  C   UNL     1       4.307  -0.838  -2.621  0.00  0.00    +0.007 A 
ATOM      9  C   UNL     1       5.112   0.248  -2.289  0.00  0.00    +0.001 A 
ATOM     10  C   UNL     1       4.674   1.559  -2.412  0.00  0.00    +0.006 A 
ATOM     11  C   UNL     1       3.406   1.839  -2.859  0.00  0.00    -0.023 A 
ATOM     12  C   UNL     1       2.594   0.753  -3.195  0.00  0.00    +0.045 A 
ATOM     13  N   UNL     1       1.280   0.830  -3.665  0.00  0.00    -0.263 N 
ATOM     14  C   UNL     1       0.801  -0.402  -3.888  0.00  0.00    +0.240 C 
ATOM     15  O   UNL     1      -0.301  -0.707  -4.290  0.00  0.00    -0.274 OA
ATOM     16  C   UNL     1       0.646   2.146  -3.849  0.00  0.00    +0.043 C 
ATOM     17  C   UNL     1      -0.841   2.115  -3.540  0.00  0.00    +0.026 C 
ATOM     18  C   UNL     1      -1.726   1.602  -4.663  0.00  0.00    +0.002 C 
ATOM     19  C   UNL     1      -1.375   2.268  -5.994  0.00  0.00    +0.000 C 
ATOM     20  C   UNL     1       0.098   1.976  -6.299  0.00  0.00    +0.002 C 
ATOM     21  C   UNL     1       0.952   2.677  -5.245  0.00  0.00    +0.026 C 
ATOM     22  C   UNL     1       1.292   3.112  -2.831  0.00  0.00    +0.034 C 
ATOM     23  C   UNL     1       2.807   3.205  -3.024  0.00  0.00    +0.020 C 
ATOM     24  C   UNL     1       3.389   4.160  -1.980  0.00  0.00    +0.012 C 
ATOM     25  C   UNL     1       2.510  -1.440  -5.979  0.00  0.00    +0.165 C 
ATOM     26  O   UNL     1       2.480  -0.226  -5.958  0.00  0.00    -0.292 OA
ATOM     27  C   UNL     1       2.797  -2.140  -7.280  0.00  0.00    +0.086 C 
ATOM     28  C   UNL     1       3.536  -3.450  -6.996  0.00  0.00    -0.021 C 
ATOM     29  C   UNL     1       2.704  -4.287  -6.027  0.00  0.00    +0.081 C 
ATOM     30  C   UNL     1       4.910  -3.156  -6.390  0.00  0.00    +0.012 C 
ATOM     31  C   UNL     1       3.717  -4.223  -8.308  0.00  0.00    +0.012 C 
ENDROOT
BRANCH   2  32
ATOM     32  N   UNL     1       1.168  -4.484  -1.563  0.00  0.00    -0.329 N 
ATOM     33  H   UNL     1       0.659  -4.112  -0.826  0.00  0.00    +0.145 HD
ATOM     34  H   UNL     1       1.361  -5.434  -1.589  0.00  0.00    +0.145 HD
ENDBRANCH   2  32
BRANCH   1  35
ATOM     35  C   UNL     1       0.784  -1.801  -1.331  0.00  0.00    +0.342 C 
ATOM     36  O   UNL     1       1.442  -1.299  -0.437  0.00  0.00    -0.245 OA
BRANCH  35  37
ATOM     37  O   UNL     1      -0.561  -1.855  -1.230  0.00  0.00    -0.462 OA
BRANCH  37  39
ATOM     38  C   UNL     1      -2.667  -1.457  -0.114  0.00  0.00    +0.048 C 
ATOM     39  C   UNL     1      -1.147  -1.305  -0.049  0.00  0.00    +0.229 C 
ENDBRANCH  37  39
ENDBRANCH  35  37
ENDBRANCH   1  35
TORSDOF 4
