REMARK  Name = ZINC25781976
REMARK  8 active torsions:
REMARK  status: ('A' for Active; 'I' for Inactive)
REMARK    1  A    between atoms: C_1  and  N_2
REMARK    2  A    between atoms: N_2  and  C_3
REMARK    3  A    between atoms: N_2  and  C_4
REMARK    4  A    between atoms: C_7  and  C_10
REMARK    5  A    between atoms: C_12  and  C_33
REMARK    6  A    between atoms: C_13  and  N_32
REMARK    7  A    between atoms: N_14  and  C_22
REMARK    8  A    between atoms: C_25  and  N_29
REMARK                            x       y       z     vdW  Elec       q    Type
REMARK                         _______ _______ _______ _____ _____    ______ ____
ROOT
ATOM      1  C   UNL     1       1.467   2.049  -0.038  0.00  0.00    +0.097 C 
ATOM      2  C   UNL     1       0.344   1.082   0.197  0.00  0.00    +0.077 C 
ATOM      3  C   UNL     1       0.492  -0.242  -0.066  0.00  0.00    +0.107 C 
ATOM      4  N   UNL     1       1.683  -0.719  -0.565  0.00  0.00    -0.259 N 
ATOM      5  C   UNL     1       2.572   0.130  -1.172  0.00  0.00    +0.025 C 
ATOM      6  C   UNL     1       2.509   1.461  -0.956  0.00  0.00    +0.025 C 
ATOM      7  C   UNL     1       3.416   2.339  -1.575  0.00  0.00    +0.162 C 
ATOM      8  O   UNL     1       3.321   3.533  -1.374  0.00  0.00    -0.292 OA
ATOM      9  C   UNL     1       4.502   1.827  -2.481  0.00  0.00    +0.080 C 
ATOM     10  C   UNL     1       4.877   0.404  -2.054  0.00  0.00    +0.014 C 
ATOM     11  C   UNL     1       3.615  -0.461  -2.088  0.00  0.00    +0.052 C 
ENDROOT
BRANCH   4  12
ATOM     12  C   UNL     1       1.989  -2.080  -0.451  0.00  0.00    +0.058 A 
ATOM     13  C   UNL     1       1.753  -2.938  -1.517  0.00  0.00    +0.027 A 
ATOM     14  C   UNL     1       2.061  -4.280  -1.403  0.00  0.00    +0.034 A 
ATOM     15  C   UNL     1       2.594  -4.772  -0.225  0.00  0.00    +0.128 A 
ATOM     16  C   UNL     1       2.826  -3.922   0.840  0.00  0.00    +0.054 A 
ATOM     17  C   UNL     1       2.525  -2.577   0.732  0.00  0.00    +0.065 A 
ATOM     18 CL   UNL     1       2.817  -1.510   2.069  0.00  0.00    -0.082 Cl
BRANCH  15  19
ATOM     19  N   UNL     1       2.916  -6.211  -0.105  0.00  0.00    +0.056 N 
ATOM     20  O   UNL     1       3.385  -6.646   0.931  0.00  0.00    -0.126 OA
ATOM     21  O   UNL     1       2.712  -6.961  -1.043  0.00  0.00    -0.126 OA
ENDBRANCH  15  19
ENDBRANCH   4  12
BRANCH   1  25
ATOM     22  C   UNL     1       3.286   3.023   3.705  0.00  0.00    +0.029 A 
ATOM     23  C   UNL     1       3.623   1.843   3.053  0.00  0.00    +0.023 A 
ATOM     24  C   UNL     1       3.033   1.531   1.844  0.00  0.00    +0.006 A 
ATOM     25  C   UNL     1       2.108   2.392   1.282  0.00  0.00    -0.035 A 
ATOM     26  C   UNL     1       1.775   3.570   1.925  0.00  0.00    +0.006 A 
ATOM     27  C   UNL     1       2.357   3.885   3.137  0.00  0.00    +0.023 A 
BRANCH  22  29
ATOM     28  C   UNL     1       4.861   2.431   5.525  0.00  0.00    +0.129 C 
ATOM     29  N   UNL     1       3.881   3.341   4.928  0.00  0.00    -0.336 N 
ATOM     30  C   UNL     1       3.525   4.586   5.613  0.00  0.00    +0.129 C 
ENDBRANCH  22  29
ENDBRANCH   1  25
BRANCH   3  31
ATOM     31  N   UNL     1      -0.550  -1.108   0.167  0.00  0.00    -0.345 N 
ATOM     32  H   UNL     1      -0.431  -2.181  -0.046  0.00  0.00    +0.144 HD
ATOM     33  H   UNL     1      -1.502  -0.729   0.566  0.00  0.00    +0.144 HD
ENDBRANCH   3  31
BRANCH   2  34
ATOM     34  C   UNL     1      -0.906   1.564   0.703  0.00  0.00    +0.099 C 
ATOM     35  N   UNL     1      -1.897   1.947   1.103  0.00  0.00    -0.191 NA
ENDBRANCH   2  34
TORSDOF 6
