REMARK  Name = ZINC14645648
REMARK  12 active torsions:
REMARK  status: ('A' for Active; 'I' for Inactive)
REMARK    1  A    between atoms: C_1  and  C_2
REMARK    2  A    between atoms: C_2  and  C_4
REMARK    3  A    between atoms: C_2  and  O_23
REMARK    4  A    between atoms: N_6  and  N_7
REMARK    5  A    between atoms: C_8  and  C_10
REMARK    6  A    between atoms: C_13  and  O_17
REMARK    7  A    between atoms: O_17  and  C_18
REMARK    8  A    between atoms: C_18  and  C_19
REMARK    9  A    between atoms: C_19  and  C_20
REMARK   10  A    between atoms: C_20  and  C_21
REMARK   11  A    between atoms: C_20  and  C_22
REMARK   12  A    between atoms: O_23  and  C_24
REMARK                            x       y       z     vdW  Elec       q    Type
REMARK                         _______ _______ _______ _____ _____    ______ ____
ROOT
ATOM      1  N   UNL     1      -3.674  -0.350  -0.761  0.00  0.00    -0.230 N 
ATOM      2  C   UNL     1      -4.514  -0.093  -1.783  0.00  0.00    +0.260 C 
ATOM      3  O   UNL     1      -4.086   0.388  -2.815  0.00  0.00    -0.269 OA
ATOM      4  H   UNL     1      -4.015  -0.733   0.062  0.00  0.00    +0.173 HD
ENDROOT
BRANCH   2   5
ATOM      5  C   UNL     1      -5.953  -0.394  -1.650  0.00  0.00    +0.039 A 
ATOM      6  C   UNL     1      -6.447  -0.941  -0.463  0.00  0.00    +0.017 A 
ATOM      7  C   UNL     1      -7.790  -1.221  -0.343  0.00  0.00    +0.047 A 
ATOM      8  C   UNL     1      -8.654  -0.961  -1.400  0.00  0.00    +0.134 A 
ATOM      9  C   UNL     1      -8.166  -0.416  -2.583  0.00  0.00    +0.060 A 
ATOM     10  C   UNL     1      -6.825  -0.128  -2.709  0.00  0.00    +0.032 A 
ATOM     11 BR   UNL     1      -9.347  -0.064  -4.017  0.00  0.00    -0.046 Br
BRANCH   8  12
ATOM     12  O   UNL     1      -9.977  -1.239  -1.277  0.00  0.00    -0.491 OA
BRANCH  12  13
ATOM     13  C   UNL     1     -10.410  -1.797  -0.035  0.00  0.00    +0.229 C 
BRANCH  13  14
ATOM     14  C   UNL     1     -11.919  -2.041  -0.084  0.00  0.00    +0.044 C 
BRANCH  14  15
ATOM     15  C   UNL     1     -12.383  -2.639   1.246  0.00  0.00    -0.014 C 
ATOM     16  C   UNL     1     -12.175  -1.616   2.365  0.00  0.00    +0.007 C 
ATOM     17  C   UNL     1     -13.868  -2.998   1.153  0.00  0.00    +0.007 C 
ENDBRANCH  14  15
ENDBRANCH  13  14
ENDBRANCH  12  13
ENDBRANCH   8  12
ENDBRANCH   2   5
BRANCH   1  20
ATOM     18  C   UNL     1      -1.469  -0.321   0.135  0.00  0.00    +0.270 C 
ATOM     19  O   UNL     1      -1.895  -0.800   1.165  0.00  0.00    -0.270 OA
ATOM     20  N   UNL     1      -2.309  -0.064  -0.887  0.00  0.00    -0.231 N 
ATOM     21  H   UNL     1      -1.968   0.320  -1.710  0.00  0.00    +0.173 HD
BRANCH  18  23
ATOM     22  C   UNL     1       0.193   1.499  -0.139  0.00  0.00    +0.062 C 
ATOM     23  C   UNL     1       0.000  -0.013  -0.000  0.00  0.00    +0.257 C 
BRANCH  23  24
ATOM     24  O   UNL     1       0.693  -0.477   1.160  0.00  0.00    -0.478 OA
BRANCH  24  25
ATOM     25  C   UNL     1       2.014  -0.764   1.016  0.00  0.00    +0.140 A 
ATOM     26  C   UNL     1       2.656  -0.496  -0.184  0.00  0.00    +0.048 A 
ATOM     27  C   UNL     1       3.999  -0.788  -0.329  0.00  0.00    +0.023 A 
ATOM     28  C   UNL     1       4.704  -1.347   0.722  0.00  0.00    +0.043 A 
ATOM     29  C   UNL     1       4.066  -1.616   1.920  0.00  0.00    +0.043 A 
ATOM     30  C   UNL     1       2.724  -1.320   2.071  0.00  0.00    +0.084 A 
ATOM     31 CL   UNL     1       1.925  -1.651   3.576  0.00  0.00    -0.080 Cl
ATOM     32 CL   UNL     1       6.391  -1.714   0.537  0.00  0.00    -0.083 Cl
ENDBRANCH  24  25
ENDBRANCH  23  24
ENDBRANCH  18  23
ENDBRANCH   1  20
TORSDOF 9
