REMARK  Name = ZINC39636034
REMARK  6 active torsions:
REMARK  status: ('A' for Active; 'I' for Inactive)
REMARK    1  A    between atoms: C_1  and  C_2
REMARK    2  A    between atoms: C_8  and  N_10
REMARK    3  A    between atoms: C_11  and  C_13
REMARK    4  A    between atoms: C_24  and  C_26
REMARK    5  A    between atoms: C_31  and  O_32
REMARK    6  A    between atoms: O_32  and  C_33
REMARK                            x       y       z     vdW  Elec       q    Type
REMARK                         _______ _______ _______ _____ _____    ______ ____
ROOT
ATOM      1  C   UNL     1      -0.312   0.300   5.192  0.00  0.00    +0.100 C 
ATOM      2  C   UNL     1      -0.596   1.783   4.866  0.00  0.00    +0.121 C 
ATOM      3  N   UNL     1      -0.282   2.508   6.120  0.00  0.00    -0.296 N 
ATOM      4  C   UNL     1       0.929   1.832   6.644  0.00  0.00    +0.115 C 
ATOM      5  C   UNL     1       0.690   0.336   6.358  0.00  0.00    -0.004 C 
ATOM      6  C   UNL     1       1.996  -0.339   5.954  0.00  0.00    -0.010 C 
ATOM      7  C   UNL     1       2.955  -0.343   7.148  0.00  0.00    -0.082 C 
ATOM      8  N   UNL     1       2.338  -1.060   8.271  0.00  0.00    +0.379 N 
ATOM      9  C   UNL     1       1.131  -0.351   8.714  0.00  0.00    -0.082 C 
ATOM     10  C   UNL     1       0.095  -0.348   7.586  0.00  0.00    -0.010 C 
ATOM     11  C   UNL     1      -0.947   3.548   6.662  0.00  0.00    +0.252 C 
ATOM     12  O   UNL     1      -0.510   4.098   7.654  0.00  0.00    -0.270 OA
ATOM     13  H   UNL     1       2.090  -1.993   7.977  0.00  0.00    -0.086 HD
ATOM     14  H   UNL     1       2.994  -1.114   9.035  0.00  0.00    -0.086 HD
ENDROOT
BRANCH  11  15
ATOM     15  C   UNL     1      -2.205   4.018   6.051  0.00  0.00    +0.099 A 
ATOM     16  C   UNL     1      -2.382   3.977   4.663  0.00  0.00    +0.020 A 
ATOM     17  C   UNL     1      -3.580   4.429   4.141  0.00  0.00    +0.021 A 
ATOM     18  C   UNL     1      -4.560   4.903   4.995  0.00  0.00    +0.114 A 
ATOM     19  N   UNL     1      -4.372   4.932   6.300  0.00  0.00    -0.220 NA
ATOM     20  C   UNL     1      -3.248   4.507   6.852  0.00  0.00    +0.233 A 
BRANCH  20  21
ATOM     21  O   UNL     1      -3.101   4.550   8.197  0.00  0.00    -0.437 OA
BRANCH  21  22
ATOM     22  C   UNL     1      -4.092   5.123   8.930  0.00  0.00    +0.130 A 
ATOM     23  C   UNL     1      -5.266   4.426   9.174  0.00  0.00    +0.048 A 
ATOM     24  C   UNL     1      -6.273   5.009   9.919  0.00  0.00    +0.023 A 
ATOM     25  C   UNL     1      -6.110   6.288  10.421  0.00  0.00    +0.041 A 
ATOM     26  C   UNL     1      -4.940   6.985  10.179  0.00  0.00    +0.023 A 
ATOM     27  C   UNL     1      -3.929   6.403   9.439  0.00  0.00    +0.048 A 
ATOM     28 CL   UNL     1      -7.377   7.019  11.357  0.00  0.00    -0.084 Cl
ENDBRANCH  21  22
ENDBRANCH  20  21
ENDBRANCH  11  15
BRANCH   1  30
ATOM     29  N   UNL     1       0.068  -1.704   3.792  0.00  0.00    -0.312 N 
ATOM     30  C   UNL     1       0.296  -0.392   3.999  0.00  0.00    +0.218 C 
ATOM     31  O   UNL     1       0.991   0.232   3.225  0.00  0.00    -0.275 OA
ATOM     32  H   UNL     1      -0.488  -2.203   4.411  0.00  0.00    +0.149 HD
BRANCH  29  39
ATOM     33  C   UNL     1      -1.610  -3.144   1.921  0.00  0.00    +0.009 C 
ATOM     34  C   UNL     1      -0.189  -3.596   2.263  0.00  0.00    +0.006 C 
ATOM     35  C   UNL     1      -0.232  -4.564   3.447  0.00  0.00    +0.005 C 
ATOM     36  C   UNL     1       1.189  -5.016   3.789  0.00  0.00    +0.000 C 
ATOM     37  C   UNL     1       2.036  -3.796   4.159  0.00  0.00    +0.002 C 
ATOM     38  C   UNL     1       2.080  -2.828   2.975  0.00  0.00    +0.022 C 
ATOM     39  C   UNL     1       0.659  -2.377   2.633  0.00  0.00    +0.076 C 
ENDBRANCH  29  39
ENDBRANCH   1  30
TORSDOF 5
