REMARK  Name = ZINC59040236
REMARK  5 active torsions:
REMARK  status: ('A' for Active; 'I' for Inactive)
REMARK    1  A    between atoms: C_3  and  N_27
REMARK    2  A    between atoms: C_6  and  N_7
REMARK    3  A    between atoms: N_13  and  S_16
REMARK    4  A    between atoms: S_16  and  C_19
REMARK    5  A    between atoms: C_22  and  C_24
REMARK                            x       y       z     vdW  Elec       q    Type
REMARK                         _______ _______ _______ _____ _____    ______ ____
ROOT
ATOM      1  N   UNL     1      -1.199  -0.737   0.072  0.00  0.00    -0.268 N 
ATOM      2  C   UNL     1      -1.173  -2.073  -0.099  0.00  0.00    +0.307 C 
ATOM      3  O   UNL     1      -0.109  -2.657  -0.169  0.00  0.00    -0.252 OA
ATOM      4  N   UNL     1      -2.327  -2.763  -0.193  0.00  0.00    -0.283 N 
ATOM      5  C   UNL     1      -3.613  -2.059  -0.294  0.00  0.00    +0.126 C 
ATOM      6  C   UNL     1      -4.343  -2.548  -1.551  0.00  0.00    +0.128 C 
ATOM      7  N   UNL     1      -4.338  -4.018  -1.555  0.00  0.00    -0.171 NA
ATOM      8  C   UNL     1      -3.052  -4.722  -1.454  0.00  0.00    +0.128 C 
ATOM      9  C   UNL     1      -2.322  -4.232  -0.202  0.00  0.00    +0.126 C 
ATOM     10  H   UNL     1      -2.039  -0.287   0.252  0.00  0.00    +0.156 HD
ENDROOT
BRANCH   1  16
ATOM     11  C   UNL     1      -0.042   1.349  -0.374  0.00  0.00    +0.028 A 
ATOM     12  C   UNL     1       1.154   2.040  -0.442  0.00  0.00    +0.043 A 
ATOM     13  C   UNL     1       2.340   1.375  -0.148  0.00  0.00    +0.099 A 
ATOM     14  N   UNL     1       2.331   0.096   0.193  0.00  0.00    -0.348 N 
ATOM     15  C   UNL     1       1.209  -0.594   0.268  0.00  0.00    +0.107 A 
ATOM     16  C   UNL     1      -0.011   0.004  -0.011  0.00  0.00    +0.051 A 
ATOM     17  H   UNL     1       3.172  -0.345   0.393  0.00  0.00    +0.167 HD
BRANCH  13  18
ATOM     18  N   UNL     1       3.549   2.062  -0.214  0.00  0.00    -0.317 N 
ATOM     19  C   UNL     1       3.711   3.479  -0.570  0.00  0.00    +0.106 C 
ATOM     20  C   UNL     1       5.222   3.790  -0.536  0.00  0.00    +0.020 C 
ATOM     21  C   UNL     1       5.869   2.391  -0.714  0.00  0.00    +0.020 C 
ATOM     22  C   UNL     1       4.878   1.491   0.069  0.00  0.00    +0.106 C 
ENDBRANCH  13  18
ENDBRANCH   1  16
BRANCH   7  23
ATOM     23  S   UNL     1      -5.756  -4.865  -1.670  0.00  0.00    +0.094 S 
ATOM     24  O   UNL     1      -5.512  -6.144  -1.102  0.00  0.00    -0.150 OA
ATOM     25  O   UNL     1      -6.783  -4.004  -1.197  0.00  0.00    -0.150 OA
BRANCH  23  26
ATOM     26  C   UNL     1      -6.069  -5.127  -3.384  0.00  0.00    +0.259 A 
ATOM     27  C   UNL     1      -5.652  -6.190  -4.107  0.00  0.00    +0.072 A 
ATOM     28  C   UNL     1      -6.114  -6.005  -5.419  0.00  0.00    +0.057 A 
ATOM     29  C   UNL     1      -6.798  -4.822  -5.431  0.00  0.00    +0.191 A 
ATOM     30  O   UNL     1      -6.763  -4.307  -4.184  0.00  0.00    -0.432 OA
BRANCH  29  31
ATOM     31  C   UNL     1      -7.459  -4.221  -6.594  0.00  0.00    +0.277 C 
ATOM     32  O   UNL     1      -7.425  -4.784  -7.672  0.00  0.00    -0.267 OA
ATOM     33  N   UNL     1      -8.102  -3.043  -6.468  0.00  0.00    -0.323 N 
ATOM     34  H   UNL     1      -8.129  -2.594  -5.609  0.00  0.00    +0.145 HD
ATOM     35  H   UNL     1      -8.539  -2.645  -7.238  0.00  0.00    +0.145 HD
ENDBRANCH  29  31
ENDBRANCH  23  26
ENDBRANCH   7  23
TORSDOF 5
