REMARK  Name = ZINC20682683
REMARK  8 active torsions:
REMARK  status: ('A' for Active; 'I' for Inactive)
REMARK    1  A    between atoms: C_1  and  C_2
REMARK    2  A    between atoms: C_4  and  N_11
REMARK    3  A    between atoms: C_5  and  O_9
REMARK    4  A    between atoms: O_9  and  C_10
REMARK    5  A    between atoms: N_11  and  C_12
REMARK    6  A    between atoms: C_12  and  N_14
REMARK    7  A    between atoms: N_14  and  N_15
REMARK    8  A    between atoms: C_28  and  O_31
REMARK                            x       y       z     vdW  Elec       q    Type
REMARK                         _______ _______ _______ _____ _____    ______ ____
ROOT
ATOM      1  N   UNL     1      -4.765   1.334  -0.125  0.00  0.00    -0.185 NA
ATOM      2  C   UNL     1      -5.894   1.969  -0.204  0.00  0.00    +0.074 C 
ATOM      3  C   UNL     1      -7.218   1.233  -0.311  0.00  0.00    +0.105 C 
ATOM      4  C   UNL     1      -8.090   2.003  -1.308  0.00  0.00    +0.116 C 
ATOM      5  C   UNL     1      -7.406   2.003  -2.676  0.00  0.00    +0.048 C 
ATOM      6  C   UNL     1      -8.276   2.763  -3.680  0.00  0.00    +0.004 C 
ATOM      7  C   UNL     1      -9.641   2.081  -3.791  0.00  0.00    +0.000 C 
ATOM      8  C   UNL     1     -10.324   2.080  -2.422  0.00  0.00    +0.004 C 
ATOM      9  C   UNL     1      -9.454   1.320  -1.419  0.00  0.00    +0.048 C 
ATOM     10  O   UNL     1      -8.262   3.346  -0.857  0.00  0.00    -0.485 OA
ATOM     11  C   UNL     1      -7.163   4.076  -0.541  0.00  0.00    +0.130 A 
ATOM     12  C   UNL     1      -5.958   3.447  -0.198  0.00  0.00    +0.043 A 
ATOM     13  C   UNL     1      -4.840   4.205   0.141  0.00  0.00    +0.058 A 
ATOM     14  C   UNL     1      -4.924   5.588   0.133  0.00  0.00    +0.118 A 
ATOM     15  C   UNL     1      -6.116   6.210  -0.212  0.00  0.00    +0.049 A 
ATOM     16  C   UNL     1      -7.228   5.460  -0.546  0.00  0.00    +0.050 A 
ENDROOT
BRANCH   1  17
ATOM     17  N   UNL     1      -4.747  -0.067  -0.133  0.00  0.00    -0.218 N 
ATOM     18  H   UNL     1      -5.690  -0.629  -0.206  0.00  0.00    +0.176 HD
BRANCH  17  19
ATOM     19  C   UNL     1      -3.574  -0.726  -0.052  0.00  0.00    +0.154 C 
ATOM     20  S   UNL     1      -3.552  -2.438  -0.062  0.00  0.00    -0.017 S 
BRANCH  19  21
ATOM     21  N   UNL     1      -2.419  -0.038   0.037  0.00  0.00    -0.293 N 
ATOM     22  H   UNL     1      -2.437   1.058   0.134  0.00  0.00    +0.154 HD
BRANCH  21  26
ATOM     23  C   UNL     1       0.448  -3.505  -1.948  0.00  0.00    +0.045 C 
ATOM     24  C   UNL     1       0.224  -2.403  -0.945  0.00  0.00    -0.030 A 
ATOM     25  C   UNL     1      -0.983  -1.729  -0.920  0.00  0.00    +0.031 A 
ATOM     26  C   UNL     1      -1.194  -0.718   0.005  0.00  0.00    +0.075 A 
ATOM     27  C   UNL     1      -0.182  -0.376   0.901  0.00  0.00    +0.143 A 
ATOM     28  C   UNL     1       1.024  -1.055   0.870  0.00  0.00    +0.067 A 
ATOM     29  C   UNL     1       1.225  -2.067  -0.052  0.00  0.00    +0.047 A 
ATOM     30 CL   UNL     1       2.739  -2.917  -0.089  0.00  0.00    -0.083 Cl
BRANCH  27  31
ATOM     31  O   UNL     1      -0.381   0.619   1.806  0.00  0.00    -0.493 OA
ATOM     32  C   UNL     1       0.698   0.911   2.697  0.00  0.00    +0.277 C 
ENDBRANCH  27  31
ENDBRANCH  21  26
ENDBRANCH  19  21
ENDBRANCH  17  19
ENDBRANCH   1  17
BRANCH  14  33
ATOM     33  O   UNL     1      -3.837   6.336   0.463  0.00  0.00    -0.507 OA
ATOM     34  H   UNL     1      -3.903   7.434   0.457  0.00  0.00    +0.292 HD
ENDBRANCH  14  33
TORSDOF 6
