REMARK  Name = ZINC18098261
REMARK  5 active torsions:
REMARK  status: ('A' for Active; 'I' for Inactive)
REMARK    1  A    between atoms: C_4  and  C_8
REMARK    2  A    between atoms: N_10  and  N_11
REMARK    3  A    between atoms: C_12  and  C_14
REMARK    4  A    between atoms: C_14  and  C_15
REMARK    5  A    between atoms: C_15  and  N_16
REMARK                            x       y       z     vdW  Elec       q    Type
REMARK                         _______ _______ _______ _____ _____    ______ ____
ROOT
ATOM      1  N   UNL     1       3.201  -7.695  -3.612  0.00  0.00    -0.234 N 
ATOM      2  C   UNL     1       3.091  -7.187  -2.368  0.00  0.00    +0.231 C 
ATOM      3  O   UNL     1       3.752  -7.650  -1.463  0.00  0.00    -0.274 OA
ATOM      4  H   UNL     1       2.672  -7.325  -4.335  0.00  0.00    +0.173 HD
ENDROOT
BRANCH   1   7
ATOM      5  C   UNL     1       4.188  -9.267  -5.102  0.00  0.00    +0.262 C 
ATOM      6  O   UNL     1       3.526  -8.803  -6.009  0.00  0.00    -0.269 OA
ATOM      7  N   UNL     1       4.079  -8.759  -3.859  0.00  0.00    -0.230 N 
ATOM      8  H   UNL     1       4.607  -9.129  -3.135  0.00  0.00    +0.173 HD
BRANCH   5  12
ATOM      9  C   UNL     1       6.851 -12.491  -5.852  0.00  0.00    +0.021 A 
ATOM     10  C   UNL     1       6.098 -11.966  -6.887  0.00  0.00    +0.022 A 
ATOM     11  C   UNL     1       5.231 -10.918  -6.650  0.00  0.00    +0.053 A 
ATOM     12  C   UNL     1       5.114 -10.389  -5.362  0.00  0.00    +0.058 A 
ATOM     13  C   UNL     1       5.881 -10.920  -4.324  0.00  0.00    +0.034 A 
ATOM     14  C   UNL     1       6.741 -11.971  -4.574  0.00  0.00    +0.042 A 
ATOM     15 CL   UNL     1       7.691 -12.637  -3.283  0.00  0.00    -0.084 Cl
ATOM     16 CL   UNL     1       4.286 -10.261  -7.950  0.00  0.00    -0.083 Cl
ENDBRANCH   5  12
ENDBRANCH   1   7
BRANCH   2  17
ATOM     17  C   UNL     1       2.147  -6.043  -2.103  0.00  0.00    +0.119 C 
BRANCH  17  18
ATOM     18  C   UNL     1       2.213  -5.659  -0.623  0.00  0.00    +0.135 C 
BRANCH  18  19
ATOM     19  N   UNL     1       1.295  -4.547  -0.365  0.00  0.00    -0.298 N 
ATOM     20  C   UNL     1       0.019  -4.832  -0.011  0.00  0.00    +0.203 A 
ATOM     21  N   UNL     1      -0.879  -3.905   0.240  0.00  0.00    -0.230 NA
ATOM     22  C   UNL     1      -0.494  -2.637   0.136  0.00  0.00    +0.116 A 
ATOM     23  C   UNL     1       0.812  -2.239  -0.226  0.00  0.00    +0.076 A 
ATOM     24  C   UNL     1       1.762  -3.282  -0.491  0.00  0.00    +0.262 A 
ATOM     25  O   UNL     1       2.914  -3.045  -0.810  0.00  0.00    -0.267 OA
ATOM     26  C   UNL     1       1.051  -0.808  -0.290  0.00  0.00    -0.023 A 
ATOM     27  C   UNL     1       0.002  -0.004   0.002  0.00  0.00    -0.004 A 
ATOM     28  S   UNL     1      -1.339  -1.106   0.372  0.00  0.00    -0.073 S 
ATOM     29  C   UNL     1      -0.018   1.493   0.010  0.00  0.00    +0.043 C 
ATOM     30  C   UNL     1       1.431   1.999  -0.001  0.00  0.00    +0.005 C 
ATOM     31  C   UNL     1       2.205   1.245  -1.085  0.00  0.00    +0.005 C 
ATOM     32  C   UNL     1       2.405  -0.211  -0.663  0.00  0.00    +0.037 C 
ENDBRANCH  18  19
ENDBRANCH  17  18
ENDBRANCH   2  17
TORSDOF 5
