REMARK  Name = ZINC41641869
REMARK  9 active torsions:
REMARK  status: ('A' for Active; 'I' for Inactive)
REMARK    1  A    between atoms: C_1  and  N_2
REMARK    2  A    between atoms: N_2  and  C_3
REMARK    3  A    between atoms: N_2  and  C_4
REMARK    4  A    between atoms: C_4  and  C_6
REMARK    5  A    between atoms: C_4  and  C_24
REMARK    6  A    between atoms: C_6  and  N_7
REMARK    7  A    between atoms: C_8  and  C_10
REMARK    8  A    between atoms: N_12  and  C_13
REMARK    9  A    between atoms: C_15  and  N_21
REMARK                            x       y       z     vdW  Elec       q    Type
REMARK                         _______ _______ _______ _____ _____    ______ ____
ROOT
ATOM      1  N   UNL     1      -0.968  -2.440   1.412  0.00  0.00    -0.309 N 
ATOM      2  C   UNL     1      -0.524  -3.697   1.609  0.00  0.00    +0.299 C 
ATOM      3  O   UNL     1      -0.761  -4.560   0.789  0.00  0.00    -0.265 OA
ATOM      4  H   UNL     1      -0.779  -1.751   2.067  0.00  0.00    +0.149 HD
ENDROOT
BRANCH   2   5
ATOM      5  C   UNL     1       0.260  -4.028   2.836  0.00  0.00    +0.303 C 
ATOM      6  O   UNL     1       0.497  -3.165   3.656  0.00  0.00    -0.265 OA
ATOM      7  N   UNL     1       0.705  -5.285   3.034  0.00  0.00    -0.275 N 
ATOM      8  H   UNL     1       0.576  -5.958   2.347  0.00  0.00    +0.155 HD
BRANCH   7   9
ATOM      9  C   UNL     1       1.351  -5.619   4.228  0.00  0.00    +0.072 A 
ATOM     10  C   UNL     1       1.114  -4.878   5.378  0.00  0.00    +0.062 A 
ATOM     11  C   UNL     1       1.754  -5.209   6.557  0.00  0.00    +0.163 A 
ATOM     12  C   UNL     1       2.632  -6.280   6.593  0.00  0.00    +0.156 A 
ATOM     13  C   UNL     1       2.872  -7.021   5.449  0.00  0.00    +0.081 A 
ATOM     14  C   UNL     1       2.229  -6.698   4.268  0.00  0.00    +0.147 A 
ATOM     15  F   UNL     1       2.458  -7.425   3.152  0.00  0.00    -0.203 F 
ATOM     16  F   UNL     1       3.256  -6.601   7.748  0.00  0.00    -0.203 F 
BRANCH  11  17
ATOM     17  N   UNL     1       1.501  -4.419   7.782  0.00  0.00    +0.059 N 
ATOM     18  O   UNL     1       0.735  -3.484   7.752  0.00  0.00    -0.126 OA
ATOM     19  O   UNL     1       2.060  -4.708   8.815  0.00  0.00    -0.126 OA
ENDBRANCH  11  17
ENDBRANCH   7   9
ENDBRANCH   2   5
BRANCH   1  20
ATOM     20  C   UNL     1      -1.738  -2.116   0.208  0.00  0.00    +0.089 C 
BRANCH  20  21
ATOM     21  C   UNL     1      -1.956  -0.603   0.135  0.00  0.00    -0.049 C 
BRANCH  21  22
ATOM     22  C   UNL     1      -2.943  -0.284  -0.990  0.00  0.00    -0.023 C 
ATOM     23  C   UNL     1      -3.067   1.233  -1.144  0.00  0.00    +0.002 C 
ATOM     24  C   UNL     1      -4.053   1.552  -2.270  0.00  0.00    +0.000 C 
ATOM     25  C   UNL     1      -5.423   0.959  -1.931  0.00  0.00    +0.000 C 
ATOM     26  C   UNL     1      -5.298  -0.558  -1.777  0.00  0.00    +0.000 C 
ATOM     27  C   UNL     1      -4.312  -0.877  -0.651  0.00  0.00    +0.002 C 
ENDBRANCH  21  22
BRANCH  21  29
ATOM     28  C   UNL     1       0.266  -0.229   0.956  0.00  0.00    -0.096 C 
ATOM     29  N   UNL     1      -0.675   0.065  -0.132  0.00  0.00    +0.379 N 
ATOM     30  C   UNL     1      -0.124  -0.425  -1.403  0.00  0.00    -0.096 C 
ATOM     31  H   UNL     1      -0.822   1.061  -0.191  0.00  0.00    -0.082 HD
ENDBRANCH  21  29
ENDBRANCH  20  21
ENDBRANCH   1  20
TORSDOF 7
