REMARK  Name = ZINC31169782
REMARK  14 active torsions:
REMARK  status: ('A' for Active; 'I' for Inactive)
REMARK    1  A    between atoms: C_1  and  C_2
REMARK    2  A    between atoms: C_2  and  C_32
REMARK    3  A    between atoms: C_3  and  C_4
REMARK    4  A    between atoms: C_4  and  C_5
REMARK    5  A    between atoms: C_5  and  C_6
REMARK    6  A    between atoms: C_6  and  C_31
REMARK    7  A    between atoms: C_7  and  C_8
REMARK    8  A    between atoms: C_8  and  C_9
REMARK    9  A    between atoms: C_10  and  O_30
REMARK   10  A    between atoms: C_12  and  O_29
REMARK   11  A    between atoms: C_17  and  C_20
REMARK   12  A    between atoms: C_23  and  O_27
REMARK   13  A    between atoms: C_24  and  O_26
REMARK   14  A    between atoms: O_27  and  C_28
REMARK                            x       y       z     vdW  Elec       q    Type
REMARK                         _______ _______ _______ _____ _____    ______ ____
ROOT
ATOM      1  C   UNL     1      -0.636   2.762   0.514  0.00  0.00    +0.041 A 
ATOM      2  C   UNL     1      -1.664   1.907   0.880  0.00  0.00    +0.127 A 
ATOM      3  C   UNL     1      -1.399   0.589   1.235  0.00  0.00    +0.092 A 
ATOM      4  C   UNL     1      -0.100   0.115   1.222  0.00  0.00    +0.135 A 
ATOM      5  C   UNL     1       0.943   0.973   0.849  0.00  0.00    +0.106 A 
ATOM      6  C   UNL     1       0.674   2.305   0.490  0.00  0.00    +0.149 A 
ATOM      7  O   UNL     1       1.679   3.129   0.132  0.00  0.00    -0.462 OA
ATOM      8  C   UNL     1       2.959   2.749   0.094  0.00  0.00    +0.208 A 
ATOM      9  C   UNL     1       3.358   1.493   0.416  0.00  0.00    +0.065 A 
ATOM     10  C   UNL     1       2.339   0.509   0.823  0.00  0.00    +0.204 A 
ATOM     11  O   UNL     1       2.639  -0.634   1.123  0.00  0.00    -0.286 OA
ENDROOT
BRANCH   9  12
ATOM     12  C   UNL     1       4.792   1.117   0.359  0.00  0.00    -0.008 A 
ATOM     13  C   UNL     1       5.390   0.480   1.445  0.00  0.00    +0.012 A 
ATOM     14  C   UNL     1       6.724   0.130   1.391  0.00  0.00    +0.050 A 
ATOM     15  C   UNL     1       7.472   0.411   0.258  0.00  0.00    +0.161 A 
ATOM     16  C   UNL     1       6.880   1.047  -0.830  0.00  0.00    +0.159 A 
ATOM     17  C   UNL     1       5.542   1.395  -0.782  0.00  0.00    +0.058 A 
BRANCH  16  18
ATOM     18  O   UNL     1       7.615   1.321  -1.941  0.00  0.00    -0.503 OA
ATOM     19  H   UNL     1       7.147   1.823  -2.800  0.00  0.00    +0.292 HD
ENDBRANCH  16  18
BRANCH  15  20
ATOM     20  O   UNL     1       8.787   0.065   0.209  0.00  0.00    -0.491 OA
ATOM     21  C   UNL     1       9.330  -0.585   1.360  0.00  0.00    +0.277 C 
ENDBRANCH  15  20
ENDBRANCH   9  12
BRANCH   4  22
ATOM     22  O   UNL     1       0.162  -1.170   1.569  0.00  0.00    -0.506 OA
ATOM     23  H   UNL     1       1.197  -1.543   1.558  0.00  0.00    +0.292 HD
ENDBRANCH   4  22
BRANCH   2  24
ATOM     24  O   UNL     1      -2.942   2.363   0.896  0.00  0.00    -0.506 OA
ATOM     25  H   UNL     1      -3.763   1.689   1.185  0.00  0.00    +0.292 HD
ENDBRANCH   2  24
BRANCH   1  26
ATOM     26  C   UNL     1      -0.943   4.187   0.133  0.00  0.00    +0.069 C 
BRANCH  26  28
ATOM     27  C   UNL     1      -2.316   4.810  -1.788  0.00  0.00    -0.076 C 
ATOM     28  C   UNL     1      -1.209   4.265  -1.349  0.00  0.00    -0.023 C 
ATOM     29  C   UNL     1      -3.385   5.234  -0.814  0.00  0.00    +0.039 C 
BRANCH  27  30
ATOM     30  C   UNL     1      -2.521   5.013  -3.267  0.00  0.00    +0.034 C 
BRANCH  30  31
ATOM     31  C   UNL     1      -3.306   3.831  -3.840  0.00  0.00    +0.031 C 
BRANCH  31  34
ATOM     32  C   UNL     1      -2.477   1.849  -5.662  0.00  0.00    +0.038 C 
ATOM     33  C   UNL     1      -3.125   3.113  -6.167  0.00  0.00    -0.080 C 
ATOM     34  C   UNL     1      -3.510   4.035  -5.319  0.00  0.00    -0.028 C 
ATOM     35  C   UNL     1      -3.330   3.316  -7.646  0.00  0.00    +0.038 C 
ENDBRANCH  31  34
ENDBRANCH  30  31
ENDBRANCH  27  30
ENDBRANCH  26  28
ENDBRANCH   1  26
TORSDOF 10
