REMARK  Name = ZINC43222351
REMARK  5 active torsions:
REMARK  status: ('A' for Active; 'I' for Inactive)
REMARK    1  A    between atoms: C_10  and  C_11
REMARK    2  A    between atoms: C_11  and  N_12
REMARK    3  A    between atoms: C_13  and  C_15
REMARK    4  A    between atoms: C_20  and  C_22
REMARK    5  A    between atoms: N_24  and  C_25
REMARK                            x       y       z     vdW  Elec       q    Type
REMARK                         _______ _______ _______ _____ _____    ______ ____
ROOT
ATOM      1  C   UNL     1       6.704   1.792   2.947  0.00  0.00    +0.068 C 
ATOM      2  C   UNL     1       6.919   0.579   3.877  0.00  0.00    -0.069 C 
ATOM      3  N   UNL     1       8.390   0.367   3.881  0.00  0.00    +0.380 N 
ATOM      4  C   UNL     1       8.956   1.740   3.908  0.00  0.00    -0.069 C 
ATOM      5  C   UNL     1       8.042   2.558   2.966  0.00  0.00    +0.068 C 
ATOM      6  H   UNL     1       8.670  -0.146   4.704  0.00  0.00    -0.086 HD
ATOM      7  H   UNL     1       8.678  -0.118   3.045  0.00  0.00    -0.086 HD
ENDROOT
BRANCH   1   9
ATOM      8  N   UNL     1       5.269   0.611   1.313  0.00  0.00    -0.311 N 
ATOM      9  C   UNL     1       6.386   1.328   1.548  0.00  0.00    +0.215 C 
ATOM     10  O   UNL     1       7.135   1.601   0.634  0.00  0.00    -0.276 OA
ATOM     11  H   UNL     1       4.670   0.393   2.045  0.00  0.00    +0.149 HD
BRANCH   8  12
ATOM     12  C   UNL     1       4.960   0.161  -0.046  0.00  0.00    +0.140 C 
BRANCH  12  22
ATOM     13  C   UNL     1      -0.016   1.357   0.009  0.00  0.00    +0.001 A 
ATOM     14  C   UNL     1       1.169   2.091   0.002  0.00  0.00    +0.001 A 
ATOM     15  C   UNL     1       2.378   1.468  -0.013  0.00  0.00    +0.009 A 
ATOM     16  C   UNL     1       2.438   0.064  -0.021  0.00  0.00    -0.013 A 
ATOM     17  C   UNL     1       1.233  -0.683  -0.013  0.00  0.00    -0.018 A 
ATOM     18  C   UNL     1       0.002  -0.004   0.002  0.00  0.00    +0.008 A 
ATOM     19  C   UNL     1       1.292  -2.087  -0.021  0.00  0.00    +0.008 A 
ATOM     20  C   UNL     1       2.502  -2.709  -0.036  0.00  0.00    +0.001 A 
ATOM     21  C   UNL     1       3.687  -1.976  -0.043  0.00  0.00    +0.006 A 
ATOM     22  C   UNL     1       3.668  -0.615  -0.037  0.00  0.00    -0.023 A 
ENDBRANCH  12  22
ENDBRANCH   8  12
ENDBRANCH   1   9
BRANCH   5  23
ATOM     23  C   UNL     1       7.841   3.950   3.508  0.00  0.00    +0.215 C 
ATOM     24  O   UNL     1       6.736   4.313   3.851  0.00  0.00    -0.276 OA
ATOM     25  N   UNL     1       8.889   4.791   3.610  0.00  0.00    -0.308 N 
ATOM     26  H   UNL     1       9.773   4.501   3.335  0.00  0.00    +0.149 HD
BRANCH  25  27
ATOM     27  C   UNL     1       8.694   6.144   4.136  0.00  0.00    +0.103 C 
ATOM     28  C   UNL     1       9.784   7.061   3.587  0.00  0.00    +0.027 C 
ATOM     29  C   UNL     1       9.695   8.408   4.313  0.00  0.00    +0.007 C 
ATOM     30  C   UNL     1      10.145   8.207   5.758  0.00  0.00    +0.035 C 
ATOM     31  C   UNL     1       9.408   7.053   6.386  0.00  0.00    -0.042 A 
ATOM     32  C   UNL     1       8.745   6.104   5.641  0.00  0.00    -0.024 A 
ATOM     33  C   UNL     1       8.091   5.061   6.283  0.00  0.00    +0.006 A 
ATOM     34  C   UNL     1       8.097   4.970   7.660  0.00  0.00    +0.000 A 
ATOM     35  C   UNL     1       8.760   5.926   8.408  0.00  0.00    +0.000 A 
ATOM     36  C   UNL     1       9.411   6.961   7.772  0.00  0.00    +0.004 A 
ENDBRANCH  25  27
ENDBRANCH   5  23
TORSDOF 5
