REMARK  Name = ZINC25682627
REMARK  12 active torsions:
REMARK  status: ('A' for Active; 'I' for Inactive)
REMARK    1  A    between atoms: C_1  and  C_2
REMARK    2  A    between atoms: C_2  and  C_3
REMARK    3  A    between atoms: C_3  and  C_4
REMARK    4  A    between atoms: C_4  and  N_5
REMARK    5  A    between atoms: C_6  and  N_31
REMARK    6  A    between atoms: C_7  and  N_14
REMARK    7  A    between atoms: N_14  and  C_15
REMARK    8  A    between atoms: C_15  and  C_16
REMARK    9  A    between atoms: C_17  and  C_19
REMARK   10  A    between atoms: C_19  and  N_20
REMARK   11  A    between atoms: N_23  and  C_26
REMARK   12  A    between atoms: C_26  and  C_27
REMARK                            x       y       z     vdW  Elec       q    Type
REMARK                         _______ _______ _______ _____ _____    ______ ____
ROOT
ATOM      1  N   UNL     1      -3.134  -4.719  -2.248  0.00  0.00    -0.266 N 
ATOM      2  C   UNL     1      -3.006  -4.038  -3.407  0.00  0.00    +0.203 C 
ATOM      3  O   UNL     1      -3.022  -2.825  -3.402  0.00  0.00    -0.277 OA
ENDROOT
BRANCH   1   6
ATOM      4  N   UNL     1      -2.754  -3.414   1.165  0.00  0.00    -0.280 N 
ATOM      5  C   UNL     1      -2.485  -4.099   0.003  0.00  0.00    +0.127 A 
ATOM      6  C   UNL     1      -3.379  -4.024  -1.045  0.00  0.00    +0.140 A 
ATOM      7  C   UNL     1      -4.537  -3.237  -0.896  0.00  0.00    +0.277 A 
ATOM      8  O   UNL     1      -5.341  -3.149  -1.808  0.00  0.00    -0.266 OA
ATOM      9  N   UNL     1      -4.750  -2.582   0.262  0.00  0.00    -0.273 N 
ATOM     10  H   UNL     1      -5.652  -1.965   0.387  0.00  0.00    +0.173 HD
ATOM     11  C   UNL     1      -3.870  -2.671   1.275  0.00  0.00    +0.331 A 
ATOM     12  O   UNL     1      -4.088  -2.070   2.309  0.00  0.00    -0.246 OA
BRANCH   5  13
ATOM     13  N   UNL     1      -1.342  -4.853  -0.111  0.00  0.00    -0.343 N 
ATOM     14  H   UNL     1      -1.133  -5.398  -1.043  0.00  0.00    +0.144 HD
ATOM     15  H   UNL     1      -0.636  -4.912   0.730  0.00  0.00    +0.144 HD
ENDBRANCH   5  13
BRANCH   4  16
ATOM     16  C   UNL     1      -1.817  -3.490   2.289  0.00  0.00    +0.128 C 
BRANCH  16  17
ATOM     17  C   UNL     1      -2.201  -4.660   3.196  0.00  0.00    +0.021 C 
BRANCH  17  19
ATOM     18  C   UNL     1      -1.607  -5.910   5.276  0.00  0.00    +0.004 C 
ATOM     19  C   UNL     1      -1.222  -4.739   4.369  0.00  0.00    -0.002 C 
ENDBRANCH  17  19
ENDBRANCH  16  17
ENDBRANCH   4  16
ENDBRANCH   1   6
BRANCH   1  20
ATOM     20  C   UNL     1      -3.019  -6.179  -2.240  0.00  0.00    +0.110 C 
ATOM     21  C   UNL     1      -4.378  -6.800  -2.572  0.00  0.00    +0.025 C 
ENDBRANCH   1  20
BRANCH   2  22
ATOM     22  C   UNL     1      -2.843  -4.785  -4.705  0.00  0.00    +0.019 C 
BRANCH  22  23
ATOM     23  N   UNL     1      -2.724  -3.825  -5.811  0.00  0.00    +0.387 N 
ATOM     24  C   UNL     1      -3.976  -3.078  -5.996  0.00  0.00    -0.063 C 
ATOM     25  C   UNL     1      -3.787  -2.036  -7.101  0.00  0.00    +0.066 C 
ATOM     26  N   UNL     1      -3.391  -2.711  -8.345  0.00  0.00    -0.298 NA
ATOM     27  C   UNL     1      -2.139  -3.458  -8.160  0.00  0.00    +0.066 C 
ATOM     28  C   UNL     1      -2.329  -4.500  -7.055  0.00  0.00    -0.063 C 
ATOM     29  H   UNL     1      -1.935  -3.105  -5.549  0.00  0.00    -0.081 HD
BRANCH  26  30
ATOM     30  C   UNL     1      -3.273  -1.751  -9.450  0.00  0.00    +0.198 C 
BRANCH  30  31
ATOM     31  C   UNL     1      -3.374  -2.494 -10.784  0.00  0.00    +0.402 C 
ATOM     32  F   UNL     1      -4.545  -3.260 -10.804  0.00  0.00    -0.169 F 
ATOM     33  F   UNL     1      -3.404  -1.568 -11.832  0.00  0.00    -0.169 F 
ATOM     34  F   UNL     1      -2.265  -3.334 -10.935  0.00  0.00    -0.169 F 
ENDBRANCH  30  31
ENDBRANCH  26  30
ENDBRANCH  22  23
ENDBRANCH   2  22
TORSDOF 10
