REMARK  Name = ZINC12704950
REMARK  12 active torsions:
REMARK  status: ('A' for Active; 'I' for Inactive)
REMARK    1  A    between atoms: C_1  and  C_2
REMARK    2  A    between atoms: C_2  and  N_63
REMARK    3  A    between atoms: C_3  and  C_4
REMARK    4  A    between atoms: C_3  and  N_63
REMARK    5  A    between atoms: C_5  and  C_6
REMARK    6  A    between atoms: C_5  and  N_63
REMARK    7  A    between atoms: C_6  and  N_7
REMARK    8  A    between atoms: N_7  and  C_8
REMARK    9  A    between atoms: C_8  and  C_9
REMARK   10  A    between atoms: C_12  and  C_22
REMARK   11  A    between atoms: C_14  and  C_21
REMARK   12  A    between atoms: N_25  and  C_26
REMARK                            x       y       z     vdW  Elec       q    Type
REMARK                         _______ _______ _______ _____ _____    ______ ____
ROOT
ATOM      1  N   UNL     1       4.984   4.592  -1.471  0.00  0.00    -0.283 N 
ATOM      2  C   UNL     1       5.771   3.761  -2.183  0.00  0.00    +0.307 C 
ATOM      3  O   UNL     1       6.006   2.642  -1.768  0.00  0.00    -0.252 OA
ATOM      4  N   UNL     1       6.296   4.169  -3.355  0.00  0.00    -0.269 N 
ATOM      5  H   UNL     1       6.164   5.083  -3.654  0.00  0.00    +0.156 HD
ENDROOT
BRANCH   4   6
ATOM      6  C   UNL     1       7.033   3.276  -4.141  0.00  0.00    +0.035 A 
ATOM      7  C   UNL     1       7.848   2.328  -3.538  0.00  0.00    +0.025 A 
ATOM      8  C   UNL     1       8.570   1.443  -4.315  0.00  0.00    +0.022 A 
ATOM      9  C   UNL     1       8.490   1.509  -5.695  0.00  0.00    +0.041 A 
ATOM     10  C   UNL     1       7.682   2.457  -6.299  0.00  0.00    +0.022 A 
ATOM     11  C   UNL     1       6.954   3.339  -5.526  0.00  0.00    +0.025 A 
ATOM     12 CL   UNL     1       9.403   0.400  -6.670  0.00  0.00    -0.084 Cl
ENDBRANCH   4   6
BRANCH   1  13
ATOM     13  C   UNL     1       4.701   5.940  -1.971  0.00  0.00    +0.091 C 
BRANCH  13  14
ATOM     14  C   UNL     1       5.762   6.911  -1.450  0.00  0.00    -0.060 C 
BRANCH  14  15
ATOM     15  N   UNL     1       5.545   8.232  -2.076  0.00  0.00    +0.380 N 
ATOM     16  H   UNL     1       5.325   8.097  -3.070  0.00  0.00    -0.082 HD
BRANCH  15  18
ATOM     17  C   UNL     1       4.065  10.174  -2.229  0.00  0.00    -0.017 C 
ATOM     18  C   UNL     1       4.411   8.920  -1.424  0.00  0.00    -0.082 C 
ENDBRANCH  15  18
BRANCH  15  19
ATOM     19  C   UNL     1       6.768   9.053  -1.961  0.00  0.00    -0.082 C 
ATOM     20  C   UNL     1       7.779   8.575  -3.005  0.00  0.00    -0.017 C 
ENDBRANCH  15  19
ENDBRANCH  14  15
ENDBRANCH  13  14
ENDBRANCH   1  13
BRANCH   1  21
ATOM     21  C   UNL     1       4.413   4.148  -0.197  0.00  0.00    +0.149 C 
BRANCH  21  22
ATOM     22  C   UNL     1       3.075   3.502  -0.445  0.00  0.00    +0.035 A 
ATOM     23  C   UNL     1       2.990   2.155  -0.582  0.00  0.00    +0.020 A 
ATOM     24  C   UNL     1       1.675   1.559  -0.822  0.00  0.00    +0.002 A 
ATOM     25  C   UNL     1       1.524   0.176  -0.973  0.00  0.00    -0.041 A 
ATOM     26  C   UNL     1       0.284  -0.350  -1.196  0.00  0.00    +0.007 A 
ATOM     27  C   UNL     1      -0.830   0.476  -1.276  0.00  0.00    -0.048 A 
ATOM     28  C   UNL     1      -0.705   1.841  -1.130  0.00  0.00    +0.029 A 
ATOM     29  C   UNL     1       0.548   2.399  -0.902  0.00  0.00    +0.050 A 
ATOM     30  N   UNL     1       0.702   3.761  -0.753  0.00  0.00    -0.322 N 
ATOM     31  H   UNL     1      -0.075   4.338  -0.808  0.00  0.00    +0.169 HD
ATOM     32  C   UNL     1       1.914   4.300  -0.533  0.00  0.00    +0.254 A 
ATOM     33  O   UNL     1       2.013   5.508  -0.406  0.00  0.00    -0.268 OA
ATOM     34  C   UNL     1      -2.189  -0.127  -1.523  0.00  0.00    +0.044 C 
ATOM     35  C   UNL     1       2.726  -0.730  -0.887  0.00  0.00    +0.044 C 
ENDBRANCH  21  22
ENDBRANCH   1  21
TORSDOF 8
