REMARK  Name = ZINC13632326
REMARK  12 active torsions:
REMARK  status: ('A' for Active; 'I' for Inactive)
REMARK    1  A    between atoms: C_1  and  C_2
REMARK    2  A    between atoms: C_6  and  C_32
REMARK    3  A    between atoms: C_7  and  O_8
REMARK    4  A    between atoms: O_8  and  C_9
REMARK    5  A    between atoms: C_9  and  C_10
REMARK    6  A    between atoms: N_12  and  C_13
REMARK    7  A    between atoms: C_16  and  N_19
REMARK    8  A    between atoms: C_20  and  C_22
REMARK    9  A    between atoms: C_25  and  C_28
REMARK   10  A    between atoms: C_28  and  C_29
REMARK   11  A    between atoms: C_28  and  C_30
REMARK   12  A    between atoms: C_28  and  C_31
REMARK                            x       y       z     vdW  Elec       q    Type
REMARK                         _______ _______ _______ _____ _____    ______ ____
ROOT
ATOM      1  C   UNL     1       3.558   2.852   0.268  0.00  0.00    +0.034 A 
ATOM      2  C   UNL     1       2.392   3.598   0.153  0.00  0.00    +0.025 A 
ATOM      3  C   UNL     1       1.178   2.960  -0.005  0.00  0.00    +0.025 A 
ATOM      4  C   UNL     1       1.122   1.573  -0.049  0.00  0.00    +0.034 A 
ATOM      5  C   UNL     1       2.288   0.827   0.072  0.00  0.00    +0.025 A 
ATOM      6  C   UNL     1       3.502   1.465   0.224  0.00  0.00    +0.025 A 
ENDROOT
BRANCH   1   9
ATOM      7  C   UNL     1       5.901   2.982  -0.133  0.00  0.00    +0.255 C 
ATOM      8  O   UNL     1       5.850   1.913  -0.705  0.00  0.00    -0.272 OA
ATOM      9  N   UNL     1       4.790   3.499   0.428  0.00  0.00    -0.283 N 
ATOM     10  H   UNL     1       4.843   4.320   0.943  0.00  0.00    +0.155 HD
BRANCH   7  11
ATOM     11  C   UNL     1       7.206   3.731  -0.050  0.00  0.00    +0.324 C 
BRANCH  11  12
ATOM     12  O   UNL     1       8.227   2.983  -0.714  0.00  0.00    -0.482 OA
BRANCH  12  19
ATOM     13  C   UNL     1       8.888   4.666  -2.885  0.00  0.00    +0.047 C 
ATOM     14  C   UNL     1       9.856   4.357  -1.772  0.00  0.00    -0.007 A 
ATOM     15  C   UNL     1      11.122   4.909  -1.784  0.00  0.00    +0.022 A 
ATOM     16  C   UNL     1      12.013   4.621  -0.766  0.00  0.00    +0.019 A 
ATOM     17  C   UNL     1      11.636   3.785   0.270  0.00  0.00    +0.022 A 
ATOM     18  C   UNL     1      10.369   3.236   0.289  0.00  0.00    -0.007 A 
ATOM     19  C   UNL     1       9.474   3.523  -0.731  0.00  0.00    +0.127 A 
ATOM     20  C   UNL     1       9.959   2.325   1.418  0.00  0.00    +0.047 C 
ATOM     21 BR   UNL     1      13.749   5.371  -0.789  0.00  0.00    -0.050 Br
ENDBRANCH  12  19
ENDBRANCH  11  12
ENDBRANCH   7  11
ENDBRANCH   1   9
BRANCH   4  22
ATOM     22  N   UNL     1      -0.109   0.926  -0.209  0.00  0.00    -0.282 N 
ATOM     23  C   UNL     1      -1.065   1.479  -0.981  0.00  0.00    +0.248 C 
ATOM     24  O   UNL     1      -0.892   2.579  -1.470  0.00  0.00    -0.270 OA
ATOM     25  H   UNL     1      -0.275   0.082   0.239  0.00  0.00    +0.155 HD
BRANCH  23  26
ATOM     26  C   UNL     1      -2.326   0.749  -1.233  0.00  0.00    +0.037 A 
ATOM     27  C   UNL     1      -2.526  -0.516  -0.678  0.00  0.00    +0.013 A 
ATOM     28  C   UNL     1      -3.707  -1.189  -0.912  0.00  0.00    +0.005 A 
ATOM     29  C   UNL     1      -4.687  -0.619  -1.705  0.00  0.00    -0.042 A 
ATOM     30  C   UNL     1      -4.492   0.633  -2.263  0.00  0.00    +0.005 A 
ATOM     31  C   UNL     1      -3.318   1.319  -2.032  0.00  0.00    +0.013 A 
BRANCH  29  32
ATOM     32  C   UNL     1      -5.972  -1.363  -1.962  0.00  0.00    -0.013 C 
ATOM     33  C   UNL     1      -6.134  -1.597  -3.466  0.00  0.00    +0.015 C 
ATOM     34  C   UNL     1      -5.935  -2.710  -1.238  0.00  0.00    +0.015 C 
ATOM     35  C   UNL     1      -7.152  -0.537  -1.445  0.00  0.00    +0.015 C 
ENDBRANCH  29  32
ENDBRANCH  23  26
ENDBRANCH   4  22
TORSDOF 7
