REMARK  Name = ZINC58004912
REMARK  7 active torsions:
REMARK  status: ('A' for Active; 'I' for Inactive)
REMARK    1  A    between atoms: C_1  and  C_2
REMARK    2  A    between atoms: C_2  and  C_3
REMARK    3  A    between atoms: C_3  and  C_19
REMARK    4  A    between atoms: N_6  and  C_15
REMARK    5  A    between atoms: C_8  and  N_14
REMARK    6  A    between atoms: C_15  and  C_16
REMARK    7  A    between atoms: C_19  and  C_20
REMARK                            x       y       z     vdW  Elec       q    Type
REMARK                         _______ _______ _______ _____ _____    ______ ____
ROOT
ATOM      1  C   UNL     1      -0.581   0.267  -0.207  0.00  0.00    +0.186 C 
ATOM      2  C   UNL     1      -1.242   0.786   1.044  0.00  0.00    +0.264 C 
ATOM      3  O   UNL     1      -0.951   0.319   2.126  0.00  0.00    -0.271 OA
ATOM      4  N   UNL     1      -2.159   1.772   0.956  0.00  0.00    -0.255 N 
ATOM      5  C   UNL     1      -2.573   2.210  -0.313  0.00  0.00    +0.100 A 
ATOM      6  C   UNL     1      -3.335   3.367  -0.448  0.00  0.00    +0.050 A 
ATOM      7  C   UNL     1      -3.724   3.791  -1.712  0.00  0.00    +0.025 A 
ATOM      8  C   UNL     1      -3.354   3.067  -2.830  0.00  0.00    +0.005 A 
ATOM      9  C   UNL     1      -2.601   1.915  -2.698  0.00  0.00    +0.048 A 
ATOM     10  C   UNL     1      -2.214   1.480  -1.440  0.00  0.00    +0.145 A 
ATOM     11  O   UNL     1      -1.500   0.330  -1.300  0.00  0.00    -0.475 OA
ENDROOT
BRANCH   6  12
ATOM     12  N   UNL     1      -3.708   4.098   0.684  0.00  0.00    -0.356 N 
ATOM     13  H   UNL     1      -3.049   4.310   1.364  0.00  0.00    +0.142 HD
ATOM     14  H   UNL     1      -4.626   4.395   0.790  0.00  0.00    +0.142 HD
ENDBRANCH   6  12
BRANCH   1  16
ATOM     15  C   UNL     1       0.235   2.591  -0.623  0.00  0.00    +0.008 C 
ATOM     16  C   UNL     1       0.648   1.121  -0.526  0.00  0.00    +0.054 C 
ENDBRANCH   1  16
BRANCH   1  17
ATOM     17  C   UNL     1      -0.148  -1.185   0.011  0.00  0.00    +0.054 C 
ATOM     18  C   UNL     1      -1.377  -2.040   0.329  0.00  0.00    +0.008 C 
ENDBRANCH   1  17
BRANCH   4  19
ATOM     19  C   UNL     1      -2.716   2.379   2.168  0.00  0.00    +0.209 C 
BRANCH  19  20
ATOM     20  C   UNL     1      -1.792   3.464   2.656  0.00  0.00    +0.228 C 
ATOM     21  O   UNL     1      -0.769   3.708   2.051  0.00  0.00    -0.274 OA
ATOM     22  N   UNL     1      -2.101   4.165   3.765  0.00  0.00    -0.328 N 
ATOM     23  H   UNL     1      -2.919   3.970   4.248  0.00  0.00    +0.145 HD
ATOM     24  H   UNL     1      -1.507   4.864   4.079  0.00  0.00    +0.145 HD
ENDBRANCH  19  20
ENDBRANCH   4  19
TORSDOF 5
