REMARK  Name = ZINC02693098
REMARK  11 active torsions:
REMARK  status: ('A' for Active; 'I' for Inactive)
REMARK    1  A    between atoms: C_1  and  C_2
REMARK    2  A    between atoms: C_2  and  C_3
REMARK    3  A    between atoms: C_2  and  C_4
REMARK    4  A    between atoms: C_7  and  S_10
REMARK    5  A    between atoms: S_10  and  C_13
REMARK    6  A    between atoms: C_16  and  S_20
REMARK    7  A    between atoms: S_20  and  C_21
REMARK    8  A    between atoms: C_21  and  C_22
REMARK    9  A    between atoms: N_24  and  C_25
REMARK   10  A    between atoms: C_29  and  S_31
REMARK   11  A    between atoms: S_31  and  C_32
REMARK                            x       y       z     vdW  Elec       q    Type
REMARK                         _______ _______ _______ _____ _____    ______ ____
ROOT
ATOM      1  C   UNL     1      -6.683  -0.914  -0.770  0.00  0.00    +0.177 A 
ATOM      2  C   UNL     1      -7.307  -1.227  -1.964  0.00  0.00    +0.146 A 
ATOM      3  N   UNL     1      -8.046  -0.310  -2.568  0.00  0.00    -0.228 NA
ATOM      4  C   UNL     1      -8.193   0.899  -2.044  0.00  0.00    +0.192 A 
ATOM      5  N   UNL     1      -7.610   1.237  -0.903  0.00  0.00    -0.182 NA
ATOM      6  C   UNL     1      -6.860   0.363  -0.241  0.00  0.00    +0.299 A 
ATOM      7  O   UNL     1      -6.271   0.711   0.929  0.00  0.00    -0.264 OA
ENDROOT
BRANCH   1   8
ATOM      8  S   UNL     1      -5.690  -2.105   0.067  0.00  0.00    +0.032 S 
ATOM      9  O   UNL     1      -5.694  -3.276  -0.740  0.00  0.00    -0.164 OA
ATOM     10  O   UNL     1      -6.120  -2.112   1.421  0.00  0.00    -0.164 OA
BRANCH   8  14
ATOM     11  C   UNL     1      -1.440  -0.548   0.067  0.00  0.00    -0.045 A 
ATOM     12  C   UNL     1      -2.294  -0.226   1.105  0.00  0.00    +0.006 A 
ATOM     13  C   UNL     1      -3.592  -0.701   1.105  0.00  0.00    +0.027 A 
ATOM     14  C   UNL     1      -4.036  -1.498   0.066  0.00  0.00    +0.094 A 
ATOM     15  C   UNL     1      -3.182  -1.820  -0.972  0.00  0.00    +0.027 A 
ATOM     16  C   UNL     1      -1.885  -1.341  -0.975  0.00  0.00    +0.006 A 
BRANCH  11  18
ATOM     17  C   UNL     1      -0.042   1.500   0.077  0.00  0.00    +0.012 C 
ATOM     18  C   UNL     1      -0.025  -0.029   0.067  0.00  0.00    +0.013 C 
ATOM     19  C   UNL     1       0.705  -0.539   1.311  0.00  0.00    +0.012 C 
ENDBRANCH  11  18
ENDBRANCH   8  14
ENDBRANCH   1   8
BRANCH   4  20
ATOM     20  S   UNL     1      -9.186   2.086  -2.886  0.00  0.00    -0.077 S 
BRANCH  20  21
ATOM     21  C   UNL     1      -9.102   3.558  -1.829  0.00  0.00    +0.173 C 
BRANCH  21  22
ATOM     22  C   UNL     1      -9.921   4.664  -2.442  0.00  0.00    +0.227 C 
ATOM     23  O   UNL     1     -10.504   4.478  -3.490  0.00  0.00    -0.275 OA
ATOM     24  N   UNL     1     -10.006   5.860  -1.827  0.00  0.00    -0.285 N 
ATOM     25  H   UNL     1      -9.596   5.989  -0.958  0.00  0.00    +0.155 HD
BRANCH  24  26
ATOM     26  C   UNL     1     -10.685   6.917  -2.443  0.00  0.00    +0.034 A 
ATOM     27  C   UNL     1     -10.228   8.220  -2.292  0.00  0.00    +0.023 A 
ATOM     28  C   UNL     1     -10.898   9.265  -2.899  0.00  0.00    +0.003 A 
ATOM     29  C   UNL     1     -12.025   9.018  -3.658  0.00  0.00    +0.015 A 
ATOM     30  C   UNL     1     -12.488   7.716  -3.814  0.00  0.00    +0.009 A 
ATOM     31  C   UNL     1     -11.813   6.664  -3.210  0.00  0.00    +0.038 A 
BRANCH  30  32
ATOM     32  S   UNL     1     -13.926   7.402  -4.783  0.00  0.00    -0.129 S 
ATOM     33  C   UNL     1     -14.438   9.045  -5.356  0.00  0.00    +0.090 C 
ENDBRANCH  30  32
ENDBRANCH  24  26
ENDBRANCH  21  22
ENDBRANCH  20  21
ENDBRANCH   4  20
TORSDOF 8
