REMARK  Name = ZINC08416478
REMARK  12 active torsions:
REMARK  status: ('A' for Active; 'I' for Inactive)
REMARK    1  A    between atoms: C_1  and  C_2
REMARK    2  A    between atoms: C_2  and  O_3
REMARK    3  A    between atoms: O_3  and  C_4
REMARK    4  A    between atoms: C_4  and  C_6
REMARK    5  A    between atoms: C_7  and  C_35
REMARK    6  A    between atoms: C_8  and  C_30
REMARK    7  A    between atoms: C_10  and  N_11
REMARK    8  A    between atoms: C_12  and  C_14
REMARK    9  A    between atoms: C_15  and  N_29
REMARK   10  A    between atoms: C_30  and  O_32
REMARK   11  A    between atoms: O_32  and  C_33
REMARK   12  A    between atoms: C_33  and  C_34
REMARK                            x       y       z     vdW  Elec       q    Type
REMARK                         _______ _______ _______ _____ _____    ______ ____
ROOT
ATOM      1  N   UNL     1       3.679   1.664  -0.024  0.00  0.00    -0.275 N 
ATOM      2  C   UNL     1       4.675   0.755  -0.039  0.00  0.00    +0.257 C 
ATOM      3  O   UNL     1       4.414  -0.434  -0.043  0.00  0.00    -0.269 OA
ATOM      4  H   UNL     1       3.887   2.611  -0.021  0.00  0.00    +0.156 HD
ENDROOT
BRANCH   2   5
ATOM      5  C   UNL     1       6.025   1.184  -0.050  0.00  0.00    +0.097 A 
ATOM      6  C   UNL     1       7.166   0.412  -0.059  0.00  0.00    +0.053 A 
ATOM      7  C   UNL     1       8.455   1.086  -0.074  0.00  0.00    +0.029 A 
ATOM      8  C   UNL     1       9.752   0.512  -0.090  0.00  0.00    +0.017 A 
ATOM      9  C   UNL     1      10.843   1.343  -0.101  0.00  0.00    -0.025 A 
ATOM     10  C   UNL     1      10.673   2.725  -0.091  0.00  0.00    +0.046 A 
ATOM     11  N   UNL     1       9.472   3.256  -0.074  0.00  0.00    -0.244 NA
ATOM     12  C   UNL     1       8.394   2.498  -0.067  0.00  0.00    +0.111 A 
ATOM     13  S   UNL     1       6.654   2.851  -0.045  0.00  0.00    -0.062 S 
ATOM     14  C   UNL     1      11.919   3.570  -0.093  0.00  0.00    +0.056 C 
ATOM     15  C   UNL     1      12.476   3.757  -1.468  0.00  0.00    +0.006 C 
ATOM     16  C   UNL     1      13.291   2.632  -2.071  0.00  0.00    +0.000 C 
ATOM     17  C   UNL     1      12.371   1.488  -2.535  0.00  0.00    +0.000 C 
ATOM     18  C   UNL     1      12.553   0.305  -1.545  0.00  0.00    +0.005 C 
ATOM     19  C   UNL     1      12.245   0.794  -0.131  0.00  0.00    +0.037 C 
BRANCH   6  20
ATOM     20  N   UNL     1       7.088  -0.973  -0.060  0.00  0.00    -0.356 N 
ATOM     21  H   UNL     1       6.222  -1.410  -0.053  0.00  0.00    +0.142 HD
ATOM     22  H   UNL     1       7.899  -1.505  -0.066  0.00  0.00    +0.142 HD
ENDBRANCH   6  20
ENDBRANCH   2   5
BRANCH   1  27
ATOM     23  C   UNL     1       1.202   2.026   0.002  0.00  0.00    +0.091 A 
ATOM     24  C   UNL     1      -0.017   1.365   0.009  0.00  0.00    -0.014 A 
ATOM     25  C   UNL     1       0.002  -0.004   0.002  0.00  0.00    +0.102 A 
ATOM     26  S   UNL     1       1.746  -0.373  -0.017  0.00  0.00    -0.066 S 
ATOM     27  C   UNL     1       2.365   1.246  -0.014  0.00  0.00    +0.087 A 
ATOM     28  C   UNL     1      -1.317   2.127   0.020  0.00  0.00    +0.046 C 
BRANCH  23  29
ATOM     29  C   UNL     1       1.271   3.491   0.008  0.00  0.00    +0.342 C 
ATOM     30  O   UNL     1       1.310   4.093   1.064  0.00  0.00    -0.245 OA
BRANCH  29  31
ATOM     31  O   UNL     1       1.292   4.170  -1.156  0.00  0.00    -0.461 OA
BRANCH  31  33
ATOM     32  C   UNL     1       1.375   6.210  -2.485  0.00  0.00    +0.048 C 
ATOM     33  C   UNL     1       1.361   5.618  -1.074  0.00  0.00    +0.229 C 
ENDBRANCH  31  33
ENDBRANCH  29  31
ENDBRANCH  23  29
BRANCH  25  34
ATOM     34  C   UNL     1      -1.127  -0.932   0.008  0.00  0.00    +0.346 C 
ATOM     35  O   UNL     1      -2.266  -0.505   0.021  0.00  0.00    -0.244 OA
BRANCH  34  36
ATOM     36  O   UNL     1      -0.907  -2.264  -0.001  0.00  0.00    -0.461 OA
BRANCH  36  37
ATOM     37  C   UNL     1      -2.057  -3.112   0.005  0.00  0.00    +0.229 C 
ATOM     38  C   UNL     1      -1.611  -4.575  -0.007  0.00  0.00    +0.048 C 
ENDBRANCH  36  37
ENDBRANCH  34  36
ENDBRANCH  25  34
ENDBRANCH   1  27
TORSDOF 9
