REMARK  Name = ZINC59789565
REMARK  11 active torsions:
REMARK  status: ('A' for Active; 'I' for Inactive)
REMARK    1  A    between atoms: C_2  and  C_3
REMARK    2  A    between atoms: C_3  and  N_4
REMARK    3  A    between atoms: C_5  and  C_25
REMARK    4  A    between atoms: C_8  and  S_9
REMARK    5  A    between atoms: S_9  and  C_10
REMARK    6  A    between atoms: C_10  and  C_11
REMARK    7  A    between atoms: C_11  and  C_12
REMARK    8  A    between atoms: N_14  and  C_15
REMARK    9  A    between atoms: C_18  and  S_21
REMARK   10  A    between atoms: S_21  and  N_24
REMARK   11  A    between atoms: C_29  and  N_31
REMARK                            x       y       z     vdW  Elec       q    Type
REMARK                         _______ _______ _______ _____ _____    ______ ____
ROOT
ATOM      1  S   UNL     1       0.681  -3.953  -0.670  0.00  0.00    -0.086 S 
ENDROOT
BRANCH   1   6
ATOM      2  N   UNL     1       1.509  -1.777   0.879  0.00  0.00    -0.298 N 
ATOM      3  C   UNL     1       1.706  -1.531   2.219  0.00  0.00    +0.165 A 
ATOM      4  N   UNL     1       1.422  -2.640   2.860  0.00  0.00    -0.128 NA
ATOM      5  N   UNL     1       1.065  -3.550   2.026  0.00  0.00    -0.122 NA
ATOM      6  C   UNL     1       1.095  -3.076   0.800  0.00  0.00    +0.192 A 
BRANCH   3   7
ATOM      7  C   UNL     1       2.155  -0.258   2.821  0.00  0.00    +0.021 A 
ATOM      8  C   UNL     1       2.007   0.940   2.120  0.00  0.00    +0.012 A 
ATOM      9  C   UNL     1       2.428   2.125   2.688  0.00  0.00    +0.003 A 
ATOM     10  C   UNL     1       2.995   2.127   3.950  0.00  0.00    +0.033 A 
ATOM     11  C   UNL     1       3.144   0.944   4.651  0.00  0.00    +0.127 A 
ATOM     12  C   UNL     1       2.723  -0.247   4.096  0.00  0.00    +0.044 A 
BRANCH  11  13
ATOM     13  N   UNL     1       3.752   0.956   6.000  0.00  0.00    +0.056 N 
ATOM     14  O   UNL     1       4.118   1.999   6.489  0.00  0.00    -0.126 OA
ATOM     15  O   UNL     1       3.883  -0.078   6.613  0.00  0.00    -0.126 OA
ENDBRANCH  11  13
ENDBRANCH   3   7
BRANCH   2  16
ATOM     16  C   UNL     1       1.698  -0.839  -0.230  0.00  0.00    +0.152 C 
BRANCH  16  18
ATOM     17  C   UNL     1       0.262   1.091  -0.651  0.00  0.00    +0.005 C 
ATOM     18  C   UNL     1       0.374  -0.213  -0.589  0.00  0.00    -0.013 C 
ENDBRANCH  16  18
ENDBRANCH   2  16
ENDBRANCH   1   6
BRANCH   1  19
ATOM     19  C   UNL     1       0.220  -5.606  -0.081  0.00  0.00    +0.086 C 
BRANCH  19  20
ATOM     20  C   UNL     1      -0.167  -6.483  -1.273  0.00  0.00    +0.107 C 
BRANCH  20  21
ATOM     21  C   UNL     1      -0.550  -7.856  -0.783  0.00  0.00    +0.218 C 
ATOM     22  O   UNL     1      -0.517  -8.107   0.403  0.00  0.00    -0.275 OA
ATOM     23  N   UNL     1      -0.930  -8.803  -1.663  0.00  0.00    -0.285 N 
ATOM     24  H   UNL     1      -0.896  -8.623  -2.615  0.00  0.00    +0.155 HD
BRANCH  23  25
ATOM     25  C   UNL     1      -1.372 -10.049  -1.202  0.00  0.00    +0.033 A 
ATOM     26  C   UNL     1      -1.110 -11.196  -1.939  0.00  0.00    +0.025 A 
ATOM     27  C   UNL     1      -1.548 -12.424  -1.481  0.00  0.00    +0.030 A 
ATOM     28  C   UNL     1      -2.247 -12.510  -0.291  0.00  0.00    +0.105 A 
ATOM     29  C   UNL     1      -2.511 -11.369   0.444  0.00  0.00    +0.030 A 
ATOM     30  C   UNL     1      -2.070 -10.140  -0.005  0.00  0.00    +0.025 A 
BRANCH  28  31
ATOM     31  S   UNL     1      -2.804 -14.078   0.288  0.00  0.00    +0.056 S 
ATOM     32  O   UNL     1      -3.906 -13.825   1.149  0.00  0.00    -0.153 OA
ATOM     33  O   UNL     1      -2.906 -14.920  -0.852  0.00  0.00    -0.153 OA
BRANCH  31  34
ATOM     34  N   UNL     1      -1.600 -14.707   1.235  0.00  0.00    -0.204 NA
ATOM     35  H   UNL     1      -1.820 -15.298   1.971  0.00  0.00    +0.144 HD
ATOM     36  H   UNL     1      -0.673 -14.483   1.052  0.00  0.00    +0.144 HD
ENDBRANCH  31  34
ENDBRANCH  28  31
ENDBRANCH  23  25
ENDBRANCH  20  21
ENDBRANCH  19  20
ENDBRANCH   1  19
TORSDOF 11
