REMARK  Name = ZINC15188466
REMARK  7 active torsions:
REMARK  status: ('A' for Active; 'I' for Inactive)
REMARK    1  A    between atoms: C_4  and  C_7
REMARK    2  A    between atoms: C_10  and  C_13
REMARK    3  A    between atoms: N_17  and  C_18
REMARK    4  A    between atoms: N_25  and  C_26
REMARK    5  A    between atoms: C_26  and  C_27
REMARK    6  A    between atoms: C_30  and  S_33
REMARK    7  A    between atoms: S_33  and  N_36
REMARK                            x       y       z     vdW  Elec       q    Type
REMARK                         _______ _______ _______ _____ _____    ______ ____
ROOT
ATOM      1  C   UNL     1       2.787   7.091  -0.283  0.00  0.00    +0.058 A 
ATOM      2  C   UNL     1       1.464   7.358  -0.309  0.00  0.00    +0.075 A 
ATOM      3  S   UNL     1       0.751   5.724  -0.212  0.00  0.00    -0.057 S 
ATOM      4  C   UNL     1       2.273   4.793  -0.132  0.00  0.00    +0.174 A 
ATOM      5  N   UNL     1       2.448   3.489  -0.043  0.00  0.00    -0.224 NA
ATOM      6  N   UNL     1       3.214   5.794  -0.193  0.00  0.00    -0.315 N 
ENDROOT
BRANCH   5   7
ATOM      7  C   UNL     1       1.371   2.647  -0.110  0.00  0.00    +0.067 A 
ATOM      8  C   UNL     1       0.927   2.172  -1.346  0.00  0.00    +0.030 A 
ATOM      9  C   UNL     1      -0.160   1.325  -1.406  0.00  0.00    +0.040 A 
ATOM     10  C   UNL     1      -0.814   0.949  -0.244  0.00  0.00    +0.124 A 
ATOM     11  C   UNL     1      -0.375   1.413   0.986  0.00  0.00    +0.040 A 
ATOM     12  C   UNL     1       0.710   2.261   1.059  0.00  0.00    +0.030 A 
ATOM     13  F   UNL     1      -1.881   0.123  -0.310  0.00  0.00    -0.205 F 
ENDBRANCH   5   7
BRANCH   1  17
ATOM     14  C   UNL     1       5.611  10.262  -0.476  0.00  0.00    -0.018 A 
ATOM     15  C   UNL     1       4.616  10.155  -1.448  0.00  0.00    +0.009 A 
ATOM     16  C   UNL     1       3.701   9.128  -1.386  0.00  0.00    +0.010 A 
ATOM     17  C   UNL     1       3.769   8.194  -0.350  0.00  0.00    -0.001 A 
ATOM     18  C   UNL     1       4.762   8.306   0.626  0.00  0.00    +0.010 A 
ATOM     19  C   UNL     1       5.680   9.329   0.559  0.00  0.00    +0.009 A 
BRANCH  14  23
ATOM     20  C   UNL     1       8.436  13.433  -0.670  0.00  0.00    +0.000 A 
ATOM     21  C   UNL     1       8.507  12.509   0.357  0.00  0.00    +0.001 A 
ATOM     22  C   UNL     1       7.592  11.478   0.426  0.00  0.00    +0.008 A 
ATOM     23  C   UNL     1       6.596  11.368  -0.543  0.00  0.00    -0.018 A 
ATOM     24  C   UNL     1       6.533  12.299  -1.579  0.00  0.00    +0.008 A 
ATOM     25  C   UNL     1       7.450  13.329  -1.634  0.00  0.00    +0.001 A 
ENDBRANCH  14  23
ENDBRANCH   1  17
BRANCH   6  26
ATOM     26  C   UNL     1       4.644   5.478  -0.163  0.00  0.00    +0.159 C 
BRANCH  26  27
ATOM     27  C   UNL     1       5.146   5.288  -1.571  0.00  0.00    -0.028 A 
ATOM     28  C   UNL     1       5.016   4.059  -2.191  0.00  0.00    +0.007 A 
ATOM     29  C   UNL     1       5.472   3.886  -3.485  0.00  0.00    +0.029 A 
ATOM     30  C   UNL     1       6.068   4.939  -4.154  0.00  0.00    +0.105 A 
ATOM     31  C   UNL     1       6.203   6.166  -3.532  0.00  0.00    +0.029 A 
ATOM     32  C   UNL     1       5.742   6.340  -2.240  0.00  0.00    +0.007 A 
BRANCH  30  33
ATOM     33  S   UNL     1       6.655   4.716  -5.801  0.00  0.00    +0.056 S 
ATOM     34  O   UNL     1       5.919   3.632  -6.351  0.00  0.00    -0.153 OA
ATOM     35  O   UNL     1       6.678   6.004  -6.401  0.00  0.00    -0.153 OA
BRANCH  33  36
ATOM     36  N   UNL     1       8.229   4.214  -5.695  0.00  0.00    -0.204 NA
ATOM     37  H   UNL     1       8.602   3.639  -6.382  0.00  0.00    +0.144 HD
ATOM     38  H   UNL     1       8.779   4.495  -4.947  0.00  0.00    +0.144 HD
ENDBRANCH  33  36
ENDBRANCH  30  33
ENDBRANCH  26  27
ENDBRANCH   6  26
TORSDOF 7
