REMARK  Name = ZINC21659080
REMARK  7 active torsions:
REMARK  status: ('A' for Active; 'I' for Inactive)
REMARK    1  A    between atoms: C_1  and  C_2
REMARK    2  A    between atoms: C_7  and  C_8
REMARK    3  A    between atoms: C_20  and  C_22
REMARK    4  A    between atoms: C_25  and  O_29
REMARK    5  A    between atoms: C_26  and  O_28
REMARK    6  A    between atoms: N_30  and  C_37
REMARK    7  A    between atoms: N_33  and  C_36
REMARK                            x       y       z     vdW  Elec       q    Type
REMARK                         _______ _______ _______ _____ _____    ______ ____
ROOT
ATOM      1  C   UNL     1       0.003  -0.006  -0.167  0.00  0.00    +0.069 A 
ATOM      2  C   UNL     1       1.317  -0.401  -0.109  0.00  0.00    +0.089 A 
ATOM      3  C   UNL     1       2.132   0.839  -0.117  0.00  0.00    +0.082 A 
ATOM      4  C   UNL     1       1.280   1.852  -0.173  0.00  0.00    +0.073 A 
ATOM      5  N   UNL     1      -0.015   1.353  -0.216  0.00  0.00    -0.306 N 
ATOM      6  C   UNL     1      -1.120   2.213  -0.284  0.00  0.00    +0.068 A 
ATOM      7  C   UNL     1      -2.407   1.756  -0.072  0.00  0.00    +0.028 A 
ATOM      8  C   UNL     1      -3.468   2.642  -0.128  0.00  0.00    +0.002 A 
ATOM      9  C   UNL     1      -3.242   3.980  -0.394  0.00  0.00    +0.002 A 
ATOM     10  C   UNL     1      -1.959   4.443  -0.616  0.00  0.00    +0.025 A 
ATOM     11  C   UNL     1      -0.889   3.562  -0.571  0.00  0.00    +0.052 A 
ATOM     12  N   UNL     1       0.414   4.012  -0.812  0.00  0.00    -0.330 N 
ATOM     13  C   UNL     1       1.557   3.340  -0.175  0.00  0.00    +0.150 C 
ATOM     14  N   UNL     1       3.530   0.730  -0.066  0.00  0.00    -0.294 N 
ATOM     15  C   UNL     1       4.051  -0.516  -0.009  0.00  0.00    +0.332 A 
ATOM     16  O   UNL     1       5.263  -0.610   0.036  0.00  0.00    -0.246 OA
ATOM     17  N   UNL     1       3.348  -1.652   0.002  0.00  0.00    -0.263 N 
ATOM     18  C   UNL     1       1.992  -1.702  -0.045  0.00  0.00    +0.266 A 
ATOM     19  O   UNL     1       1.379  -2.752  -0.034  0.00  0.00    -0.267 OA
ATOM     20  C   UNL     1       4.083  -2.918   0.068  0.00  0.00    +0.157 C 
ATOM     21  C   UNL     1       4.389   1.917  -0.073  0.00  0.00    +0.154 C 
ATOM     22  H   UNL     1       0.582   4.870  -1.480  0.00  0.00    +0.147 HD
ENDROOT
BRANCH   1  29
ATOM     23  C   UNL     1      -1.216  -0.787   2.339  0.00  0.00    +0.044 C 
ATOM     24  C   UNL     1      -1.773  -1.278   1.028  0.00  0.00    -0.041 A 
ATOM     25  C   UNL     1      -2.877  -2.105   1.012  0.00  0.00    +0.004 A 
ATOM     26  C   UNL     1      -3.387  -2.562  -0.191  0.00  0.00    +0.000 A 
ATOM     27  C   UNL     1      -2.796  -2.189  -1.386  0.00  0.00    +0.001 A 
ATOM     28  C   UNL     1      -1.695  -1.360  -1.386  0.00  0.00    +0.010 A 
ATOM     29  C   UNL     1      -1.175  -0.894  -0.175  0.00  0.00    +0.003 A 
ENDBRANCH   1  29
BRANCH  13  30
ATOM     30  C   UNL     1       1.713   3.832   1.241  0.00  0.00    -0.018 A 
ATOM     31  C   UNL     1       0.593   4.079   2.013  0.00  0.00    +0.009 A 
ATOM     32  C   UNL     1       0.731   4.529   3.313  0.00  0.00    +0.049 A 
ATOM     33  C   UNL     1       1.994   4.733   3.845  0.00  0.00    +0.158 A 
ATOM     34  C   UNL     1       3.121   4.485   3.068  0.00  0.00    +0.159 A 
ATOM     35  C   UNL     1       2.976   4.029   1.768  0.00  0.00    +0.055 A 
BRANCH  34  36
ATOM     36  O   UNL     1       4.363   4.684   3.585  0.00  0.00    -0.503 OA
ATOM     37  H   UNL     1       5.253   4.487   2.970  0.00  0.00    +0.292 HD
ENDBRANCH  34  36
BRANCH  33  38
ATOM     38  O   UNL     1       2.131   5.176   5.123  0.00  0.00    -0.503 OA
ATOM     39  H   UNL     1       3.135   5.338   5.544  0.00  0.00    +0.292 HD
ENDBRANCH  33  38
ENDBRANCH  13  30
TORSDOF 4
