REMARK  Name = ZINC20152721
REMARK  8 active torsions:
REMARK  status: ('A' for Active; 'I' for Inactive)
REMARK    1  A    between atoms: C_4  and  C_7
REMARK    2  A    between atoms: C_7  and  N_8
REMARK    3  A    between atoms: C_11  and  N_14
REMARK    4  A    between atoms: C_15  and  C_17
REMARK    5  A    between atoms: C_17  and  C_18
REMARK    6  A    between atoms: C_18  and  N_19
REMARK    7  A    between atoms: N_28  and  C_31
REMARK    8  A    between atoms: C_31  and  C_32
REMARK                            x       y       z     vdW  Elec       q    Type
REMARK                         _______ _______ _______ _____ _____    ______ ____
ROOT
ATOM      1  C   UNL     1       1.248  -2.092  -0.022  0.00  0.00    +0.139 C 
ENDROOT
BRANCH   1   2
ATOM      2  N   UNL     1       1.200  -0.628  -0.013  0.00  0.00    -0.260 N 
ATOM      3  C   UNL     1       0.002  -0.004   0.002  0.00  0.00    +0.264 A 
ATOM      4  O   UNL     1      -1.033  -0.642   0.008  0.00  0.00    -0.267 OA
ATOM      5  C   UNL     1      -0.018   1.470   0.010  0.00  0.00    +0.063 A 
ATOM      6  C   UNL     1      -1.212   2.186   0.031  0.00  0.00    +0.015 A 
ATOM      7  C   UNL     1      -1.177   3.565   0.032  0.00  0.00    +0.001 A 
ATOM      8  C   UNL     1       0.036   4.236   0.025  0.00  0.00    +0.002 A 
ATOM      9  C   UNL     1       1.227   3.538   0.009  0.00  0.00    +0.027 A 
ATOM     10  C   UNL     1       1.211   2.151   0.002  0.00  0.00    +0.059 A 
ATOM     11  N   UNL     1       2.385   1.412  -0.013  0.00  0.00    -0.289 N 
ATOM     12  C   UNL     1       2.348   0.068  -0.020  0.00  0.00    +0.333 A 
ATOM     13  O   UNL     1       3.399  -0.543  -0.033  0.00  0.00    -0.246 OA
BRANCH  11  14
ATOM     14  C   UNL     1       3.677   2.102  -0.021  0.00  0.00    +0.162 C 
BRANCH  14  15
ATOM     15  C   UNL     1       4.107   2.346  -1.445  0.00  0.00    -0.027 A 
ATOM     16  C   UNL     1       4.872   1.405  -2.107  0.00  0.00    +0.008 A 
ATOM     17  C   UNL     1       5.262   1.626  -3.414  0.00  0.00    +0.038 A 
ATOM     18  C   UNL     1       4.895   2.796  -4.057  0.00  0.00    +0.123 A 
ATOM     19  C   UNL     1       4.133   3.741  -3.391  0.00  0.00    +0.038 A 
ATOM     20  C   UNL     1       3.739   3.515  -2.086  0.00  0.00    +0.008 A 
ATOM     21  F   UNL     1       5.280   3.015  -5.334  0.00  0.00    -0.205 F 
ENDBRANCH  14  15
ENDBRANCH  11  14
ENDBRANCH   1   2
BRANCH   1  22
ATOM     22  C   UNL     1       1.251  -2.594  -1.467  0.00  0.00    +0.117 C 
BRANCH  22  24
ATOM     23  N   UNL     1       1.311  -4.766  -2.647  0.00  0.00    -0.313 N 
ATOM     24  C   UNL     1       1.300  -4.100  -1.476  0.00  0.00    +0.215 C 
ATOM     25  O   UNL     1       1.329  -4.712  -0.429  0.00  0.00    -0.276 OA
ATOM     26  H   UNL     1       1.284  -4.211  -3.597  0.00  0.00    +0.149 HD
BRANCH  23  30
ATOM     27  N   UNL     1       2.272  -8.675  -3.893  0.00  0.00    +0.382 N 
ATOM     28  C   UNL     1       0.861  -8.281  -3.992  0.00  0.00    -0.077 C 
ATOM     29  C   UNL     1       0.753  -6.755  -3.962  0.00  0.00    +0.003 C 
ATOM     30  C   UNL     1       1.358  -6.231  -2.656  0.00  0.00    +0.069 C 
ATOM     31  C   UNL     1       2.813  -6.696  -2.554  0.00  0.00    +0.003 C 
ATOM     32  C   UNL     1       2.862  -8.224  -2.626  0.00  0.00    -0.077 C 
ATOM     33  H   UNL     1       2.816  -8.181  -4.710  0.00  0.00    -0.081 HD
BRANCH  27  34
ATOM     34  C   UNL     1       2.426 -10.127  -4.057  0.00  0.00    -0.043 C 
BRANCH  34  38
ATOM     35  C   UNL     1       6.570 -11.085  -4.449  0.00  0.00    +0.000 A 
ATOM     36  C   UNL     1       5.983 -11.056  -3.198  0.00  0.00    +0.000 A 
ATOM     37  C   UNL     1       4.642 -10.745  -3.071  0.00  0.00    +0.002 A 
ATOM     38  C   UNL     1       3.888 -10.465  -4.196  0.00  0.00    -0.064 A 
ATOM     39  C   UNL     1       4.474 -10.499  -5.447  0.00  0.00    +0.002 A 
ATOM     40  C   UNL     1       5.816 -10.804  -5.574  0.00  0.00    +0.000 A 
ENDBRANCH  34  38
ENDBRANCH  27  34
ENDBRANCH  23  30
ENDBRANCH  22  24
ENDBRANCH   1  22
TORSDOF 8
