REMARK  Name = ZINC36597388
REMARK  19 active torsions:
REMARK  status: ('A' for Active; 'I' for Inactive)
REMARK    1  A    between atoms: C_1  and  C_2
REMARK    2  A    between atoms: C_5  and  C_7
REMARK    3  A    between atoms: C_7  and  N_8
REMARK    4  A    between atoms: N_8  and  C_9
REMARK    5  A    between atoms: C_9  and  C_11
REMARK    6  A    between atoms: C_9  and  C_20
REMARK    7  A    between atoms: C_14  and  N_17
REMARK    8  A    between atoms: N_17  and  C_18
REMARK    9  A    between atoms: N_17  and  C_19
REMARK   10  A    between atoms: N_22  and  C_23
REMARK   11  A    between atoms: C_23  and  C_24
REMARK   12  A    between atoms: C_23  and  C_25
REMARK   13  A    between atoms: C_23  and  C_26
REMARK   14  A    between atoms: C_26  and  C_27
REMARK   15  A    between atoms: C_27  and  C_28
REMARK   16  A    between atoms: C_27  and  C_29
REMARK   17  A    between atoms: C_27  and  C_30
REMARK   18  A    between atoms: C_31  and  C_33
REMARK   19  A    between atoms: C_36  and  O_39
REMARK                            x       y       z     vdW  Elec       q    Type
REMARK                         _______ _______ _______ _____ _____    ______ ____
ROOT
ATOM      1  C   UNL     1       2.683  -2.323  -3.744  0.00  0.00    +0.193 C 
ENDROOT
BRANCH   1   2
ATOM      2  C   UNL     1       2.826  -0.826  -3.651  0.00  0.00    -0.018 A 
ATOM      3  C   UNL     1       2.455  -0.168  -2.493  0.00  0.00    +0.008 A 
ATOM      4  C   UNL     1       2.584   1.205  -2.405  0.00  0.00    +0.023 A 
ATOM      5  C   UNL     1       3.087   1.924  -3.482  0.00  0.00    +0.029 A 
ATOM      6  C   UNL     1       3.459   1.260  -4.644  0.00  0.00    +0.023 A 
ATOM      7  C   UNL     1       3.332  -0.113  -4.723  0.00  0.00    +0.008 A 
BRANCH   5   8
ATOM      8  N   UNL     1       3.219   3.312  -3.396  0.00  0.00    -0.336 N 
ATOM      9  C   UNL     1       2.941   3.997  -2.132  0.00  0.00    +0.129 C 
ATOM     10  C   UNL     1       3.635   4.082  -4.571  0.00  0.00    +0.129 C 
ENDBRANCH   5   8
ENDBRANCH   1   2
BRANCH   1  11
ATOM     11  C   UNL     1       4.037  -2.967  -3.584  0.00  0.00    +0.239 C 
ATOM     12  O   UNL     1       4.171  -3.922  -2.849  0.00  0.00    -0.273 OA
ATOM     13  N   UNL     1       5.098  -2.482  -4.258  0.00  0.00    -0.308 N 
ATOM     14  H   UNL     1       5.005  -1.679  -4.795  0.00  0.00    +0.149 HD
BRANCH  13  15
ATOM     15  C   UNL     1       6.391  -3.166  -4.181  0.00  0.00    +0.030 C 
ATOM     16  C   UNL     1       6.865  -3.198  -2.726  0.00  0.00    +0.031 C 
ATOM     17  C   UNL     1       6.242  -4.598  -4.700  0.00  0.00    +0.031 C 
BRANCH  15  18
ATOM     18  C   UNL     1       7.416  -2.418  -5.035  0.00  0.00    +0.031 C 
BRANCH  18  19
ATOM     19  C   UNL     1       7.004  -2.492  -6.507  0.00  0.00    -0.036 C 
ATOM     20  C   UNL     1       5.498  -2.249  -6.628  0.00  0.00    +0.010 C 
ATOM     21  C   UNL     1       7.758  -1.423  -7.301  0.00  0.00    +0.010 C 
ATOM     22  C   UNL     1       7.344  -3.876  -7.063  0.00  0.00    +0.010 C 
ENDBRANCH  18  19
ENDBRANCH  15  18
ENDBRANCH  13  15
ENDBRANCH   1  11
BRANCH   1  23
ATOM     23  N   UNL     1       1.790  -2.795  -2.683  0.00  0.00    -0.275 N 
ATOM     24  C   UNL     1       0.594  -2.203  -2.497  0.00  0.00    +0.248 C 
ATOM     25  O   UNL     1      -0.114  -2.541  -1.568  0.00  0.00    -0.270 OA
BRANCH  24  26
ATOM     26  C   UNL     1       0.143  -1.143  -3.420  0.00  0.00    +0.037 A 
ATOM     27  C   UNL     1       0.838  -0.908  -4.609  0.00  0.00    +0.016 A 
ATOM     28  C   UNL     1       0.414   0.081  -5.468  0.00  0.00    +0.046 A 
ATOM     29  C   UNL     1      -0.704   0.846  -5.153  0.00  0.00    +0.117 A 
ATOM     30  C   UNL     1      -1.397   0.615  -3.971  0.00  0.00    +0.046 A 
ATOM     31  C   UNL     1      -0.983  -0.376  -3.110  0.00  0.00    +0.016 A 
BRANCH  29  32
ATOM     32  O   UNL     1      -1.118   1.821  -6.002  0.00  0.00    -0.507 OA
ATOM     33  H   UNL     1      -1.754   1.520  -6.665  0.00  0.00    +0.292 HD
ENDBRANCH  29  32
ENDBRANCH  24  26
BRANCH  23  34
ATOM     34  C   UNL     1       2.196  -3.911  -1.825  0.00  0.00    +0.183 C 
BRANCH  34  39
ATOM     35  C   UNL     1      -0.137  -7.973  -3.696  0.00  0.00    +0.086 C 
ATOM     36  C   UNL     1       0.945  -6.979  -3.361  0.00  0.00    +0.102 A 
ATOM     37  C   UNL     1       2.237  -7.069  -3.725  0.00  0.00    +0.045 A 
ATOM     38  C   UNL     1       2.891  -5.930  -3.201  0.00  0.00    +0.046 A 
ATOM     39  C   UNL     1       1.959  -5.212  -2.548  0.00  0.00    +0.122 A 
ATOM     40  O   UNL     1       0.782  -5.849  -2.653  0.00  0.00    -0.463 OA
ENDBRANCH  34  39
ENDBRANCH  23  34
ENDBRANCH   1  23
TORSDOF 11
