REMARK  Name = ZINC15103826
REMARK  16 active torsions:
REMARK  status: ('A' for Active; 'I' for Inactive)
REMARK    1  A    between atoms: C_1  and  C_2
REMARK    2  A    between atoms: C_2  and  C_3
REMARK    3  A    between atoms: C_3  and  C_4
REMARK    4  A    between atoms: C_4  and  N_5
REMARK    5  A    between atoms: N_5  and  C_6
REMARK    6  A    between atoms: C_7  and  N_19
REMARK    7  A    between atoms: N_8  and  C_15
REMARK    8  A    between atoms: C_15  and  C_16
REMARK    9  A    between atoms: C_16  and  C_17
REMARK   10  A    between atoms: C_16  and  C_18
REMARK   11  A    between atoms: C_20  and  C_22
REMARK   12  A    between atoms: C_22  and  N_78
REMARK   13  A    between atoms: C_23  and  N_78
REMARK   14  A    between atoms: C_24  and  C_25
REMARK   15  A    between atoms: C_24  and  N_78
REMARK   16  A    between atoms: C_30  and  N_31
REMARK                            x       y       z     vdW  Elec       q    Type
REMARK                         _______ _______ _______ _____ _____    ______ ____
ROOT
ATOM      1  N   UNL     1       0.765   1.864  -0.480  0.00  0.00    -0.266 N 
ATOM      2  C   UNL     1      -0.435   1.255  -0.587  0.00  0.00    +0.203 C 
ATOM      3  O   UNL     1      -0.493   0.067  -0.827  0.00  0.00    -0.277 OA
ENDROOT
BRANCH   1   4
ATOM      4  C   UNL     1       1.951   1.103  -0.550  0.00  0.00    +0.140 A 
ATOM      5  C   UNL     1       2.240   0.164   0.418  0.00  0.00    +0.127 A 
ATOM      6  N   UNL     1       3.404  -0.563   0.322  0.00  0.00    -0.280 N 
ATOM      7  C   UNL     1       4.250  -0.360  -0.704  0.00  0.00    +0.331 A 
ATOM      8  O   UNL     1       5.274  -1.013  -0.771  0.00  0.00    -0.246 OA
ATOM      9  N   UNL     1       3.985   0.551  -1.657  0.00  0.00    -0.273 N 
ATOM     10  H   UNL     1       4.633   0.686  -2.406  0.00  0.00    +0.173 HD
ATOM     11  C   UNL     1       2.856   1.285  -1.612  0.00  0.00    +0.277 A 
ATOM     12  O   UNL     1       2.623   2.106  -2.484  0.00  0.00    -0.266 OA
BRANCH   5  13
ATOM     13  N   UNL     1       1.376  -0.043   1.466  0.00  0.00    -0.343 N 
ATOM     14  H   UNL     1       0.581   0.506   1.555  0.00  0.00    +0.144 HD
ATOM     15  H   UNL     1       1.561  -0.739   2.117  0.00  0.00    +0.144 HD
ENDBRANCH   5  13
BRANCH   6  16
ATOM     16  C   UNL     1       3.724  -1.564   1.343  0.00  0.00    +0.131 C 
BRANCH  16  17
ATOM     17  C   UNL     1       3.144  -2.918   0.928  0.00  0.00    +0.003 C 
ATOM     18  C   UNL     1       3.583  -3.989   1.929  0.00  0.00    +0.009 C 
ATOM     19  C   UNL     1       1.617  -2.834   0.908  0.00  0.00    +0.009 C 
ENDBRANCH  16  17
ENDBRANCH   6  16
ENDBRANCH   1   4
BRANCH   1  20
ATOM     20  C   UNL     1       0.835   3.315  -0.291  0.00  0.00    +0.114 C 
BRANCH  20  21
ATOM     21  C   UNL     1       0.924   3.631   1.204  0.00  0.00    +0.019 C 
BRANCH  21  23
ATOM     22  C   UNL     1       1.086   5.462   2.896  0.00  0.00    +0.004 C 
ATOM     23  C   UNL     1       0.998   5.146   1.401  0.00  0.00    -0.002 C 
ENDBRANCH  21  23
ENDBRANCH  20  21
ENDBRANCH   1  20
BRANCH   2  24
ATOM     24  C   UNL     1      -1.702   2.052  -0.415  0.00  0.00    +0.019 C 
BRANCH  24  26
ATOM     25  C   UNL     1      -2.928   0.172   0.494  0.00  0.00    -0.095 C 
ATOM     26  N   UNL     1      -2.860   1.154  -0.608  0.00  0.00    +0.386 N 
ATOM     27  H   UNL     1      -2.747   0.651  -1.496  0.00  0.00    -0.081 HD
BRANCH  26  28
ATOM     28  C   UNL     1      -4.109   1.943  -0.659  0.00  0.00    -0.041 C 
BRANCH  28  29
ATOM     29  C   UNL     1      -5.231   1.047  -1.115  0.00  0.00    -0.043 A 
ATOM     30  C   UNL     1      -6.207   0.651  -0.221  0.00  0.00    +0.003 A 
ATOM     31  C   UNL     1      -7.239  -0.168  -0.639  0.00  0.00    +0.000 A 
ATOM     32  C   UNL     1      -7.294  -0.601  -1.952  0.00  0.00    +0.002 A 
ATOM     33  C   UNL     1      -6.320  -0.213  -2.850  0.00  0.00    +0.023 A 
ATOM     34  C   UNL     1      -5.283   0.614  -2.434  0.00  0.00    +0.031 A 
BRANCH  34  35
ATOM     35  N   UNL     1      -4.295   1.008  -3.339  0.00  0.00    -0.330 N 
ATOM     36  C   UNL     1      -4.853   1.885  -4.377  0.00  0.00    +0.105 C 
ATOM     37  C   UNL     1      -3.721   2.412  -5.263  0.00  0.00    +0.019 C 
ATOM     38  C   UNL     1      -2.990   1.230  -5.905  0.00  0.00    +0.003 C 
ATOM     39  C   UNL     1      -2.461   0.307  -4.803  0.00  0.00    +0.019 C 
ATOM     40  C   UNL     1      -3.629  -0.159  -3.931  0.00  0.00    +0.105 C 
ENDBRANCH  34  35
ENDBRANCH  28  29
ENDBRANCH  26  28
ENDBRANCH  24  26
ENDBRANCH   2  24
TORSDOF 12
