REMARK  Name = ZINC06501137
REMARK  14 active torsions:
REMARK  status: ('A' for Active; 'I' for Inactive)
REMARK    1  A    between atoms: C_1  and  C_2
REMARK    2  A    between atoms: C_2  and  C_3
REMARK    3  A    between atoms: C_3  and  C_4
REMARK    4  A    between atoms: C_4  and  C_6
REMARK    5  A    between atoms: C_4  and  N_14
REMARK    6  A    between atoms: N_8  and  C_9
REMARK    7  A    between atoms: C_9  and  C_10
REMARK    8  A    between atoms: C_10  and  C_11
REMARK    9  A    between atoms: C_11  and  C_12
REMARK   10  A    between atoms: C_11  and  C_13
REMARK   11  A    between atoms: N_14  and  C_15
REMARK   12  A    between atoms: C_21  and  C_23
REMARK   13  A    between atoms: C_24  and  N_31
REMARK   14  A    between atoms: C_25  and  C_28
REMARK                            x       y       z     vdW  Elec       q    Type
REMARK                         _______ _______ _______ _____ _____    ______ ____
ROOT
ATOM      1  N   UNL     1       4.644   0.517  -0.141  0.00  0.00    -0.282 N 
ATOM      2  C   UNL     1       3.798   1.566  -0.188  0.00  0.00    +0.257 C 
ATOM      3  O   UNL     1       2.624   1.414   0.095  0.00  0.00    -0.269 OA
ENDROOT
BRANCH   1   4
ATOM      4  C   UNL     1       4.121  -0.837   0.055  0.00  0.00    +0.077 C 
ATOM      5  C   UNL     1       3.190  -1.197  -1.105  0.00  0.00    +0.022 C 
ATOM      6  C   UNL     1       2.644  -2.611  -0.900  0.00  0.00    +0.002 C 
ATOM      7  C   UNL     1       1.866  -2.672   0.416  0.00  0.00    +0.000 C 
ATOM      8  C   UNL     1       2.796  -2.312   1.575  0.00  0.00    +0.002 C 
ATOM      9  C   UNL     1       3.342  -0.898   1.371  0.00  0.00    +0.022 C 
ENDBRANCH   1   4
BRANCH   2  10
ATOM     10  C   UNL     1       4.292   2.888  -0.579  0.00  0.00    +0.115 A 
ATOM     11  C   UNL     1       3.626   4.115  -0.587  0.00  0.00    +0.076 A 
ATOM     12  C   UNL     1       4.437   5.160  -1.030  0.00  0.00    +0.155 A 
ATOM     13  N   UNL     1       5.679   4.907  -1.378  0.00  0.00    -0.203 NA
ATOM     14  S   UNL     1       5.903   3.360  -1.173  0.00  0.00    +0.019 S 
BRANCH  12  15
ATOM     15  C   UNL     1       3.908   6.534  -1.101  0.00  0.00    +0.262 C 
ATOM     16  O   UNL     1       2.758   6.761  -0.777  0.00  0.00    -0.269 OA
ATOM     17  N   UNL     1       4.700   7.540  -1.525  0.00  0.00    -0.324 N 
ATOM     18  H   UNL     1       5.617   7.359  -1.783  0.00  0.00    +0.145 HD
ATOM     19  H   UNL     1       4.352   8.444  -1.571  0.00  0.00    +0.145 HD
ENDBRANCH  12  15
BRANCH  11  20
ATOM     20  N   UNL     1       2.304   4.277  -0.197  0.00  0.00    -0.355 N 
ATOM     21  H   UNL     1       1.894   5.156  -0.224  0.00  0.00    +0.142 HD
ATOM     22  H   UNL     1       1.789   3.511   0.102  0.00  0.00    +0.142 HD
ENDBRANCH  11  20
ENDBRANCH   2  10
BRANCH   1  23
ATOM     23  C   UNL     1       6.085   0.732  -0.285  0.00  0.00    +0.162 C 
BRANCH  23  24
ATOM     24  C   UNL     1       6.507   0.385  -1.690  0.00  0.00    +0.234 C 
ATOM     25  O   UNL     1       5.683  -0.004  -2.491  0.00  0.00    -0.274 OA
ATOM     26  N   UNL     1       7.798   0.506  -2.056  0.00  0.00    -0.314 N 
ATOM     27  H   UNL     1       8.457   0.817  -1.415  0.00  0.00    +0.149 HD
BRANCH  26  28
ATOM     28  C   UNL     1       8.207   0.169  -3.421  0.00  0.00    +0.104 C 
BRANCH  28  29
ATOM     29  C   UNL     1       9.713   0.393  -3.573  0.00  0.00    +0.022 C 
BRANCH  29  30
ATOM     30  C   UNL     1      10.141   0.040  -4.999  0.00  0.00    -0.016 C 
ATOM     31  C   UNL     1       9.486   1.012  -5.982  0.00  0.00    +0.007 C 
ATOM     32  C   UNL     1      11.663   0.144  -5.115  0.00  0.00    +0.007 C 
ENDBRANCH  29  30
ENDBRANCH  28  29
ENDBRANCH  26  28
ENDBRANCH  23  24
BRANCH  23  33
ATOM     33  C   UNL     1       6.836  -0.159   0.707  0.00  0.00    +0.032 C 
BRANCH  33  35
ATOM     34  C   UNL     1       7.253  -0.614   3.128  0.00  0.00    +0.004 C 
ATOM     35  C   UNL     1       6.503   0.276   2.135  0.00  0.00    -0.001 C 
ENDBRANCH  33  35
ENDBRANCH  23  33
ENDBRANCH   1  23
TORSDOF 11
