REMARK  Name = ZINC16585210
REMARK  19 active torsions:
REMARK  status: ('A' for Active; 'I' for Inactive)
REMARK    1  A    between atoms: C_1  and  C_2
REMARK    2  A    between atoms: C_2  and  C_3
REMARK    3  A    between atoms: C_2  and  C_4
REMARK    4  A    between atoms: C_4  and  N_5
REMARK    5  A    between atoms: C_6  and  N_34
REMARK    6  A    between atoms: C_7  and  N_14
REMARK    7  A    between atoms: N_14  and  C_15
REMARK    8  A    between atoms: C_15  and  C_16
REMARK    9  A    between atoms: C_16  and  C_17
REMARK   10  A    between atoms: C_16  and  C_18
REMARK   11  A    between atoms: C_19  and  C_21
REMARK   12  A    between atoms: C_21  and  N_75
REMARK   13  A    between atoms: C_22  and  N_75
REMARK   14  A    between atoms: C_23  and  C_24
REMARK   15  A    between atoms: C_23  and  N_75
REMARK   16  A    between atoms: C_27  and  C_30
REMARK   17  A    between atoms: C_30  and  C_31
REMARK   18  A    between atoms: C_30  and  C_32
REMARK   19  A    between atoms: C_30  and  C_33
REMARK                            x       y       z     vdW  Elec       q    Type
REMARK                         _______ _______ _______ _____ _____    ______ ____
ROOT
ATOM      1  N   UNL     1      -0.457   0.633  -5.129  0.00  0.00    -0.266 N 
ATOM      2  C   UNL     1      -0.932   1.488  -4.200  0.00  0.00    +0.203 C 
ATOM      3  O   UNL     1      -1.656   2.404  -4.531  0.00  0.00    -0.277 OA
ENDROOT
BRANCH   1   6
ATOM      4  N   UNL     1      -2.595   0.708  -8.117  0.00  0.00    -0.280 N 
ATOM      5  C   UNL     1      -2.213   0.596  -6.800  0.00  0.00    +0.127 A 
ATOM      6  C   UNL     1      -0.881   0.742  -6.471  0.00  0.00    +0.140 A 
ATOM      7  C   UNL     1       0.047   1.008  -7.495  0.00  0.00    +0.277 A 
ATOM      8  O   UNL     1       1.230   1.147  -7.231  0.00  0.00    -0.266 OA
ATOM      9  N   UNL     1      -0.379   1.103  -8.770  0.00  0.00    -0.273 N 
ATOM     10  H   UNL     1       0.281   1.284  -9.499  0.00  0.00    +0.173 HD
ATOM     11  C   UNL     1      -1.681   0.957  -9.072  0.00  0.00    +0.331 A 
ATOM     12  O   UNL     1      -2.039   1.052 -10.230  0.00  0.00    -0.246 OA
BRANCH   5  13
ATOM     13  N   UNL     1      -3.146   0.341  -5.825  0.00  0.00    -0.343 N 
ATOM     14  H   UNL     1      -2.862   0.184  -4.910  0.00  0.00    +0.144 HD
ATOM     15  H   UNL     1      -4.089   0.317  -6.050  0.00  0.00    +0.144 HD
ENDBRANCH   5  13
BRANCH   4  16
ATOM     16  C   UNL     1      -4.005   0.555  -8.481  0.00  0.00    +0.131 C 
BRANCH  16  18
ATOM     17  C   UNL     1      -4.098   2.835  -9.500  0.00  0.00    +0.009 C 
ATOM     18  C   UNL     1      -4.696   1.920  -8.429  0.00  0.00    +0.003 C 
ATOM     19  C   UNL     1      -6.194   1.743  -8.687  0.00  0.00    +0.009 C 
ENDBRANCH  16  18
ENDBRANCH   4  16
ENDBRANCH   1   6
BRANCH   1  20
ATOM     20  C   UNL     1       0.498  -0.409  -4.745  0.00  0.00    +0.117 C 
BRANCH  20  21
ATOM     21  C   UNL     1      -0.262  -1.636  -4.237  0.00  0.00    +0.001 C 
ATOM     22  C   UNL     1      -1.060  -2.254  -5.387  0.00  0.00    +0.009 C 
ATOM     23  C   UNL     1       0.733  -2.664  -3.696  0.00  0.00    +0.009 C 
ENDBRANCH  20  21
ENDBRANCH   1  20
BRANCH   2  24
ATOM     24  C   UNL     1      -0.564   1.305  -2.750  0.00  0.00    +0.019 C 
BRANCH  24  26
ATOM     25  C   UNL     1      -0.659   3.679  -2.281  0.00  0.00    -0.095 C 
ATOM     26  N   UNL     1      -1.231   2.357  -1.953  0.00  0.00    +0.386 N 
ATOM     27  H   UNL     1      -2.233   2.361  -2.178  0.00  0.00    -0.081 HD
BRANCH  26  28
ATOM     28  C   UNL     1      -1.065   2.079  -0.511  0.00  0.00    -0.043 C 
BRANCH  28  29
ATOM     29  C   UNL     1      -1.932   3.032   0.271  0.00  0.00    -0.064 A 
ATOM     30  C   UNL     1      -1.419   4.242   0.697  0.00  0.00    +0.002 A 
ATOM     31  C   UNL     1      -2.216   5.118   1.410  0.00  0.00    +0.004 A 
ATOM     32  C   UNL     1      -3.523   4.779   1.706  0.00  0.00    -0.042 A 
ATOM     33  C   UNL     1      -4.035   3.567   1.284  0.00  0.00    +0.004 A 
ATOM     34  C   UNL     1      -3.240   2.693   0.567  0.00  0.00    +0.002 A 
BRANCH  32  35
ATOM     35  C   UNL     1      -4.390   5.732   2.487  0.00  0.00    -0.013 C 
ATOM     36  C   UNL     1      -4.854   5.057   3.780  0.00  0.00    +0.015 C 
ATOM     37  C   UNL     1      -3.588   6.990   2.828  0.00  0.00    +0.015 C 
ATOM     38  C   UNL     1      -5.610   6.118   1.647  0.00  0.00    +0.015 C 
ENDBRANCH  32  35
ENDBRANCH  28  29
ENDBRANCH  26  28
ENDBRANCH  24  26
ENDBRANCH   2  24
TORSDOF 11
