REMARK  Name = ZINC54643810
REMARK  9 active torsions:
REMARK  status: ('A' for Active; 'I' for Inactive)
REMARK    1  A    between atoms: C_1  and  C_2
REMARK    2  A    between atoms: C_5  and  N_9
REMARK    3  A    between atoms: C_6  and  C_8
REMARK    4  A    between atoms: C_10  and  C_12
REMARK    5  A    between atoms: C_13  and  C_35
REMARK    6  A    between atoms: C_17  and  S_27
REMARK    7  A    between atoms: C_20  and  C_22
REMARK    8  A    between atoms: S_27  and  C_28
REMARK    9  A    between atoms: C_28  and  C_29
REMARK                            x       y       z     vdW  Elec       q    Type
REMARK                         _______ _______ _______ _____ _____    ______ ____
ROOT
ATOM      1  C   UNL     1       0.120  -6.243  -1.404  0.00  0.00    +0.063 C 
ATOM      2  C   UNL     1       0.168  -6.781  -2.631  0.00  0.00    +0.018 C 
ATOM      3  N   UNL     1       0.172  -8.139  -2.835  0.00  0.00    -0.287 N 
ATOM      4  C   UNL     1      -0.138  -8.949  -1.752  0.00  0.00    +0.220 A 
ATOM      5  N   UNL     1      -0.420 -10.223  -1.708  0.00  0.00    -0.187 NA
ATOM      6  C   UNL     1      -0.663 -10.585  -0.440  0.00  0.00    +0.211 A 
ATOM      7  N   UNL     1      -0.533  -9.533   0.339  0.00  0.00    -0.141 NA
ATOM      8  N   UNL     1      -0.191  -8.463  -0.487  0.00  0.00    -0.217 N 
ATOM      9  C   UNL     1       0.086  -7.069  -0.145  0.00  0.00    +0.213 C 
ATOM     10  C   UNL     1       0.218  -5.865  -3.826  0.00  0.00    +0.061 C 
ATOM     11  H   UNL     1       0.383  -8.518  -3.703  0.00  0.00    +0.155 HD
ENDROOT
BRANCH   9  12
ATOM     12  C   UNL     1      -0.999  -6.553   0.764  0.00  0.00    +0.134 A 
ATOM     13  C   UNL     1      -0.812  -5.983   1.968  0.00  0.00    +0.047 A 
ATOM     14  C   UNL     1      -2.092  -5.652   2.469  0.00  0.00    +0.041 A 
ATOM     15  C   UNL     1      -2.985  -6.039   1.541  0.00  0.00    +0.195 A 
ATOM     16  O   UNL     1      -2.317  -6.579   0.508  0.00  0.00    -0.465 OA
ENDBRANCH   9  12
BRANCH   1  18
ATOM     17  N   UNL     1      -1.017  -4.144  -1.558  0.00  0.00    -0.281 N 
ATOM     18  C   UNL     1       0.108  -4.833  -1.285  0.00  0.00    +0.248 C 
ATOM     19  O   UNL     1       1.115  -4.243  -0.938  0.00  0.00    -0.270 OA
ATOM     20  H   UNL     1      -1.844  -4.617  -1.738  0.00  0.00    +0.155 HD
BRANCH  17  25
ATOM     21  C   UNL     1      -0.916   1.527  -1.650  0.00  0.00    +0.044 C 
ATOM     22  C   UNL     1      -0.943   0.020  -1.625  0.00  0.00    -0.050 A 
ATOM     23  C   UNL     1      -0.083  -0.672  -0.792  0.00  0.00    +0.005 A 
ATOM     24  C   UNL     1      -0.105  -2.052  -0.767  0.00  0.00    +0.024 A 
ATOM     25  C   UNL     1      -0.993  -2.746  -1.580  0.00  0.00    +0.037 A 
ATOM     26  C   UNL     1      -1.855  -2.048  -2.415  0.00  0.00    -0.029 A 
ATOM     27  C   UNL     1      -1.832  -0.667  -2.431  0.00  0.00    +0.008 A 
ATOM     28  C   UNL     1      -2.819  -2.796  -3.299  0.00  0.00    +0.045 C 
ENDBRANCH  17  25
ENDBRANCH   1  18
BRANCH   6  29
ATOM     29  S   UNL     1      -1.087 -12.209   0.097  0.00  0.00    -0.080 S 
BRANCH  29  30
ATOM     30  C   UNL     1      -1.103 -13.186  -1.431  0.00  0.00    +0.112 C 
BRANCH  30  31
ATOM     31  C   UNL     1      -1.457 -14.615  -1.110  0.00  0.00    -0.037 A 
ATOM     32  C   UNL     1      -0.460 -15.523  -0.807  0.00  0.00    +0.004 A 
ATOM     33  C   UNL     1      -0.784 -16.834  -0.512  0.00  0.00    +0.000 A 
ATOM     34  C   UNL     1      -2.107 -17.237  -0.520  0.00  0.00    +0.000 A 
ATOM     35  C   UNL     1      -3.104 -16.329  -0.821  0.00  0.00    +0.000 A 
ATOM     36  C   UNL     1      -2.780 -15.017  -1.112  0.00  0.00    +0.004 A 
ENDBRANCH  30  31
ENDBRANCH  29  30
ENDBRANCH   6  29
TORSDOF 6
