REMARK  Name = ZINC16696689
REMARK  14 active torsions:
REMARK  status: ('A' for Active; 'I' for Inactive)
REMARK    1  A    between atoms: C_1  and  C_2
REMARK    2  A    between atoms: C_2  and  C_3
REMARK    3  A    between atoms: C_3  and  C_4
REMARK    4  A    between atoms: C_7  and  C_11
REMARK    5  A    between atoms: C_10  and  N_60
REMARK    6  A    between atoms: N_13  and  C_14
REMARK    7  A    between atoms: C_14  and  C_16
REMARK    8  A    between atoms: C_14  and  C_32
REMARK    9  A    between atoms: C_18  and  O_31
REMARK   10  A    between atoms: C_20  and  O_30
REMARK   11  A    between atoms: C_22  and  O_29
REMARK   12  A    between atoms: C_24  and  S_27
REMARK   13  A    between atoms: S_27  and  C_28
REMARK   14  A    between atoms: C_32  and  C_34
REMARK                            x       y       z     vdW  Elec       q    Type
REMARK                         _______ _______ _______ _____ _____    ______ ____
ROOT
ATOM      1  C   UNL     1      -0.013   1.086   0.008  0.00  0.00    +0.122 C 
ENDROOT
BRANCH   1   2
ATOM      2  C   UNL     1      -0.729   1.579   1.267  0.00  0.00    +0.172 C 
ATOM      3  C   UNL     1      -2.199   1.155   1.218  0.00  0.00    +0.176 C 
ATOM      4  C   UNL     1      -2.280  -0.375   1.206  0.00  0.00    +0.177 C 
ATOM      5  C   UNL     1      -1.558  -0.923   2.440  0.00  0.00    +0.184 C 
ATOM      6  C   UNL     1      -0.113  -0.418   2.442  0.00  0.00    +0.207 C 
ATOM      7  O   UNL     1      -0.109   1.010   2.422  0.00  0.00    -0.356 OA
BRANCH   6   8
ATOM      8  S   UNL     1       0.731  -1.005   3.938  0.00  0.00    -0.131 S 
ATOM      9  C   UNL     1       2.446  -0.459   3.716  0.00  0.00    +0.087 C 
ENDBRANCH   6   8
BRANCH   5  10
ATOM     10  O   UNL     1      -2.224  -0.474   3.622  0.00  0.00    -0.386 OA
ATOM     11  H   UNL     1      -1.819  -0.784   4.444  0.00  0.00    +0.210 HD
ENDBRANCH   5  10
BRANCH   4  12
ATOM     12  O   UNL     1      -1.657  -0.878   0.022  0.00  0.00    -0.386 OA
ATOM     13  H   UNL     1      -1.672  -1.842  -0.051  0.00  0.00    +0.210 HD
ENDBRANCH   4  12
BRANCH   3  14
ATOM     14  O   UNL     1      -2.807   1.674   0.033  0.00  0.00    -0.387 OA
ATOM     15  H   UNL     1      -3.741   1.444  -0.064  0.00  0.00    +0.210 HD
ENDBRANCH   3  14
ENDBRANCH   1   2
BRANCH   1  18
ATOM     16  C   UNL     1      -0.608   0.934  -2.350  0.00  0.00    +0.200 C 
ATOM     17  O   UNL     1       0.053  -0.080  -2.421  0.00  0.00    -0.278 OA
ATOM     18  N   UNL     1      -0.705   1.594  -1.179  0.00  0.00    -0.310 N 
ATOM     19  H   UNL     1      -1.234   2.405  -1.121  0.00  0.00    +0.149 HD
BRANCH  16  22
ATOM     20  C   UNL     1      -0.192   2.133  -5.638  0.00  0.00    -0.029 C 
ATOM     21  C   UNL     1      -0.508   2.604  -4.201  0.00  0.00    -0.005 C 
ATOM     22  C   UNL     1      -1.320   1.457  -3.571  0.00  0.00    +0.019 C 
ATOM     23  C   UNL     1      -1.286   1.069  -5.903  0.00  0.00    -0.075 C 
ATOM     24  C   UNL     1      -2.714  -0.308  -4.490  0.00  0.00    -0.095 C 
ATOM     25  N   UNL     1      -1.409   0.412  -4.592  0.00  0.00    +0.386 N 
ATOM     26  H   UNL     1      -0.643  -0.260  -4.467  0.00  0.00    -0.081 HD
BRANCH  20  27
ATOM     27  C   UNL     1      -0.314   3.293  -6.628  0.00  0.00    +0.001 C 
BRANCH  27  29
ATOM     28  C   UNL     1       0.002   3.987  -9.007  0.00  0.00    +0.004 C 
ATOM     29  C   UNL     1       0.125   2.827  -8.018  0.00  0.00    -0.003 C 
ENDBRANCH  27  29
ENDBRANCH  20  27
ENDBRANCH  16  22
ENDBRANCH   1  18
BRANCH   1  30
ATOM     30  C   UNL     1       1.431   1.591   0.011  0.00  0.00    +0.100 C 
ATOM     31  C   UNL     1       2.111   1.204  -1.304  0.00  0.00    +0.026 C 
ATOM     32 CL   UNL     1       1.440   3.386   0.187  0.00  0.00    -0.120 Cl
ENDBRANCH   1  30
TORSDOF 10
