REMARK  Name = ZINC38509030
REMARK  11 active torsions:
REMARK  status: ('A' for Active; 'I' for Inactive)
REMARK    1  A    between atoms: C_1  and  C_2
REMARK    2  A    between atoms: N_4  and  C_27
REMARK    3  A    between atoms: C_6  and  C_7
REMARK    4  A    between atoms: N_9  and  C_10
REMARK    5  A    between atoms: C_11  and  C_23
REMARK    6  A    between atoms: C_15  and  C_21
REMARK    7  A    between atoms: C_15  and  C_22
REMARK    8  A    between atoms: C_17  and  C_19
REMARK    9  A    between atoms: C_17  and  C_20
REMARK   10  A    between atoms: C_23  and  O_25
REMARK   11  A    between atoms: O_25  and  C_26
REMARK                            x       y       z     vdW  Elec       q    Type
REMARK                         _______ _______ _______ _____ _____    ______ ____
ROOT
ATOM      1  C   UNL     1       0.063  -1.019   4.843  0.00  0.00    +0.087 A 
ATOM      2  C   UNL     1       0.084  -1.841   5.964  0.00  0.00    +0.091 A 
ATOM      3  C   UNL     1       0.086  -1.188   7.255  0.00  0.00    -0.024 A 
ATOM      4  C   UNL     1       0.062   0.164   7.203  0.00  0.00    -0.016 A 
ATOM      5  S   UNL     1       0.049   0.537   5.475  0.00  0.00    -0.079 S 
ATOM      6  C   UNL     1       0.042   1.094   8.369  0.00  0.00    -0.041 C 
ATOM      7  N   UNL     1       0.255   0.399   9.637  0.00  0.00    +0.389 N 
ATOM      8  C   UNL     1       0.876  -0.916   9.564  0.00  0.00    -0.069 C 
ATOM      9  C   UNL     1       0.120  -1.859   8.619  0.00  0.00    +0.024 C 
ATOM     10  C   UNL     1       0.856  -1.543  10.971  0.00  0.00    -0.010 C 
ATOM     11  C   UNL     1       2.337  -0.813   9.117  0.00  0.00    -0.010 C 
ATOM     12  C   UNL     1       1.108   2.181   8.175  0.00  0.00    -0.005 C 
ATOM     13  C   UNL     1      -1.335   1.786   8.411  0.00  0.00    -0.005 C 
ATOM     14  H   UNL     1       0.823   0.993  10.243  0.00  0.00    -0.084 HD
ATOM     15  H   UNL     1      -0.646   0.305  10.111  0.00  0.00    -0.084 HD
ENDROOT
BRANCH   1  18
ATOM     16  C   UNL     1       0.033  -0.462   2.544  0.00  0.00    +0.269 C 
ATOM     17  O   UNL     1       0.020   0.718   2.840  0.00  0.00    -0.268 OA
ATOM     18  N   UNL     1       0.055  -1.399   3.512  0.00  0.00    -0.274 N 
ATOM     19  H   UNL     1       0.065  -2.340   3.276  0.00  0.00    +0.156 HD
BRANCH  16  25
ATOM     20  C   UNL     1      -0.018   1.503   0.010  0.00  0.00    +0.048 C 
ATOM     21  C   UNL     1       0.002  -0.004   0.002  0.00  0.00    -0.001 A 
ATOM     22  C   UNL     1       0.009  -0.817  -1.080  0.00  0.00    +0.112 A 
ATOM     23  N   UNL     1       0.028  -2.089  -0.625  0.00  0.00    -0.274 N 
ATOM     24  N   UNL     1       0.033  -2.101   0.660  0.00  0.00    -0.167 NA
ATOM     25  C   UNL     1       0.024  -0.867   1.124  0.00  0.00    +0.150 A 
ATOM     26  C   UNL     1       0.040  -3.282  -1.474  0.00  0.00    +0.172 C 
ENDBRANCH  16  25
ENDBRANCH   1  18
BRANCH   2  27
ATOM     27  C   UNL     1       0.099  -3.300   5.832  0.00  0.00    +0.342 C 
ATOM     28  O   UNL     1       1.159  -3.893   5.766  0.00  0.00    -0.245 OA
BRANCH  27  29
ATOM     29  O   UNL     1      -1.062  -3.985   5.782  0.00  0.00    -0.464 OA
ATOM     30  C   UNL     1      -0.972  -5.405   5.652  0.00  0.00    +0.280 C 
ENDBRANCH  27  29
ENDBRANCH   2  27
TORSDOF 4
