REMARK  Name = ZINC27575882
REMARK  10 active torsions:
REMARK  status: ('A' for Active; 'I' for Inactive)
REMARK    1  A    between atoms: C_3  and  C_6
REMARK    2  A    between atoms: C_6  and  N_7
REMARK    3  A    between atoms: N_7  and  C_8
REMARK    4  A    between atoms: N_7  and  C_21
REMARK    5  A    between atoms: C_8  and  C_9
REMARK    6  A    between atoms: C_12  and  C_15
REMARK    7  A    between atoms: N_17  and  C_18
REMARK    8  A    between atoms: C_21  and  C_22
REMARK    9  A    between atoms: N_24  and  C_25
REMARK   10  A    between atoms: C_26  and  C_30
REMARK                            x       y       z     vdW  Elec       q    Type
REMARK                         _______ _______ _______ _____ _____    ______ ____
ROOT
ATOM      1  N   UNL     1      -2.640   3.904   0.056  0.00  0.00    +0.393 N 
ATOM      2  H   UNL     1      -3.099   3.400   0.920  0.00  0.00    -0.080 HD
ENDROOT
BRANCH   1   3
ATOM      3  C   UNL     1      -3.322   3.432  -1.157  0.00  0.00    -0.002 C 
BRANCH   3   6
ATOM      4  C   UNL     1      -4.343  -0.069  -0.623  0.00  0.00    +0.041 A 
ATOM      5  C   UNL     1      -4.550   1.321  -0.460  0.00  0.00    +0.042 A 
ATOM      6  C   UNL     1      -3.525   1.941  -1.071  0.00  0.00    +0.089 A 
ATOM      7  O   UNL     1      -2.716   1.007  -1.598  0.00  0.00    -0.470 OA
ATOM      8  C   UNL     1      -3.204  -0.213  -1.324  0.00  0.00    +0.195 A 
ENDBRANCH   3   6
ENDBRANCH   1   3
BRANCH   1   9
ATOM      9  C   UNL     1      -2.818   5.351   0.231  0.00  0.00    -0.042 C 
BRANCH   9  10
ATOM     10  C   UNL     1      -4.271   5.650   0.498  0.00  0.00    -0.064 A 
ATOM     11  C   UNL     1      -5.125   5.912  -0.558  0.00  0.00    +0.002 A 
ATOM     12  C   UNL     1      -6.458   6.180  -0.321  0.00  0.00    +0.013 A 
ATOM     13  C   UNL     1      -6.940   6.199   0.988  0.00  0.00    +0.037 A 
ATOM     14  C   UNL     1      -6.071   5.941   2.050  0.00  0.00    +0.013 A 
ATOM     15  C   UNL     1      -4.742   5.668   1.798  0.00  0.00    +0.002 A 
BRANCH  13  16
ATOM     16  C   UNL     1      -8.366   6.492   1.250  0.00  0.00    +0.244 C 
ATOM     17  O   UNL     1      -8.783   6.508   2.392  0.00  0.00    -0.270 OA
ATOM     18  N   UNL     1      -9.202   6.741   0.223  0.00  0.00    -0.308 N 
ATOM     19  H   UNL     1      -8.824   6.727  -0.810  0.00  0.00    +0.149 HD
BRANCH  18  20
ATOM     20  C   UNL     1     -10.614   7.031   0.483  0.00  0.00    +0.073 C 
ATOM     21  C   UNL     1     -11.651   6.355  -0.417  0.00  0.00    +0.024 C 
ATOM     22  C   UNL     1     -11.371   7.852  -0.563  0.00  0.00    +0.024 C 
ENDBRANCH  18  20
ENDBRANCH  13  16
ENDBRANCH   9  10
ENDBRANCH   1   9
BRANCH   1  23
ATOM     23  C   UNL     1      -1.215   3.548   0.030  0.00  0.00    +0.020 C 
BRANCH  23  24
ATOM     24  C   UNL     1      -0.663   3.583   1.432  0.00  0.00    +0.201 C 
ATOM     25  O   UNL     1      -1.363   3.956   2.350  0.00  0.00    -0.278 OA
ATOM     26  N   UNL     1       0.608   3.199   1.666  0.00  0.00    -0.281 N 
ATOM     27  H   UNL     1       1.242   2.861   0.834  0.00  0.00    +0.155 HD
BRANCH  26  28
ATOM     28  C   UNL     1       1.115   3.232   2.956  0.00  0.00    +0.084 A 
ATOM     29  C   UNL     1       2.384   2.869   3.394  0.00  0.00    +0.065 A 
ATOM     30  C   UNL     1       2.647   3.009   4.806  0.00  0.00    +0.022 A 
ATOM     31  C   UNL     1       1.643   3.466   5.576  0.00  0.00    +0.048 A 
ATOM     32  S   UNL     1       0.321   3.727   4.412  0.00  0.00    -0.081 S 
BRANCH  29  33
ATOM     33  C   UNL     1       3.405   2.373   2.466  0.00  0.00    +0.244 C 
ATOM     34  O   UNL     1       3.151   2.270   1.280  0.00  0.00    -0.270 OA
ATOM     35  N   UNL     1       4.624   2.030   2.926  0.00  0.00    -0.325 N 
ATOM     36  H   UNL     1       5.390   1.658   2.231  0.00  0.00    +0.145 HD
ATOM     37  H   UNL     1       4.853   2.123   3.998  0.00  0.00    +0.145 HD
ENDBRANCH  29  33
ENDBRANCH  26  28
ENDBRANCH  23  24
ENDBRANCH   1  23
TORSDOF 10
