REMARK  Name = ZINC23004920
REMARK  8 active torsions:
REMARK  status: ('A' for Active; 'I' for Inactive)
REMARK    1  A    between atoms: C_1  and  C_2
REMARK    2  A    between atoms: C_2  and  C_28
REMARK    3  A    between atoms: N_5  and  N_9
REMARK    4  A    between atoms: C_10  and  C_12
REMARK    5  A    between atoms: C_12  and  N_13
REMARK    6  A    between atoms: C_19  and  C_21
REMARK    7  A    between atoms: C_28  and  C_29
REMARK    8  A    between atoms: C_29  and  C_30
REMARK                            x       y       z     vdW  Elec       q    Type
REMARK                         _______ _______ _______ _____ _____    ______ ____
ROOT
ATOM      1  N   UNL     1       6.054   0.205  -6.887  0.00  0.00    -0.225 N 
ATOM      2  C   UNL     1       6.880  -0.813  -6.575  0.00  0.00    +0.213 C 
ATOM      3  O   UNL     1       7.077  -1.100  -5.413  0.00  0.00    -0.276 OA
ATOM      4  H   UNL     1       5.875   0.466  -7.941  0.00  0.00    +0.173 HD
ENDROOT
BRANCH   1   9
ATOM      5  C   UNL     1       5.602   2.809  -3.074  0.00  0.00    +0.041 C 
ATOM      6  C   UNL     1       4.833   2.553  -4.372  0.00  0.00    +0.112 C 
ATOM      7  C   UNL     1       5.785   2.173  -5.489  0.00  0.00    +0.263 C 
ATOM      8  O   UNL     1       6.683   2.846  -5.946  0.00  0.00    -0.271 OA
ATOM      9  N   UNL     1       5.423   0.932  -5.869  0.00  0.00    -0.137 N 
ATOM     10  C   UNL     1       4.386   0.479  -5.154  0.00  0.00    +0.326 C 
ATOM     11  O   UNL     1       3.882  -0.615  -5.314  0.00  0.00    -0.251 OA
ATOM     12  N   UNL     1       3.964   1.372  -4.235  0.00  0.00    -0.284 N 
ATOM     13  H   UNL     1       3.163   1.362  -3.481  0.00  0.00    +0.151 HD
BRANCH   6  14
ATOM     14  C   UNL     1       4.011   3.784  -4.759  0.00  0.00    +0.040 C 
BRANCH  14  15
ATOM     15  C   UNL     1       3.025   4.113  -3.637  0.00  0.00    +0.038 C 
BRANCH  15  16
ATOM     16  C   UNL     1       2.215   5.325  -4.019  0.00  0.00    -0.047 A 
ATOM     17  C   UNL     1       1.026   5.173  -4.707  0.00  0.00    +0.003 A 
ATOM     18  C   UNL     1       0.286   6.286  -5.062  0.00  0.00    +0.000 A 
ATOM     19  C   UNL     1       0.730   7.549  -4.721  0.00  0.00    +0.000 A 
ATOM     20  C   UNL     1       1.920   7.701  -4.033  0.00  0.00    +0.000 A 
ATOM     21  C   UNL     1       2.662   6.589  -3.682  0.00  0.00    +0.003 A 
ENDBRANCH  15  16
ENDBRANCH  14  15
ENDBRANCH   6  14
ENDBRANCH   1   9
BRANCH   2  22
ATOM     22  C   UNL     1       7.559  -1.595  -7.670  0.00  0.00    +0.020 C 
BRANCH  22  23
ATOM     23  N   UNL     1       8.400  -2.642  -7.075  0.00  0.00    +0.387 N 
ATOM     24  C   UNL     1       9.511  -2.056  -6.314  0.00  0.00    -0.059 C 
ATOM     25  C   UNL     1      10.254  -3.167  -5.564  0.00  0.00    +0.089 C 
ATOM     26  N   UNL     1      10.642  -4.205  -6.531  0.00  0.00    -0.301 N 
ATOM     27  C   UNL     1       9.607  -4.744  -7.426  0.00  0.00    +0.089 C 
ATOM     28  C   UNL     1       8.889  -3.571  -8.103  0.00  0.00    -0.059 C 
ATOM     29  C   UNL     1      11.912  -4.651  -6.595  0.00  0.00    +0.246 C 
ATOM     30  O   UNL     1      12.774  -4.129  -5.915  0.00  0.00    -0.270 OA
ATOM     31  H   UNL     1       7.779  -3.217  -6.372  0.00  0.00    -0.081 HD
BRANCH  29  32
ATOM     32  C   UNL     1      12.257  -5.773  -7.492  0.00  0.00    +0.037 A 
ATOM     33  C   UNL     1      11.333  -6.793  -7.726  0.00  0.00    +0.014 A 
ATOM     34  C   UNL     1      11.658  -7.835  -8.569  0.00  0.00    +0.021 A 
ATOM     35  C   UNL     1      12.903  -7.877  -9.174  0.00  0.00    +0.041 A 
ATOM     36  C   UNL     1      13.826  -6.871  -8.942  0.00  0.00    +0.021 A 
ATOM     37  C   UNL     1      13.510  -5.821  -8.105  0.00  0.00    +0.014 A 
ATOM     38 CL   UNL     1      13.308  -9.194 -10.229  0.00  0.00    -0.084 Cl
ENDBRANCH  29  32
ENDBRANCH  22  23
ENDBRANCH   2  22
TORSDOF 7
