REMARK  Name = ZINC49986761
REMARK  6 active torsions:
REMARK  status: ('A' for Active; 'I' for Inactive)
REMARK    1  A    between atoms: C_1  and  C_2
REMARK    2  A    between atoms: C_4  and  C_20
REMARK    3  A    between atoms: C_6  and  N_8
REMARK    4  A    between atoms: N_8  and  C_9
REMARK    5  A    between atoms: C_11  and  C_16
REMARK    6  A    between atoms: N_17  and  O_18
REMARK                            x       y       z     vdW  Elec       q    Type
REMARK                         _______ _______ _______ _____ _____    ______ ____
ROOT
ATOM      1  N   UNL     1      -0.043  -2.801   2.431  0.00  0.00    -0.288 N 
ATOM      2  C   UNL     1      -0.240  -4.252   2.467  0.00  0.00    +0.137 C 
ATOM      3  C   UNL     1       0.100  -2.091   3.614  0.00  0.00    +0.136 A 
ATOM      4  C   UNL     1      -1.040  -1.655   4.308  0.00  0.00    +0.058 A 
ATOM      5  C   UNL     1      -0.872  -0.942   5.497  0.00  0.00    +0.016 A 
ATOM      6  C   UNL     1       0.416  -0.695   5.941  0.00  0.00    +0.020 A 
ATOM      7  C   UNL     1       1.490  -1.156   5.202  0.00  0.00    +0.113 A 
ATOM      8  N   UNL     1       1.310  -1.832   4.084  0.00  0.00    -0.239 NA
ENDROOT
BRANCH   1  14
ATOM      9  C   UNL     1       0.184   1.418  -0.082  0.00  0.00    +0.044 C 
ATOM     10  C   UNL     1       0.112  -0.087  -0.043  0.00  0.00    -0.048 A 
ATOM     11  C   UNL     1       0.090  -0.807  -1.223  0.00  0.00    +0.006 A 
ATOM     12  C   UNL     1       0.023  -2.188  -1.193  0.00  0.00    -0.048 A 
ATOM     13  C   UNL     1      -0.021  -2.852   0.017  0.00  0.00    +0.026 A 
ATOM     14  C   UNL     1       0.002  -2.132   1.205  0.00  0.00    +0.035 A 
ATOM     15  C   UNL     1       0.074  -0.745   1.170  0.00  0.00    +0.026 A 
ATOM     16  C   UNL     1      -0.002  -2.969  -2.481  0.00  0.00    +0.044 C 
ENDBRANCH   1  14
BRANCH   4  17
ATOM     17  C   UNL     1      -2.393  -1.946   3.789  0.00  0.00    +0.166 C 
ATOM     18  N   UNL     1      -2.537  -2.517   2.628  0.00  0.00    -0.071 NA
ATOM     19  N   UNL     1      -3.509  -1.610   4.538  0.00  0.00    -0.340 N 
ATOM     20  H   UNL     1      -3.402  -1.183   5.403  0.00  0.00    +0.144 HD
ATOM     21  H   UNL     1      -4.397  -1.800   4.198  0.00  0.00    +0.144 HD
BRANCH  18  22
ATOM     22  O   UNL     1      -3.831  -2.699   2.084  0.00  0.00    -0.408 OA
ATOM     23  H   UNL     1      -3.837  -3.132   1.219  0.00  0.00    +0.328 HD
ENDBRANCH  18  22
ENDBRANCH   4  17
TORSDOF 3
