REMARK  Name = ZINC21093108
REMARK  7 active torsions:
REMARK  status: ('A' for Active; 'I' for Inactive)
REMARK    1  A    between atoms: C_1  and  C_2
REMARK    2  A    between atoms: C_3  and  C_7
REMARK    3  A    between atoms: C_10  and  S_13
REMARK    4  A    between atoms: N_11  and  N_12
REMARK    5  A    between atoms: S_13  and  C_14
REMARK    6  A    between atoms: C_14  and  C_15
REMARK    7  A    between atoms: N_17  and  C_18
REMARK                            x       y       z     vdW  Elec       q    Type
REMARK                         _______ _______ _______ _____ _____    ______ ____
ROOT
ATOM      1  S   UNL     1       3.363   7.617  -1.055  0.00  0.00    -0.075 S 
ENDROOT
BRANCH   1   5
ATOM      2  C   UNL     1       6.767   9.512  -1.349  0.00  0.00    +0.185 A 
ATOM      3  N   UNL     1       7.135   8.316  -0.953  0.00  0.00    -0.127 NA
ATOM      4  N   UNL     1       6.103   7.564  -0.810  0.00  0.00    -0.121 NA
ATOM      5  C   UNL     1       5.013   8.233  -1.105  0.00  0.00    +0.209 A 
ATOM      6  N   UNL     1       5.397   9.495  -1.464  0.00  0.00    -0.224 N 
BRANCH   2   9
ATOM      7  C   UNL     1       9.891   9.544  -1.084  0.00  0.00    +0.087 C 
ATOM      8  C   UNL     1       9.014  10.692  -1.514  0.00  0.00    +0.112 A 
ATOM      9  C   UNL     1       7.659  10.660  -1.624  0.00  0.00    +0.061 A 
ATOM     10  C   UNL     1       7.263  12.003  -2.067  0.00  0.00    +0.053 A 
ATOM     11  C   UNL     1       8.403  12.705  -2.185  0.00  0.00    +0.196 A 
ATOM     12  O   UNL     1       9.438  11.917  -1.858  0.00  0.00    -0.467 OA
ENDBRANCH   2   9
BRANCH   6  13
ATOM     13  N   UNL     1       4.588  10.525  -1.853  0.00  0.00    -0.295 N 
ATOM     14  H   UNL     1       3.499  10.380  -1.904  0.00  0.00    +0.163 HD
ATOM     15  H   UNL     1       5.027  11.499  -2.115  0.00  0.00    +0.163 HD
ENDBRANCH   6  13
ENDBRANCH   1   5
BRANCH   1  16
ATOM     16  C   UNL     1       3.677   5.920  -0.510  0.00  0.00    +0.173 C 
BRANCH  16  17
ATOM     17  C   UNL     1       2.370   5.180  -0.393  0.00  0.00    +0.228 C 
ATOM     18  O   UNL     1       1.328   5.744  -0.653  0.00  0.00    -0.275 OA
ATOM     19  N   UNL     1       2.358   3.890  -0.001  0.00  0.00    -0.282 N 
ATOM     20  H   UNL     1       3.292   3.403   0.314  0.00  0.00    +0.155 HD
BRANCH  19  21
ATOM     21  C   UNL     1       1.156   3.171   0.007  0.00  0.00    +0.071 A 
ATOM     22  C   UNL     1       0.749   2.485  -1.130  0.00  0.00    +0.065 A 
ATOM     23  C   UNL     1      -0.438   1.776  -1.120  0.00  0.00    +0.042 A 
ATOM     24  C   UNL     1      -1.223   1.755   0.019  0.00  0.00    +0.044 A 
ATOM     25  C   UNL     1      -0.818   2.433   1.155  0.00  0.00    +0.042 A 
ATOM     26  C   UNL     1       0.368   3.144   1.151  0.00  0.00    +0.065 A 
ATOM     27 CL   UNL     1       0.874   3.999   2.575  0.00  0.00    -0.082 Cl
ATOM     28 CL   UNL     1      -2.717   0.870   0.026  0.00  0.00    -0.083 Cl
ATOM     29 CL   UNL     1       1.729   2.517  -2.562  0.00  0.00    -0.082 Cl
ENDBRANCH  19  21
ENDBRANCH  16  17
ENDBRANCH   1  16
TORSDOF 6
