REMARK  Name = ZINC12485281
REMARK  4 active torsions:
REMARK  status: ('A' for Active; 'I' for Inactive)
REMARK    1  A    between atoms: C_1  and  O_2
REMARK    2  A    between atoms: O_2  and  C_3
REMARK    3  A    between atoms: C_6  and  C_9
REMARK    4  A    between atoms: C_12  and  C_21
REMARK                            x       y       z     vdW  Elec       q    Type
REMARK                         _______ _______ _______ _____ _____    ______ ____
ROOT
ATOM      1  C   UNL     1      -2.503   1.004   0.019  0.00  0.00    +0.098 C 
ATOM      2  N   UNL     1      -2.455  -0.283  -0.087  0.00  0.00    -0.180 NA
ATOM      3  N   UNL     1      -3.622  -1.054   0.010  0.00  0.00    -0.220 N 
ATOM      4  C   UNL     1      -4.348  -0.979   1.186  0.00  0.00    +0.146 C 
ATOM      5  N   UNL     1      -4.863   0.138   1.598  0.00  0.00    -0.230 NA
ATOM      6  C   UNL     1      -4.861   1.309   0.895  0.00  0.00    +0.075 A 
ATOM      7  C   UNL     1      -3.770   1.761   0.149  0.00  0.00    +0.029 A 
ATOM      8  C   UNL     1      -3.862   2.978  -0.532  0.00  0.00    +0.027 A 
ATOM      9  C   UNL     1      -5.019   3.735  -0.468  0.00  0.00    +0.019 A 
ATOM     10  C   UNL     1      -6.098   3.287   0.270  0.00  0.00    +0.017 A 
ATOM     11  C   UNL     1      -6.024   2.085   0.947  0.00  0.00    +0.029 A 
ATOM     12 BR   UNL     1      -5.122   5.383  -1.389  0.00  0.00    -0.050 Br
ATOM     13  H   UNL     1      -3.910  -1.621  -0.723  0.00  0.00    +0.176 HD
ENDROOT
BRANCH   4  14
ATOM     14  C   UNL     1      -4.540  -2.200   1.991  0.00  0.00    +0.016 A 
ATOM     15  C   UNL     1      -5.265  -2.147   3.185  0.00  0.00    +0.013 A 
ATOM     16  C   UNL     1      -5.445  -3.292   3.930  0.00  0.00    +0.021 A 
ATOM     17  C   UNL     1      -4.901  -4.493   3.503  0.00  0.00    +0.041 A 
ATOM     18  C   UNL     1      -4.178  -4.552   2.323  0.00  0.00    +0.021 A 
ATOM     19  C   UNL     1      -3.994  -3.414   1.566  0.00  0.00    +0.013 A 
ATOM     20 CL   UNL     1      -5.127  -5.930   4.451  0.00  0.00    -0.084 Cl
ENDBRANCH   4  14
BRANCH   1  24
ATOM     21  C   UNL     1       1.152   3.173   0.008  0.00  0.00    +0.120 A 
ATOM     22  C   UNL     1       1.093   1.913  -0.571  0.00  0.00    +0.046 A 
ATOM     23  C   UNL     1      -0.090   1.204  -0.567  0.00  0.00    +0.013 A 
ATOM     24  C   UNL     1      -1.231   1.758   0.017  0.00  0.00    +0.003 A 
ATOM     25  C   UNL     1      -1.166   3.024   0.604  0.00  0.00    +0.013 A 
ATOM     26  C   UNL     1       0.020   3.725   0.595  0.00  0.00    +0.046 A 
BRANCH  21  28
ATOM     27  C   UNL     1       2.309   5.159   0.615  0.00  0.00    +0.277 C 
ATOM     28  O   UNL     1       2.319   3.868   0.001  0.00  0.00    -0.495 OA
ENDBRANCH  21  28
ENDBRANCH   1  24
TORSDOF 3
