REMARK  Name = ZINC09191254
REMARK  9 active torsions:
REMARK  status: ('A' for Active; 'I' for Inactive)
REMARK    1  A    between atoms: C_1  and  C_2
REMARK    2  A    between atoms: C_2  and  C_3
REMARK    3  A    between atoms: C_2  and  C_4
REMARK    4  A    between atoms: C_2  and  C_5
REMARK    5  A    between atoms: C_5  and  C_7
REMARK    6  A    between atoms: C_9  and  C_34
REMARK    7  A    between atoms: C_27  and  O_32
REMARK    8  A    between atoms: O_32  and  C_33
REMARK    9  A    between atoms: C_34  and  C_36
REMARK                            x       y       z     vdW  Elec       q    Type
REMARK                         _______ _______ _______ _____ _____    ______ ____
ROOT
ATOM      1  C   UNL     1      -2.597   4.853   0.592  0.00  0.00    +0.153 C 
ATOM      2  C   UNL     1      -4.090   4.689   0.995  0.00  0.00    +0.112 C 
ATOM      3  C   UNL     1      -4.258   3.178   1.260  0.00  0.00    +0.108 C 
ATOM      4  C   UNL     1      -5.292   2.574   0.373  0.00  0.00    -0.008 A 
ATOM      5  C   UNL     1      -5.389   2.479  -0.998  0.00  0.00    +0.006 A 
ATOM      6  C   UNL     1      -6.511   1.837  -1.510  0.00  0.00    +0.000 A 
ATOM      7  C   UNL     1      -7.484   1.317  -0.681  0.00  0.00    +0.002 A 
ATOM      8  C   UNL     1      -7.394   1.407   0.700  0.00  0.00    +0.023 A 
ATOM      9  C   UNL     1      -6.274   2.051   1.227  0.00  0.00    +0.038 A 
ATOM     10  N   UNL     1      -5.935   2.281   2.549  0.00  0.00    -0.284 N 
ATOM     11  C   UNL     1      -4.761   2.941   2.663  0.00  0.00    +0.231 C 
ATOM     12  O   UNL     1      -4.217   3.277   3.693  0.00  0.00    -0.274 OA
ATOM     13  C   UNL     1      -2.874   2.585   1.050  0.00  0.00    +0.117 C 
ATOM     14  N   UNL     1      -2.231   3.523   0.100  0.00  0.00    -0.311 N 
ATOM     15  C   UNL     1      -0.897   3.206  -0.031  0.00  0.00    +0.038 A 
ATOM     16  C   UNL     1       0.115   4.146  -0.048  0.00  0.00    +0.027 A 
ATOM     17  C   UNL     1       1.432   3.739  -0.163  0.00  0.00    +0.047 A 
ATOM     18  C   UNL     1       1.746   2.391  -0.264  0.00  0.00    +0.121 A 
ATOM     19  C   UNL     1       0.743   1.436  -0.254  0.00  0.00    +0.055 A 
ATOM     20  C   UNL     1      -0.583   1.834  -0.145  0.00  0.00    -0.001 A 
ATOM     21  C   UNL     1      -1.692   0.850  -0.144  0.00  0.00    +0.007 C 
ATOM     22  C   UNL     1      -2.843   1.212   0.452  0.00  0.00    -0.003 C 
ATOM     23  H   UNL     1      -6.476   2.002   3.304  0.00  0.00    +0.155 HD
ENDROOT
BRANCH   1  24
ATOM     24  C   UNL     1      -1.761   5.219   1.791  0.00  0.00    +0.160 C 
ATOM     25  O   UNL     1      -1.182   4.358   2.409  0.00  0.00    -0.295 OA
BRANCH  24  27
ATOM     26  C   UNL     1      -0.837   6.744   3.514  0.00  0.00    +0.018 C 
ATOM     27  C   UNL     1      -1.646   6.659   2.219  0.00  0.00    +0.022 C 
ATOM     28  C   UNL     1      -0.941   7.462   1.123  0.00  0.00    +0.018 C 
ATOM     29  C   UNL     1      -3.045   7.234   2.452  0.00  0.00    +0.018 C 
ENDBRANCH  24  27
ENDBRANCH   1  24
BRANCH  18  30
ATOM     30  O   UNL     1       3.046   2.005  -0.374  0.00  0.00    -0.495 OA
ATOM     31  C   UNL     1       4.032   3.040  -0.378  0.00  0.00    +0.277 C 
ENDBRANCH  18  30
BRANCH   2  32
ATOM     32  C   UNL     1      -4.990   5.128  -0.131  0.00  0.00    +0.204 C 
ATOM     33  O   UNL     1      -4.565   5.168  -1.268  0.00  0.00    -0.288 OA
BRANCH  32  34
ATOM     34  C   UNL     1      -6.329   5.492   0.136  0.00  0.00    +0.170 A 
ATOM     35  C   UNL     1      -7.289   5.809  -0.804  0.00  0.00    +0.053 A 
ATOM     36  C   UNL     1      -8.461   6.103  -0.095  0.00  0.00    +0.042 A 
ATOM     37  C   UNL     1      -8.177   5.965   1.221  0.00  0.00    +0.196 A 
ATOM     38  O   UNL     1      -6.897   5.599   1.356  0.00  0.00    -0.460 OA
ENDBRANCH  32  34
ENDBRANCH   2  32
TORSDOF 5
