REMARK  Name = ZINC34690037
REMARK  14 active torsions:
REMARK  status: ('A' for Active; 'I' for Inactive)
REMARK    1  A    between atoms: C_1  and  C_2
REMARK    2  A    between atoms: C_2  and  C_3
REMARK    3  A    between atoms: C_3  and  C_4
REMARK    4  A    between atoms: C_4  and  N_5
REMARK    5  A    between atoms: N_5  and  C_6
REMARK    6  A    between atoms: C_6  and  C_7
REMARK    7  A    between atoms: N_9  and  C_10
REMARK    8  A    between atoms: C_12  and  C_22
REMARK    9  A    between atoms: N_14  and  C_15
REMARK   10  A    between atoms: C_20  and  C_21
REMARK   11  A    between atoms: C_22  and  C_23
REMARK   12  A    between atoms: C_22  and  C_24
REMARK   13  A    between atoms: C_22  and  C_25
REMARK   14  A    between atoms: N_28  and  C_29
REMARK                            x       y       z     vdW  Elec       q    Type
REMARK                         _______ _______ _______ _____ _____    ______ ____
ROOT
ATOM      1  C   UNL     1      -2.612  -4.074  -1.924  0.00  0.00    +0.236 C 
ATOM      2  O   UNL     1      -2.169  -4.841  -1.095  0.00  0.00    -0.274 OA
ATOM      3  N   UNL     1      -3.210  -4.552  -3.033  0.00  0.00    -0.269 N 
ATOM      4  H   UNL     1      -3.564  -3.939  -3.695  0.00  0.00    +0.156 HD
ENDROOT
BRANCH   3   5
ATOM      5  C   UNL     1      -3.320  -5.928  -3.228  0.00  0.00    +0.129 A 
ATOM      6  C   UNL     1      -2.776  -6.899  -2.444  0.00  0.00    +0.069 A 
ATOM      7  C   UNL     1      -3.125  -8.137  -2.990  0.00  0.00    +0.071 A 
ATOM      8  N   UNL     1      -3.850  -7.930  -4.059  0.00  0.00    -0.169 NA
ATOM      9  N   UNL     1      -3.997  -6.548  -4.233  0.00  0.00    -0.218 N 
BRANCH   9  10
ATOM     10  C   UNL     1      -4.710  -5.916  -5.261  0.00  0.00    +0.070 A 
ATOM     11  C   UNL     1      -5.609  -4.901  -4.962  0.00  0.00    +0.028 A 
ATOM     12  C   UNL     1      -6.310  -4.280  -5.977  0.00  0.00    +0.002 A 
ATOM     13  C   UNL     1      -6.117  -4.668  -7.290  0.00  0.00    +0.000 A 
ATOM     14  C   UNL     1      -5.223  -5.678  -7.591  0.00  0.00    +0.005 A 
ATOM     15  C   UNL     1      -4.514  -6.299  -6.581  0.00  0.00    -0.025 A 
ATOM     16  C   UNL     1      -3.535  -7.396  -6.911  0.00  0.00    +0.046 C 
ENDBRANCH   9  10
BRANCH   7  17
ATOM     17  C   UNL     1      -2.732  -9.484  -2.440  0.00  0.00    +0.006 C 
ATOM     18  C   UNL     1      -3.568  -9.791  -1.196  0.00  0.00    +0.017 C 
ATOM     19  C   UNL     1      -2.980 -10.560  -3.499  0.00  0.00    +0.017 C 
ATOM     20  C   UNL     1      -1.248  -9.470  -2.066  0.00  0.00    +0.017 C 
ENDBRANCH   7  17
ENDBRANCH   3   5
BRANCH   1  21
ATOM     21  C   UNL     1      -2.493  -2.587  -1.713  0.00  0.00    +0.205 C 
BRANCH  21  22
ATOM     22  N   UNL     1      -1.809  -2.326  -0.444  0.00  0.00    -0.277 N 
ATOM     23  C   UNL     1      -2.523  -2.203   0.693  0.00  0.00    +0.307 C 
ATOM     24  O   UNL     1      -3.734  -2.308   0.665  0.00  0.00    -0.252 OA
ATOM     25  N   UNL     1      -1.894  -1.963   1.861  0.00  0.00    -0.268 N 
ATOM     26  H   UNL     1      -0.924  -1.958   1.897  0.00  0.00    +0.156 HD
BRANCH  25  27
ATOM     27  C   UNL     1      -2.640  -1.722   3.021  0.00  0.00    +0.053 A 
ATOM     28  C   UNL     1      -3.955  -1.287   2.925  0.00  0.00    +0.026 A 
ATOM     29  C   UNL     1      -4.688  -1.049   4.071  0.00  0.00    +0.022 A 
ATOM     30  C   UNL     1      -4.114  -1.244   5.315  0.00  0.00    +0.042 A 
ATOM     31  C   UNL     1      -2.803  -1.676   5.415  0.00  0.00    +0.041 A 
ATOM     32  C   UNL     1      -2.067  -1.922   4.271  0.00  0.00    +0.064 A 
ATOM     33 CL   UNL     1      -0.425  -2.472   4.396  0.00  0.00    -0.082 Cl
ATOM     34 CL   UNL     1      -5.039  -0.944   6.753  0.00  0.00    -0.083 Cl
ENDBRANCH  25  27
BRANCH  22  35
ATOM     35  C   UNL     1      -0.350  -2.200  -0.410  0.00  0.00    +0.110 C 
BRANCH  35  36
ATOM     36  C   UNL     1       0.040  -0.737  -0.627  0.00  0.00    +0.019 C 
BRANCH  36  38
ATOM     37  C   UNL     1       1.955   0.858  -0.808  0.00  0.00    +0.004 C 
ATOM     38  C   UNL     1       1.564  -0.605  -0.592  0.00  0.00    -0.002 C 
ENDBRANCH  36  38
ENDBRANCH  35  36
ENDBRANCH  22  35
ENDBRANCH  21  22
ENDBRANCH   1  21
TORSDOF 9
