REMARK  Name = ZINC63666707
REMARK  8 active torsions:
REMARK  status: ('A' for Active; 'I' for Inactive)
REMARK    1  A    between atoms: C_1  and  C_2
REMARK    2  A    between atoms: C_8  and  C_11
REMARK    3  A    between atoms: C_11  and  C_12
REMARK    4  A    between atoms: C_12  and  N_13
REMARK    5  A    between atoms: C_14  and  C_16
REMARK    6  A    between atoms: C_19  and  C_31
REMARK    7  A    between atoms: C_20  and  N_22
REMARK    8  A    between atoms: C_23  and  C_25
REMARK                            x       y       z     vdW  Elec       q    Type
REMARK                         _______ _______ _______ _____ _____    ______ ____
ROOT
ATOM      1  N   UNL     1      -1.159  -3.610   5.991  0.00  0.00    -0.311 N 
ATOM      2  C   UNL     1      -2.321  -3.602   6.675  0.00  0.00    +0.244 C 
ATOM      3  O   UNL     1      -3.279  -4.217   6.251  0.00  0.00    -0.270 OA
ATOM      4  H   UNL     1      -0.394  -3.119   6.329  0.00  0.00    +0.149 HD
ENDROOT
BRANCH   2   5
ATOM      5  C   UNL     1      -2.429  -2.843   7.939  0.00  0.00    +0.038 A 
ATOM      6  C   UNL     1      -1.331  -2.130   8.425  0.00  0.00    +0.013 A 
ATOM      7  C   UNL     1      -1.434  -1.423   9.605  0.00  0.00    +0.006 A 
ATOM      8  C   UNL     1      -2.623  -1.418  10.311  0.00  0.00    -0.029 A 
ATOM      9  C   UNL     1      -3.721  -2.124   9.837  0.00  0.00    +0.037 A 
ATOM     10  C   UNL     1      -3.630  -2.833   8.648  0.00  0.00    +0.036 A 
ATOM     11  C   UNL     1      -2.727  -0.644  11.600  0.00  0.00    +0.045 C 
BRANCH   9  12
ATOM     12  N   UNL     1      -4.922  -2.116  10.555  0.00  0.00    -0.279 N 
ATOM     13  C   UNL     1      -6.096  -2.247   9.907  0.00  0.00    +0.283 C 
ATOM     14  O   UNL     1      -6.109  -2.453   8.706  0.00  0.00    -0.266 OA
ATOM     15  H   UNL     1      -4.909  -2.017  11.520  0.00  0.00    +0.155 HD
BRANCH  13  16
ATOM     16  C   UNL     1      -7.314  -2.145  10.621  0.00  0.00    +0.188 C 
ATOM     17  C   UNL     1      -7.238  -1.805  11.918  0.00  0.00    +0.091 C 
ATOM     18  S   UNL     1      -8.702  -1.689  12.898  0.00  0.00    -0.126 S 
ATOM     19  C   UNL     1     -10.017  -1.701  11.637  0.00  0.00    +0.115 C 
ATOM     20  C   UNL     1      -9.646  -2.780  10.607  0.00  0.00    +0.240 C 
ATOM     21  O   UNL     1      -8.449  -2.393   9.939  0.00  0.00    -0.486 OA
ENDBRANCH  13  16
ENDBRANCH   9  12
ENDBRANCH   2   5
BRANCH   1  22
ATOM     22  C   UNL     1      -1.052  -4.361   4.738  0.00  0.00    +0.109 C 
BRANCH  22  23
ATOM     23  C   UNL     1       0.360  -4.206   4.170  0.00  0.00    +0.052 C 
BRANCH  23  31
ATOM     24  C   UNL     1      -0.457  -1.618  -0.762  0.00  0.00    +0.044 C 
ATOM     25  C   UNL     1      -0.125  -2.987  -0.227  0.00  0.00    -0.050 A 
ATOM     26  C   UNL     1       0.067  -4.044  -1.128  0.00  0.00    +0.005 A 
ATOM     27  C   UNL     1       0.366  -5.298  -0.728  0.00  0.00    +0.026 A 
ATOM     28  C   UNL     1       0.500  -5.598   0.656  0.00  0.00    +0.043 A 
ATOM     29  N   UNL     1       0.779  -6.715   1.284  0.00  0.00    -0.380 N 
ATOM     30  C   UNL     1       0.790  -6.449   2.727  0.00  0.00    +0.144 C 
ATOM     31  C   UNL     1       0.471  -4.979   2.881  0.00  0.00    -0.040 C 
ATOM     32  C   UNL     1       0.303  -4.499   1.627  0.00  0.00    -0.001 A 
ATOM     33  C   UNL     1      -0.014  -3.163   1.109  0.00  0.00    +0.013 A 
ATOM     34  H   UNL     1       0.950  -7.572   0.865  0.00  0.00    +0.160 HD
ENDBRANCH  23  31
ENDBRANCH  22  23
ENDBRANCH   1  22
TORSDOF 6
