REMARK  Name = ZINC18103774
REMARK  12 active torsions:
REMARK  status: ('A' for Active; 'I' for Inactive)
REMARK    1  A    between atoms: C_1  and  C_2
REMARK    2  A    between atoms: C_6  and  O_9
REMARK    3  A    between atoms: C_7  and  C_8
REMARK    4  A    between atoms: O_9  and  C_10
REMARK    5  A    between atoms: C_10  and  C_12
REMARK    6  A    between atoms: C_10  and  C_13
REMARK    7  A    between atoms: N_15  and  N_16
REMARK    8  A    between atoms: C_17  and  C_19
REMARK    9  A    between atoms: C_23  and  N_25
REMARK   10  A    between atoms: N_25  and  S_26
REMARK   11  A    between atoms: S_26  and  C_29
REMARK   12  A    between atoms: C_32  and  C_36
REMARK                            x       y       z     vdW  Elec       q    Type
REMARK                         _______ _______ _______ _____ _____    ______ ____
ROOT
ATOM      1  N   UNL     1      -1.292  -4.378  -1.731  0.00  0.00    -0.230 N 
ATOM      2  C   UNL     1      -1.124  -3.041  -1.779  0.00  0.00    +0.260 C 
ATOM      3  O   UNL     1      -1.711  -2.385  -2.616  0.00  0.00    -0.269 OA
ATOM      4  H   UNL     1      -0.823  -4.902  -1.063  0.00  0.00    +0.173 HD
ENDROOT
BRANCH   2   5
ATOM      5  C   UNL     1      -0.225  -2.374  -0.813  0.00  0.00    +0.040 A 
ATOM      6  C   UNL     1       0.451  -3.126   0.150  0.00  0.00    +0.013 A 
ATOM      7  C   UNL     1       1.288  -2.501   1.050  0.00  0.00    +0.003 A 
ATOM      8  C   UNL     1       1.462  -1.131   1.004  0.00  0.00    +0.024 A 
ATOM      9  C   UNL     1       0.795  -0.373   0.049  0.00  0.00    +0.049 A 
ATOM     10  C   UNL     1      -0.054  -0.991  -0.857  0.00  0.00    +0.037 A 
BRANCH   9  11
ATOM     11  N   UNL     1       0.974   1.012   0.006  0.00  0.00    -0.216 N 
ATOM     12  H   UNL     1       0.207   1.597  -0.099  0.00  0.00    +0.174 HD
BRANCH  11  13
ATOM     13  S   UNL     1       2.495   1.655   0.127  0.00  0.00    +0.072 S 
ATOM     14  O   UNL     1       2.350   3.064   0.024  0.00  0.00    -0.150 OA
ATOM     15  O   UNL     1       3.111   1.032   1.246  0.00  0.00    -0.150 OA
BRANCH  13  16
ATOM     16  C   UNL     1       3.395   1.135  -1.296  0.00  0.00    +0.111 A 
ATOM     17  C   UNL     1       4.118  -0.043  -1.265  0.00  0.00    +0.029 A 
ATOM     18  C   UNL     1       4.820  -0.455  -2.382  0.00  0.00    +0.008 A 
ATOM     19  C   UNL     1       4.808   0.317  -3.529  0.00  0.00    -0.015 A 
ATOM     20  C   UNL     1       4.089   1.500  -3.560  0.00  0.00    +0.128 A 
ATOM     21  C   UNL     1       3.382   1.908  -2.441  0.00  0.00    +0.067 A 
ATOM     22  F   UNL     1       4.077   2.255  -4.680  0.00  0.00    -0.205 F 
ATOM     23  C   UNL     1       5.578  -0.129  -4.745  0.00  0.00    +0.047 C 
ENDBRANCH  13  16
ENDBRANCH  11  13
ENDBRANCH   9  11
ENDBRANCH   2   5
BRANCH   1  26
ATOM     24  C   UNL     1      -2.311  -6.346  -2.599  0.00  0.00    +0.270 C 
ATOM     25  O   UNL     1      -1.725  -7.002  -1.764  0.00  0.00    -0.270 OA
ATOM     26  N   UNL     1      -2.143  -5.010  -2.647  0.00  0.00    -0.231 N 
ATOM     27  H   UNL     1      -2.612  -4.486  -3.315  0.00  0.00    +0.173 HD
BRANCH  24  28
ATOM     28  C   UNL     1      -3.227  -7.027  -3.584  0.00  0.00    +0.257 C 
ATOM     29  C   UNL     1      -4.644  -6.471  -3.430  0.00  0.00    +0.062 C 
BRANCH  28  30
ATOM     30  O   UNL     1      -3.237  -8.433  -3.332  0.00  0.00    -0.480 OA
BRANCH  30  36
ATOM     31  C   UNL     1      -3.719 -12.942  -5.137  0.00  0.00    +0.044 C 
ATOM     32  C   UNL     1      -3.801 -11.445  -5.293  0.00  0.00    -0.044 A 
ATOM     33  C   UNL     1      -4.199 -10.896  -6.498  0.00  0.00    +0.004 A 
ATOM     34  C   UNL     1      -4.276  -9.524  -6.643  0.00  0.00    +0.004 A 
ATOM     35  C   UNL     1      -3.960  -8.697  -5.583  0.00  0.00    +0.046 A 
ATOM     36  C   UNL     1      -3.554  -9.245  -4.375  0.00  0.00    +0.125 A 
ATOM     37  C   UNL     1      -3.478 -10.623  -4.231  0.00  0.00    -0.006 A 
ATOM     38  C   UNL     1      -3.043 -11.221  -2.918  0.00  0.00    +0.048 C 
ENDBRANCH  30  36
ENDBRANCH  28  30
ENDBRANCH  24  28
ENDBRANCH   1  26
TORSDOF 8
