REMARK  Name = ZINC02050270
REMARK  9 active torsions:
REMARK  status: ('A' for Active; 'I' for Inactive)
REMARK    1  A    between atoms: C_1  and  C_2
REMARK    2  A    between atoms: C_4  and  C_28
REMARK    3  A    between atoms: N_7  and  C_8
REMARK    4  A    between atoms: C_8  and  C_9
REMARK    5  A    between atoms: C_8  and  C_13
REMARK    6  A    between atoms: C_8  and  N_17
REMARK    7  A    between atoms: C_9  and  O_11
REMARK    8  A    between atoms: O_11  and  C_12
REMARK    9  A    between atoms: C_18  and  C_20
REMARK                            x       y       z     vdW  Elec       q    Type
REMARK                         _______ _______ _______ _____ _____    ______ ____
ROOT
ATOM      1  C   UNL     1      -0.616   1.337   0.978  0.00  0.00    +0.296 C 
ENDROOT
BRANCH   1   8
ATOM      2  C   UNL     1      -2.277   4.563   4.596  0.00  0.00    +0.044 C 
ATOM      3  C   UNL     1      -1.435   3.313   4.587  0.00  0.00    -0.046 A 
ATOM      4  C   UNL     1      -0.929   2.789   5.769  0.00  0.00    +0.024 A 
ATOM      5  C   UNL     1      -0.162   1.643   5.727  0.00  0.00    +0.015 A 
ATOM      6  C   UNL     1      -0.369   1.510   3.432  0.00  0.00    +0.099 A 
ATOM      7  C   UNL     1      -1.145   2.665   3.400  0.00  0.00    +0.045 A 
ATOM      8  N   UNL     1      -0.075   0.846   2.247  0.00  0.00    -0.294 N 
ATOM      9  C   UNL     1       0.390   1.069   7.006  0.00  0.00    +0.063 C 
ATOM     10  H   UNL     1       0.490   0.057   2.261  0.00  0.00    +0.150 HD
ATOM     11  N   UNL     1       0.139   0.976   4.580  0.00  0.00    -0.347 N 
ATOM     12  H   UNL     1       0.713   0.125   4.578  0.00  0.00    +0.167 HD
ENDBRANCH   1   8
BRANCH   1  13
ATOM     13  C   UNL     1      -0.028   0.522  -0.177  0.00  0.00    +0.438 C 
ATOM     14  F   UNL     1      -0.240  -0.840   0.058  0.00  0.00    -0.166 F 
ATOM     15  F   UNL     1       1.346   0.771  -0.270  0.00  0.00    -0.166 F 
ATOM     16  F   UNL     1      -0.651   0.892  -1.373  0.00  0.00    -0.166 F 
ENDBRANCH   1  13
BRANCH   1  17
ATOM     17  N   UNL     1      -0.263   2.748   0.809  0.00  0.00    -0.274 N 
ATOM     18  C   UNL     1      -0.624   3.405  -0.311  0.00  0.00    +0.248 C 
ATOM     19  O   UNL     1      -1.333   2.858  -1.134  0.00  0.00    -0.270 OA
ATOM     20  H   UNL     1       0.231   3.211   1.504  0.00  0.00    +0.152 HD
BRANCH  18  21
ATOM     21  C   UNL     1      -0.160   4.788  -0.539  0.00  0.00    +0.055 A 
ATOM     22  C   UNL     1       0.653   5.419   0.405  0.00  0.00    +0.016 A 
ATOM     23  C   UNL     1       1.084   6.710   0.186  0.00  0.00    +0.021 A 
ATOM     24  C   UNL     1       0.711   7.383  -0.966  0.00  0.00    +0.042 A 
ATOM     25  C   UNL     1      -0.095   6.764  -1.906  0.00  0.00    +0.040 A 
ATOM     26  C   UNL     1      -0.528   5.469  -1.702  0.00  0.00    +0.054 A 
ATOM     27 CL   UNL     1      -1.534   4.691  -2.885  0.00  0.00    -0.083 Cl
ATOM     28 CL   UNL     1       1.258   9.009  -1.233  0.00  0.00    -0.083 Cl
ENDBRANCH  18  21
ENDBRANCH   1  17
BRANCH   1  29
ATOM     29  C   UNL     1      -2.116   1.191   0.982  0.00  0.00    +0.359 C 
ATOM     30  O   UNL     1      -2.653   0.491   1.807  0.00  0.00    -0.246 OA
BRANCH  29  31
ATOM     31  O   UNL     1      -2.856   1.839   0.068  0.00  0.00    -0.465 OA
ATOM     32  C   UNL     1      -4.294   1.653   0.132  0.00  0.00    +0.280 C 
ENDBRANCH  29  31
ENDBRANCH   1  29
TORSDOF 6
