REMARK  Name = ZINC45599532
REMARK  7 active torsions:
REMARK  status: ('A' for Active; 'I' for Inactive)
REMARK    1  A    between atoms: C_1  and  C_2
REMARK    2  A    between atoms: C_3  and  C_31
REMARK    3  A    between atoms: N_4  and  C_24
REMARK    4  A    between atoms: C_5  and  S_7
REMARK    5  A    between atoms: S_7  and  C_8
REMARK    6  A    between atoms: C_8  and  C_9
REMARK    7  A    between atoms: C_24  and  C_25
REMARK                            x       y       z     vdW  Elec       q    Type
REMARK                         _______ _______ _______ _____ _____    ______ ____
ROOT
ATOM      1  C   UNL     1       0.082  -3.731   4.599  0.00  0.00    +0.143 A 
ATOM      2  N   UNL     1      -1.062  -4.228   5.035  0.00  0.00    -0.216 NA
ATOM      3  C   UNL     1      -1.115  -5.302   5.805  0.00  0.00    +0.128 A 
ATOM      4  C   UNL     1       0.098  -5.947   6.178  0.00  0.00    +0.051 A 
ATOM      5  C   UNL     1       0.279  -7.139   7.014  0.00  0.00    -0.025 A 
ATOM      6  C   UNL     1       1.547  -7.546   7.220  0.00  0.00    -0.004 A 
ATOM      7  S   UNL     1       2.558  -6.398   6.321  0.00  0.00    -0.073 S 
ATOM      8  C   UNL     1       1.274  -5.360   5.674  0.00  0.00    +0.114 A 
ATOM      9  N   UNL     1       1.237  -4.288   4.907  0.00  0.00    -0.224 NA
ATOM     10  C   UNL     1       2.016  -8.709   8.039  0.00  0.00    +0.043 C 
ATOM     11  C   UNL     1       1.211  -9.957   7.655  0.00  0.00    +0.005 C 
ATOM     12  C   UNL     1      -0.027 -10.023   8.543  0.00  0.00    +0.001 C 
ATOM     13  C   UNL     1      -0.508  -8.611   8.873  0.00  0.00    +0.005 C 
ATOM     14  C   UNL     1      -0.920  -7.876   7.604  0.00  0.00    +0.037 C 
ATOM     15  N   UNL     1      -2.333  -5.792   6.242  0.00  0.00    -0.343 N 
ATOM     16  H   UNL     1      -2.428  -6.734   6.456  0.00  0.00    +0.144 HD
ATOM     17  H   UNL     1      -3.091  -5.194   6.335  0.00  0.00    +0.144 HD
ENDROOT
BRANCH   1  18
ATOM     18  C   UNL     1       0.066  -2.503   3.724  0.00  0.00    +0.153 C 
BRANCH  18  19
ATOM     19  S   UNL     1      -0.048  -3.002   1.984  0.00  0.00    -0.082 S 
BRANCH  19  24
ATOM     20  C   UNL     1       0.033   2.139   0.865  0.00  0.00    +0.065 C 
ATOM     21  C   UNL     1      -0.021   0.646   0.665  0.00  0.00    +0.034 A 
ATOM     22  C   UNL     1      -0.107   0.013  -0.517  0.00  0.00    +0.037 A 
ATOM     23  N   UNL     1      -0.129  -1.337  -0.249  0.00  0.00    -0.322 N 
ATOM     24  C   UNL     1      -0.056  -1.476   1.103  0.00  0.00    +0.148 A 
ATOM     25  N   UNL     1       0.014  -0.279   1.639  0.00  0.00    -0.338 N 
ATOM     26  C   UNL     1      -0.167   0.658  -1.877  0.00  0.00    +0.065 C 
ATOM     27  H   UNL     1       0.078  -0.093   2.589  0.00  0.00    +0.168 HD
BRANCH  23  28
ATOM     28  C   UNL     1      -0.216  -2.420  -1.232  0.00  0.00    +0.155 C 
BRANCH  28  29
ATOM     29  C   UNL     1       1.193  -2.837  -1.658  0.00  0.00    +0.138 C 
ATOM     30  C   UNL     1       1.110  -3.892  -2.782  0.00  0.00    +0.035 C 
ATOM     31  C   UNL     1       2.259  -4.866  -2.405  0.00  0.00    +0.031 C 
ATOM     32  C   UNL     1       2.205  -4.800  -0.858  0.00  0.00    +0.160 C 
ATOM     33  O   UNL     1       1.878  -3.434  -0.551  0.00  0.00    -0.375 OA
ENDBRANCH  28  29
ENDBRANCH  23  28
ENDBRANCH  19  24
ENDBRANCH  18  19
ENDBRANCH   1  18
TORSDOF 5
