REMARK  Name = ZINC63194399
REMARK  6 active torsions:
REMARK  status: ('A' for Active; 'I' for Inactive)
REMARK    1  A    between atoms: N_10  and  S_11
REMARK    2  A    between atoms: S_11  and  C_14
REMARK    3  A    between atoms: C_17  and  C_20
REMARK    4  A    between atoms: N_22  and  N_23
REMARK    5  A    between atoms: C_24  and  C_26
REMARK    6  A    between atoms: C_26  and  C_27
REMARK                            x       y       z     vdW  Elec       q    Type
REMARK                         _______ _______ _______ _____ _____    ______ ____
ROOT
ATOM      1  C   UNL     1       5.592   0.908   1.108  0.00  0.00    +0.109 A 
ATOM      2  C   UNL     1       5.168   2.174   1.470  0.00  0.00    +0.029 A 
ATOM      3  C   UNL     1       5.612   2.743   2.646  0.00  0.00    +0.015 A 
ATOM      4  C   UNL     1       6.489   2.039   3.471  0.00  0.00    +0.038 A 
ATOM      5  C   UNL     1       6.913   0.761   3.100  0.00  0.00    +0.015 A 
ATOM      6  C   UNL     1       6.458   0.202   1.924  0.00  0.00    +0.029 A 
ENDROOT
BRANCH   4   7
ATOM      7  C   UNL     1       6.969   2.643   4.733  0.00  0.00    +0.260 C 
ATOM      8  O   UNL     1       6.598   3.755   5.053  0.00  0.00    -0.269 OA
ATOM      9  N   UNL     1       7.816   1.960   5.527  0.00  0.00    -0.230 N 
ATOM     10  H   UNL     1       8.112   1.072   5.272  0.00  0.00    +0.173 HD
BRANCH   9  11
ATOM     11  N   UNL     1       8.271   2.532   6.723  0.00  0.00    -0.234 N 
ATOM     12  C   UNL     1       9.118   1.849   7.518  0.00  0.00    +0.233 C 
ATOM     13  O   UNL     1       9.488   0.739   7.198  0.00  0.00    -0.274 OA
ATOM     14  H   UNL     1       7.975   3.420   6.978  0.00  0.00    +0.173 HD
BRANCH  12  15
ATOM     15  C   UNL     1       9.607   2.464   8.803  0.00  0.00    +0.130 C 
BRANCH  15  16
ATOM     16  C   UNL     1      10.535   1.503   9.499  0.00  0.00    -0.033 C 
ATOM     17  C   UNL     1      11.886   1.479   9.425  0.00  0.00    -0.001 A 
ATOM     18  C   UNL     1      12.857   2.308   8.702  0.00  0.00    +0.010 A 
ATOM     19  C   UNL     1      14.175   2.035   8.827  0.00  0.00    +0.001 A 
ATOM     20  C   UNL     1      14.636   0.981   9.628  0.00  0.00    +0.002 A 
ATOM     21  C   UNL     1      13.806   0.176  10.323  0.00  0.00    +0.026 A 
ATOM     22  C   UNL     1      12.398   0.373  10.265  0.00  0.00    +0.043 A 
ATOM     23  N   UNL     1      11.404  -0.262  10.836  0.00  0.00    -0.380 N 
ATOM     24  C   UNL     1      10.146   0.374  10.427  0.00  0.00    +0.145 C 
ATOM     25  H   UNL     1      11.486  -1.023  11.432  0.00  0.00    +0.160 HD
ENDBRANCH  15  16
ENDBRANCH  12  15
ENDBRANCH   9  11
ENDBRANCH   4   7
BRANCH   1  26
ATOM     26  S   UNL     1       5.021   0.188  -0.396  0.00  0.00    +0.075 S 
ATOM     27  O   UNL     1       5.986  -0.785  -0.772  0.00  0.00    -0.150 OA
ATOM     28  O   UNL     1       4.652   1.265  -1.247  0.00  0.00    -0.150 OA
BRANCH  26  38
ATOM     29  C   UNL     1      -0.019   1.372  -0.013  0.00  0.00    +0.000 A 
ATOM     30  C   UNL     1       1.166   2.085  -0.020  0.00  0.00    +0.002 A 
ATOM     31  C   UNL     1       2.372   1.414  -0.030  0.00  0.00    +0.025 A 
ATOM     32  C   UNL     1       2.395   0.024  -0.031  0.00  0.00    +0.054 A 
ATOM     33  C   UNL     1       1.207  -0.690  -0.020  0.00  0.00    -0.025 A 
ATOM     34  C   UNL     1       0.001  -0.009  -0.013  0.00  0.00    +0.005 A 
ATOM     35  C   UNL     1       1.194  -2.196  -0.011  0.00  0.00    +0.038 C 
ATOM     36  C   UNL     1       2.526  -2.746  -0.520  0.00  0.00    +0.025 C 
ATOM     37  C   UNL     1       3.668  -2.075   0.254  0.00  0.00    +0.132 C 
ATOM     38  N   UNL     1       3.629  -0.637  -0.046  0.00  0.00    -0.203 N 
ENDBRANCH  26  38
ENDBRANCH   1  26
TORSDOF 6
