REMARK  Name = ZINC20028776
REMARK  15 active torsions:
REMARK  status: ('A' for Active; 'I' for Inactive)
REMARK    1  A    between atoms: C_1  and  C_2
REMARK    2  A    between atoms: C_2  and  C_3
REMARK    3  A    between atoms: C_8  and  N_9
REMARK    4  A    between atoms: C_10  and  C_12
REMARK    5  A    between atoms: C_12  and  S_13
REMARK    6  A    between atoms: S_13  and  C_14
REMARK    7  A    between atoms: C_15  and  C_36
REMARK    8  A    between atoms: C_16  and  C_29
REMARK    9  A    between atoms: C_18  and  C_22
REMARK   10  A    between atoms: C_19  and  C_21
REMARK   11  A    between atoms: C_22  and  O_24
REMARK   12  A    between atoms: O_24  and  C_25
REMARK   13  A    between atoms: C_25  and  C_26
REMARK   14  A    between atoms: C_25  and  C_27
REMARK   15  A    between atoms: C_25  and  C_28
REMARK                            x       y       z     vdW  Elec       q    Type
REMARK                         _______ _______ _______ _____ _____    ______ ____
ROOT
ATOM      1  C   UNL     1      -1.729  -0.333   0.048  0.00  0.00    +0.080 C 
ATOM      2  C   UNL     1      -2.172  -1.619   0.045  0.00  0.00    +0.069 C 
ATOM      3  C   UNL     1      -3.639  -1.938   0.083  0.00  0.00    +0.100 C 
ATOM      4  C   UNL     1      -4.457  -0.732  -0.279  0.00  0.00    +0.066 C 
ATOM      5  C   UNL     1      -3.933   0.506  -0.267  0.00  0.00    +0.016 C 
ATOM      6  N   UNL     1      -2.624   0.714   0.068  0.00  0.00    -0.312 N 
ATOM      7  C   UNL     1      -4.802   1.683  -0.629  0.00  0.00    +0.061 C 
ATOM      8  H   UNL     1      -2.286   1.721   0.355  0.00  0.00    +0.152 HD
ENDROOT
BRANCH   3   9
ATOM      9  C   UNL     1      -4.017  -2.395   1.469  0.00  0.00    -0.035 A 
ATOM     10  C   UNL     1      -3.851  -1.545   2.546  0.00  0.00    +0.006 A 
ATOM     11  C   UNL     1      -4.202  -1.961   3.816  0.00  0.00    +0.020 A 
ATOM     12  C   UNL     1      -4.709  -3.233   4.011  0.00  0.00    +0.041 A 
ATOM     13  C   UNL     1      -4.870  -4.086   2.934  0.00  0.00    +0.020 A 
ATOM     14  C   UNL     1      -4.524  -3.667   1.663  0.00  0.00    +0.006 A 
ATOM     15 CL   UNL     1      -5.143  -3.760   5.608  0.00  0.00    -0.084 Cl
ENDBRANCH   3   9
BRANCH   4  16
ATOM     16  C   UNL     1      -5.812  -0.902  -0.641  0.00  0.00    +0.338 C 
ATOM     17  O   UNL     1      -6.489   0.065  -0.936  0.00  0.00    -0.245 OA
BRANCH  16  18
ATOM     18  O   UNL     1      -6.356  -2.137  -0.658  0.00  0.00    -0.456 OA
BRANCH  18  19
ATOM     19  C   UNL     1      -7.731  -2.235  -1.034  0.00  0.00    +0.106 C 
ATOM     20  C   UNL     1      -7.914  -1.685  -2.450  0.00  0.00    +0.055 C 
ATOM     21  C   UNL     1      -8.167  -3.701  -0.996  0.00  0.00    +0.055 C 
ATOM     22  C   UNL     1      -8.586  -1.423  -0.058  0.00  0.00    +0.055 C 
ENDBRANCH  18  19
ENDBRANCH  16  18
ENDBRANCH   4  16
BRANCH   2  23
ATOM     23  C   UNL     1      -1.221  -2.689   0.009  0.00  0.00    +0.098 C 
ATOM     24  N   UNL     1      -0.466  -3.538  -0.019  0.00  0.00    -0.191 NA
ENDBRANCH   2  23
BRANCH   1  25
ATOM     25  S   UNL     1       0.002  -0.004   0.019  0.00  0.00    -0.100 S 
BRANCH  25  26
ATOM     26  C   UNL     1      -0.023   1.806   0.027  0.00  0.00    +0.171 C 
BRANCH  26  28
ATOM     27  N   UNL     1       1.620   3.656   0.006  0.00  0.00    -0.285 N 
ATOM     28  C   UNL     1       1.391   2.327   0.005  0.00  0.00    +0.227 C 
ATOM     29  O   UNL     1       2.323   1.552  -0.015  0.00  0.00    -0.275 OA
ATOM     30  H   UNL     1       0.777   4.359  -0.068  0.00  0.00    +0.155 HD
BRANCH  27  36
ATOM     31  C   UNL     1       3.242   5.400  -0.390  0.00  0.00    -0.026 A 
ATOM     32  C   UNL     1       4.535   5.876  -0.294  0.00  0.00    +0.005 A 
ATOM     33  C   UNL     1       5.518   5.098   0.292  0.00  0.00    +0.000 A 
ATOM     34  C   UNL     1       5.209   3.843   0.783  0.00  0.00    +0.002 A 
ATOM     35  C   UNL     1       3.917   3.364   0.694  0.00  0.00    +0.023 A 
ATOM     36  C   UNL     1       2.929   4.140   0.102  0.00  0.00    +0.037 A 
BRANCH  31  38
ATOM     37  C   UNL     1       1.418   7.020   0.056  0.00  0.00    +0.009 C 
ATOM     38  C   UNL     1       2.172   6.248  -1.029  0.00  0.00    +0.033 C 
ENDBRANCH  31  38
ENDBRANCH  27  36
ENDBRANCH  26  28
ENDBRANCH  25  26
ENDBRANCH   1  25
TORSDOF 10
