REMARK  Name = ZINC39012079
REMARK  9 active torsions:
REMARK  status: ('A' for Active; 'I' for Inactive)
REMARK    1  A    between atoms: C_1  and  C_2
REMARK    2  A    between atoms: N_4  and  C_5
REMARK    3  A    between atoms: C_8  and  N_11
REMARK    4  A    between atoms: C_12  and  C_14
REMARK    5  A    between atoms: C_14  and  S_15
REMARK    6  A    between atoms: S_15  and  C_16
REMARK    7  A    between atoms: C_20  and  C_24
REMARK    8  A    between atoms: N_22  and  N_23
REMARK    9  A    between atoms: C_27  and  C_30
REMARK                            x       y       z     vdW  Elec       q    Type
REMARK                         _______ _______ _______ _____ _____    ______ ____
ROOT
ATOM      1  C   UNL     1      -4.228 -11.178  -0.475  0.00  0.00    +0.214 C 
ATOM      2  N   UNL     1      -3.210 -11.523  -1.502  0.00  0.00    -0.228 NA
ATOM      3  N   UNL     1      -2.783 -12.874  -1.106  0.00  0.00    -0.234 NA
ATOM      4  C   UNL     1      -2.767 -12.838   0.374  0.00  0.00    +0.185 C 
ATOM      5  N   UNL     1      -3.694 -11.757   0.779  0.00  0.00    -0.197 NA
ATOM      6  H   UNL     1      -3.616 -11.528  -2.426  0.00  0.00    +0.143 HD
ATOM      7  H   UNL     1      -3.429 -13.571  -1.444  0.00  0.00    +0.143 HD
ENDROOT
BRANCH   4   8
ATOM      8  C   UNL     1      -3.248 -14.177   0.937  0.00  0.00    +0.187 C 
ATOM      9  C   UNL     1      -2.292 -15.293   0.555  0.00  0.00    +0.034 C 
ATOM     10  C   UNL     1      -3.048 -16.127  -0.184  0.00  0.00    +0.091 C 
ATOM     11  N   UNL     1      -4.317 -15.651  -0.287  0.00  0.00    -0.154 NA
ATOM     12  N   UNL     1      -4.513 -14.583   0.302  0.00  0.00    -0.176 NA
BRANCH  10  13
ATOM     13  C   UNL     1      -2.564 -17.387  -0.799  0.00  0.00    +0.002 A 
ATOM     14  C   UNL     1      -1.240 -17.786  -0.626  0.00  0.00    +0.011 A 
ATOM     15  C   UNL     1      -0.795 -18.959  -1.201  0.00  0.00    +0.020 A 
ATOM     16  C   UNL     1      -1.661 -19.739  -1.948  0.00  0.00    +0.041 A 
ATOM     17  C   UNL     1      -2.977 -19.347  -2.123  0.00  0.00    +0.020 A 
ATOM     18  C   UNL     1      -3.433 -18.179  -1.548  0.00  0.00    +0.011 A 
ATOM     19 CL   UNL     1      -1.094 -21.213  -2.669  0.00  0.00    -0.084 Cl
ENDBRANCH  10  13
ENDBRANCH   4   8
BRANCH   5  20
ATOM     20  N   UNL     1      -3.004 -10.748   1.567  0.00  0.00    -0.264 NA
ATOM     21  H   UNL     1      -3.646 -10.041   1.891  0.00  0.00    +0.137 HD
ATOM     22  H   UNL     1      -2.509 -11.168   2.339  0.00  0.00    +0.137 HD
ENDBRANCH   5  20
BRANCH   1  23
ATOM     23  S   UNL     1      -4.393  -9.378  -0.324  0.00  0.00    -0.115 S 
BRANCH  23  24
ATOM     24  C   UNL     1      -5.469  -8.918  -1.709  0.00  0.00    +0.168 C 
BRANCH  24  26
ATOM     25  N   UNL     1      -6.347  -6.843  -2.731  0.00  0.00    -0.285 N 
ATOM     26  C   UNL     1      -5.591  -7.417  -1.774  0.00  0.00    +0.227 C 
ATOM     27  O   UNL     1      -5.009  -6.726  -0.964  0.00  0.00    -0.275 OA
ATOM     28  H   UNL     1      -6.757  -7.390  -3.418  0.00  0.00    +0.155 HD
BRANCH  25  32
ATOM     29  C   UNL     1      -6.923  -2.713  -2.733  0.00  0.00    +0.033 A 
ATOM     30  C   UNL     1      -7.948  -3.557  -3.138  0.00  0.00    +0.025 A 
ATOM     31  C   UNL     1      -7.758  -4.925  -3.138  0.00  0.00    +0.025 A 
ATOM     32  C   UNL     1      -6.540  -5.456  -2.732  0.00  0.00    +0.034 A 
ATOM     33  C   UNL     1      -5.515  -4.611  -2.326  0.00  0.00    +0.025 A 
ATOM     34  C   UNL     1      -5.704  -3.244  -2.332  0.00  0.00    +0.025 A 
BRANCH  29  38
ATOM     35  C   UNL     1      -6.332   0.982  -3.158  0.00  0.00    +0.109 C 
ATOM     36  C   UNL     1      -6.098  -0.503  -3.053  0.00  0.00    +0.214 C 
ATOM     37  O   UNL     1      -4.992  -0.958  -3.256  0.00  0.00    -0.276 OA
ATOM     38  N   UNL     1      -7.117  -1.326  -2.734  0.00  0.00    -0.286 N 
ATOM     39  H   UNL     1      -7.984  -0.957  -2.504  0.00  0.00    +0.155 HD
ENDBRANCH  29  38
ENDBRANCH  25  32
ENDBRANCH  24  26
ENDBRANCH  23  24
ENDBRANCH   1  23
TORSDOF 8
