REMARK  Name = ZINC37930471
REMARK  6 active torsions:
REMARK  status: ('A' for Active; 'I' for Inactive)
REMARK    1  A    between atoms: C_1  and  N_2
REMARK    2  A    between atoms: C_5  and  N_8
REMARK    3  A    between atoms: N_8  and  C_9
REMARK    4  A    between atoms: N_8  and  C_10
REMARK    5  A    between atoms: C_13  and  N_19
REMARK    6  A    between atoms: C_15  and  C_16
REMARK                            x       y       z     vdW  Elec       q    Type
REMARK                         _______ _______ _______ _____ _____    ______ ____
ROOT
ATOM      1  C   UNL     1       2.517  -4.636  -0.168  0.00  0.00    +0.044 A 
ATOM      2  C   UNL     1       3.153  -5.129   0.965  0.00  0.00    +0.026 A 
ATOM      3  C   UNL     1       4.142  -6.083   0.844  0.00  0.00    +0.024 A 
ATOM      4  C   UNL     1       4.512  -6.559  -0.411  0.00  0.00    +0.025 A 
ATOM      5  C   UNL     1       3.889  -6.080  -1.549  0.00  0.00    +0.039 A 
ATOM      6  C   UNL     1       2.881  -5.116  -1.437  0.00  0.00    +0.086 A 
ENDROOT
BRANCH   6   7
ATOM      7  C   UNL     1       2.209  -4.605  -2.641  0.00  0.00    +0.388 C 
ATOM      8  O   UNL     1       2.602  -4.941  -3.750  0.00  0.00    -0.241 OA
ATOM      9  O   UNL     1       1.258  -3.843  -2.534  0.00  0.00    -0.241 OA
ENDBRANCH   6   7
BRANCH   4  10
ATOM     10  N   UNL     1       5.518  -7.527  -0.521  0.00  0.00    -0.358 N 
ATOM     11  H   UNL     1       5.955  -7.865   0.276  0.00  0.00    +0.142 HD
ATOM     12  H   UNL     1       5.776  -7.860  -1.395  0.00  0.00    +0.142 HD
ENDBRANCH   4  10
BRANCH   1  13
ATOM     13  N   UNL     1       1.521  -3.675  -0.045  0.00  0.00    -0.329 N 
ATOM     14  C   UNL     1       0.115  -4.080   0.015  0.00  0.00    +0.129 C 
BRANCH  13  19
ATOM     15  C   UNL     1       1.254   1.934   0.490  0.00  0.00    -0.096 C 
ATOM     16  N   UNL     1       1.021   0.487   0.399  0.00  0.00    +0.378 N 
ATOM     17  C   UNL     1       1.431   0.009  -0.927  0.00  0.00    -0.077 C 
ATOM     18  C   UNL     1       1.116  -1.482  -1.056  0.00  0.00    +0.004 C 
ATOM     19  C   UNL     1       1.877  -2.255   0.024  0.00  0.00    +0.070 C 
ATOM     20  C   UNL     1       1.498  -1.699   1.400  0.00  0.00    +0.004 C 
ATOM     21  C   UNL     1       1.799  -0.199   1.438  0.00  0.00    -0.077 C 
ATOM     22  H   UNL     1       0.040   0.296   0.534  0.00  0.00    -0.082 HD
ENDBRANCH  13  19
ENDBRANCH   1  13
TORSDOF 4
