REMARK  Name = ZINC59915391
REMARK  11 active torsions:
REMARK  status: ('A' for Active; 'I' for Inactive)
REMARK    1  A    between atoms: C_1  and  C_2
REMARK    2  A    between atoms: C_2  and  C_3
REMARK    3  A    between atoms: C_3  and  C_4
REMARK    4  A    between atoms: C_4  and  C_5
REMARK    5  A    between atoms: C_5  and  C_27
REMARK    6  A    between atoms: N_6  and  N_7
REMARK    7  A    between atoms: C_11  and  S_14
REMARK    8  A    between atoms: N_12  and  N_13
REMARK    9  A    between atoms: S_14  and  C_15
REMARK   10  A    between atoms: C_15  and  C_16
REMARK   11  A    between atoms: N_18  and  C_19
REMARK                            x       y       z     vdW  Elec       q    Type
REMARK                         _______ _______ _______ _____ _____    ______ ____
ROOT
ATOM      1  N   UNL     1      -4.612  -3.671  -1.005  0.00  0.00    -0.204 N 
ATOM      2  C   UNL     1      -5.094  -4.390  -2.090  0.00  0.00    +0.254 A 
ATOM      3  N   UNL     1      -4.426  -4.681  -3.179  0.00  0.00    -0.109 NA
ATOM      4  N   UNL     1      -5.271  -5.416  -4.022  0.00  0.00    -0.119 NA
ATOM      5  C   UNL     1      -6.428  -5.550  -3.418  0.00  0.00    +0.210 A 
ATOM      6  N   UNL     1      -6.347  -4.925  -2.207  0.00  0.00    -0.211 N 
ATOM      7  H   UNL     1      -5.183  -3.509  -0.237  0.00  0.00    +0.177 HD
ENDROOT
BRANCH   1   9
ATOM      8  C   UNL     1      -2.856  -2.514  -0.017  0.00  0.00    +0.034 C 
ATOM      9  N   UNL     1      -3.301  -3.178  -1.018  0.00  0.00    -0.189 NA
ATOM     10  C   UNL     1      -3.743  -2.263   1.175  0.00  0.00    +0.062 C 
BRANCH   8  11
ATOM     11  C   UNL     1      -1.445  -1.984  -0.032  0.00  0.00    +0.052 C 
BRANCH  11  12
ATOM     12  C   UNL     1      -1.475  -0.455  -0.031  0.00  0.00    +0.006 C 
BRANCH  12  14
ATOM     13  C   UNL     1      -0.073   1.613  -0.045  0.00  0.00    +0.004 C 
ATOM     14  C   UNL     1      -0.043   0.084  -0.045  0.00  0.00    -0.003 C 
ENDBRANCH  12  14
ENDBRANCH  11  12
ENDBRANCH   8  11
ENDBRANCH   1   9
BRANCH   6  15
ATOM     15  N   UNL     1      -7.344  -4.845  -1.276  0.00  0.00    -0.294 N 
ATOM     16  H   UNL     1      -7.912  -4.024  -1.425  0.00  0.00    +0.163 HD
ATOM     17  H   UNL     1      -7.909  -5.681  -1.279  0.00  0.00    +0.163 HD
ENDBRANCH   6  15
BRANCH   5  18
ATOM     18  S   UNL     1      -7.837  -6.394  -4.056  0.00  0.00    -0.075 S 
BRANCH  18  19
ATOM     19  C   UNL     1      -7.291  -6.995  -5.679  0.00  0.00    +0.173 C 
BRANCH  19  20
ATOM     20  C   UNL     1      -8.418  -7.745  -6.341  0.00  0.00    +0.228 C 
ATOM     21  O   UNL     1      -9.484  -7.863  -5.775  0.00  0.00    -0.275 OA
ATOM     22  N   UNL     1      -8.240  -8.286  -7.563  0.00  0.00    -0.284 N 
ATOM     23  H   UNL     1      -7.411  -8.136  -8.044  0.00  0.00    +0.155 HD
BRANCH  22  24
ATOM     24  C   UNL     1      -9.253  -9.062  -8.139  0.00  0.00    +0.053 A 
ATOM     25  C   UNL     1     -10.586  -8.746  -7.912  0.00  0.00    +0.044 A 
ATOM     26  C   UNL     1     -11.583  -9.514  -8.482  0.00  0.00    +0.043 A 
ATOM     27  C   UNL     1     -11.255 -10.597  -9.279  0.00  0.00    +0.021 A 
ATOM     28  C   UNL     1      -9.929 -10.914  -9.506  0.00  0.00    +0.023 A 
ATOM     29  C   UNL     1      -8.926 -10.147  -8.944  0.00  0.00    +0.062 A 
ATOM     30 CL   UNL     1      -7.261 -10.541  -9.236  0.00  0.00    -0.082 Cl
ATOM     31 CL   UNL     1     -13.250  -9.120  -8.198  0.00  0.00    -0.083 Cl
ENDBRANCH  22  24
ENDBRANCH  19  20
ENDBRANCH  18  19
ENDBRANCH   5  18
TORSDOF 9
