REMARK  Name = ZINC62766889
REMARK  6 active torsions:
REMARK  status: ('A' for Active; 'I' for Inactive)
REMARK    1  A    between atoms: C_4  and  C_7
REMARK    2  A    between atoms: C_7  and  C_9
REMARK    3  A    between atoms: C_7  and  S_13
REMARK    4  A    between atoms: C_9  and  C_10
REMARK    5  A    between atoms: S_13  and  C_14
REMARK    6  A    between atoms: C_20  and  N_22
REMARK                            x       y       z     vdW  Elec       q    Type
REMARK                         _______ _______ _______ _____ _____    ______ ____
ROOT
ATOM      1  S   UNL     1       4.375  -1.889   1.452  0.00  0.00    -0.079 S 
ENDROOT
BRANCH   1   2
ATOM      2  C   UNL     1       4.540  -0.789   2.819  0.00  0.00    +0.171 A 
ATOM      3  N   UNL     1       4.757  -1.299   4.064  0.00  0.00    -0.302 N 
ATOM      4  H   UNL     1       4.819  -2.259   4.189  0.00  0.00    +0.171 HD
ATOM      5  C   UNL     1       4.886  -0.471   5.122  0.00  0.00    +0.254 A 
ATOM      6  O   UNL     1       5.081  -0.920   6.240  0.00  0.00    -0.268 OA
ATOM      7  C   UNL     1       4.792   0.908   4.916  0.00  0.00    +0.113 A 
ATOM      8  C   UNL     1       4.570   1.377   3.628  0.00  0.00    +0.124 A 
ATOM      9  N   UNL     1       4.455   0.510   2.616  0.00  0.00    -0.209 NA
BRANCH   8  10
ATOM     10  N   UNL     1       4.473   2.734   3.392  0.00  0.00    -0.343 N 
ATOM     11  H   UNL     1       4.560   3.361   4.127  0.00  0.00    +0.144 HD
ATOM     12  H   UNL     1       4.317   3.060   2.492  0.00  0.00    +0.144 HD
ENDBRANCH   8  10
ENDBRANCH   1   2
BRANCH   1  13
ATOM     13  C   UNL     1       3.958  -0.801   0.062  0.00  0.00    +0.095 C 
BRANCH  13  17
ATOM     14  C   UNL     1       0.107   0.931   0.711  0.00  0.00    +0.000 A 
ATOM     15  C   UNL     1       1.218   1.744   0.580  0.00  0.00    +0.000 A 
ATOM     16  C   UNL     1       2.464   1.184   0.370  0.00  0.00    +0.005 A 
ATOM     17  C   UNL     1       2.600  -0.190   0.292  0.00  0.00    -0.034 A 
ATOM     18  C   UNL     1       1.489  -1.003   0.424  0.00  0.00    +0.005 A 
ATOM     19  C   UNL     1       0.243  -0.442   0.632  0.00  0.00    +0.000 A 
ENDBRANCH  13  17
BRANCH  13  20
ATOM     20  C   UNL     1       3.939  -1.614  -1.234  0.00  0.00    +0.144 C 
BRANCH  20  21
ATOM     21  C   UNL     1       5.334  -2.088  -1.550  0.00  0.00    +0.357 C 
ATOM     22  O   UNL     1       6.244  -1.868  -0.769  0.00  0.00    -0.246 OA
ATOM     23  O   UNL     1       5.552  -2.693  -2.586  0.00  0.00    -0.246 OA
ENDBRANCH  20  21
ENDBRANCH  13  20
ENDBRANCH   1  13
TORSDOF 6
