REMARK  Name = ZINC20623083
REMARK  3 active torsions:
REMARK  status: ('A' for Active; 'I' for Inactive)
REMARK    1  A    between atoms: C_4  and  C_21
REMARK    2  A    between atoms: C_6  and  N_7
REMARK    3  A    between atoms: C_8  and  C_13
REMARK                            x       y       z     vdW  Elec       q    Type
REMARK                         _______ _______ _______ _____ _____    ______ ____
ROOT
ATOM      1  N   UNL     1      -1.089   5.910   0.013  0.00  0.00    -0.270 N 
ATOM      2  C   UNL     1      -1.477   6.866  -0.900  0.00  0.00    +0.172 A 
ATOM      3  N   UNL     1      -2.608   7.375  -0.468  0.00  0.00    -0.128 NA
ATOM      4  N   UNL     1      -2.950   6.812   0.635  0.00  0.00    -0.121 NA
ATOM      5  C   UNL     1      -2.062   5.905   0.975  0.00  0.00    +0.207 A 
ATOM      6  S   UNL     1      -2.112   4.877   2.405  0.00  0.00    -0.009 SA
ENDROOT
BRANCH   2   7
ATOM      7  C   UNL     1      -0.756   7.247  -2.133  0.00  0.00    +0.057 A 
ATOM      8  C   UNL     1      -0.274   6.263  -2.996  0.00  0.00    +0.052 A 
ATOM      9  C   UNL     1       0.394   6.626  -4.149  0.00  0.00    +0.124 A 
ATOM     10  C   UNL     1       0.595   7.965  -4.445  0.00  0.00    +0.041 A 
ATOM     11  C   UNL     1       0.124   8.946  -3.591  0.00  0.00    +0.042 A 
ATOM     12  C   UNL     1      -0.550   8.596  -2.437  0.00  0.00    +0.134 A 
ATOM     13  F   UNL     1      -1.009   9.556  -1.604  0.00  0.00    -0.205 F 
ATOM     14  F   UNL     1       0.857   5.674  -4.989  0.00  0.00    -0.205 F 
ENDBRANCH   2   7
BRANCH   1  20
ATOM     15  C   UNL     1       1.316   5.684   0.097  0.00  0.00    +0.028 A 
ATOM     16  C   UNL     1       2.452   4.897   0.049  0.00  0.00    +0.023 A 
ATOM     17  C   UNL     1       2.345   3.532  -0.132  0.00  0.00    +0.055 A 
ATOM     18  C   UNL     1       1.085   2.943  -0.268  0.00  0.00    +0.083 A 
ATOM     19  C   UNL     1      -0.060   3.740  -0.224  0.00  0.00    +0.042 A 
ATOM     20  C   UNL     1       0.059   5.107  -0.036  0.00  0.00    +0.051 A 
ATOM     21 CL   UNL     1       3.775   2.549  -0.193  0.00  0.00    -0.083 Cl
BRANCH  18  22
ATOM     22  C   UNL     1       0.966   1.484  -0.462  0.00  0.00    +0.388 C 
ATOM     23  O   UNL     1       1.964   0.793  -0.505  0.00  0.00    -0.241 OA
ATOM     24  O   UNL     1      -0.250   0.919  -0.592  0.00  0.00    -0.241 OA
ENDBRANCH  18  22
ENDBRANCH   1  20
TORSDOF 3
