REMARK  Name = ZINC10812429
REMARK  8 active torsions:
REMARK  status: ('A' for Active; 'I' for Inactive)
REMARK    1  A    between atoms: C_1  and  C_2
REMARK    2  A    between atoms: C_2  and  C_29
REMARK    3  A    between atoms: C_4  and  N_9
REMARK    4  A    between atoms: C_6  and  C_7
REMARK    5  A    between atoms: C_6  and  C_8
REMARK    6  A    between atoms: C_10  and  C_12
REMARK    7  A    between atoms: C_12  and  C_13
REMARK    8  A    between atoms: C_13  and  C_14
REMARK                            x       y       z     vdW  Elec       q    Type
REMARK                         _______ _______ _______ _____ _____    ______ ____
ROOT
ATOM      1  C   UNL     1       3.711   5.510  -0.004  0.00  0.00    +0.103 C 
ENDROOT
BRANCH   1   3
ATOM      2  N   UNL     1       3.984   7.968   0.007  0.00  0.00    -0.313 N 
ATOM      3  C   UNL     1       4.564   6.752  -0.005  0.00  0.00    +0.214 C 
ATOM      4  O   UNL     1       5.774   6.657  -0.018  0.00  0.00    -0.276 OA
ATOM      5  H   UNL     1       3.017   8.044   0.017  0.00  0.00    +0.149 HD
BRANCH   2   9
ATOM      6  C   UNL     1       5.903  11.546  -1.698  0.00  0.00    -0.010 C 
ATOM      7  C   UNL     1       4.851  11.616  -0.585  0.00  0.00    -0.072 C 
ATOM      8  C   UNL     1       4.016  10.337  -0.590  0.00  0.00    +0.009 C 
ATOM      9  C   UNL     1       4.816   9.178   0.005  0.00  0.00    +0.070 C 
ATOM     10  C   UNL     1       5.189   9.534   1.444  0.00  0.00    +0.009 C 
ATOM     11  C   UNL     1       6.036  10.804   1.475  0.00  0.00    -0.072 C 
ATOM     12  C   UNL     1       7.461  10.481   1.010  0.00  0.00    -0.010 C 
ATOM     13  C   UNL     1       6.130  11.265   2.947  0.00  0.00    -0.010 C 
ATOM     14  C   UNL     1       3.905  12.790  -0.923  0.00  0.00    -0.010 C 
ATOM     15  N   UNL     1       5.466  11.956   0.726  0.00  0.00    +0.386 N 
ATOM     16  H   UNL     1       4.745  12.392   1.313  0.00  0.00    -0.084 HD
ATOM     17  H   UNL     1       6.222  12.630   0.557  0.00  0.00    -0.084 HD
ENDBRANCH   2   9
ENDBRANCH   1   3
BRANCH   1  18
ATOM     18  C   UNL     1       4.611   4.272  -0.020  0.00  0.00    +0.083 C 
BRANCH  18  19
ATOM     19  C   UNL     1       3.758   3.030  -0.018  0.00  0.00    +0.111 A 
ATOM     20  N   UNL     1       4.373   1.823  -0.031  0.00  0.00    -0.310 N 
ATOM     21  H   UNL     1       5.343   1.799  -0.041  0.00  0.00    +0.170 HD
ATOM     22  C   UNL     1       3.698   0.650  -0.030  0.00  0.00    +0.260 A 
ATOM     23  O   UNL     1       4.269  -0.427  -0.041  0.00  0.00    -0.267 OA
ATOM     24  C   UNL     1       2.266   0.755  -0.015  0.00  0.00    +0.075 A 
ATOM     25  C   UNL     1       1.313  -0.341  -0.012  0.00  0.00    -0.023 A 
ATOM     26  C   UNL     1       0.002  -0.004   0.002  0.00  0.00    -0.004 A 
ATOM     27  S   UNL     1      -0.022   1.771   0.012  0.00  0.00    -0.073 S 
ATOM     28  C   UNL     1       1.719   2.057  -0.003  0.00  0.00    +0.116 A 
ATOM     29  N   UNL     1       2.450   3.167  -0.004  0.00  0.00    -0.227 NA
ATOM     30  C   UNL     1      -1.173  -0.933   0.007  0.00  0.00    +0.043 C 
ATOM     31  C   UNL     1      -0.685  -2.336  -0.379  0.00  0.00    +0.005 C 
ATOM     32  C   UNL     1       0.563  -2.666   0.447  0.00  0.00    +0.005 C 
ATOM     33  C   UNL     1       1.737  -1.807  -0.023  0.00  0.00    +0.037 C 
ENDBRANCH  18  19
ENDBRANCH   1  18
TORSDOF 4
