REMARK  Name = ZINC39681308
REMARK  7 active torsions:
REMARK  status: ('A' for Active; 'I' for Inactive)
REMARK    1  A    between atoms: C_1  and  C_2
REMARK    2  A    between atoms: C_6  and  C_9
REMARK    3  A    between atoms: C_13  and  C_22
REMARK    4  A    between atoms: N_24  and  C_25
REMARK    5  A    between atoms: C_25  and  C_26
REMARK    6  A    between atoms: C_26  and  O_27
REMARK    7  A    between atoms: O_27  and  C_28
REMARK                            x       y       z     vdW  Elec       q    Type
REMARK                         _______ _______ _______ _____ _____    ______ ____
ROOT
ATOM      1  C   UNL     1       0.044  -2.835   2.444  0.00  0.00    +0.251 C 
ATOM      2  O   UNL     1       1.106  -3.126   2.958  0.00  0.00    -0.270 OA
ATOM      3  N   UNL     1      -1.113  -3.199   3.034  0.00  0.00    -0.296 N 
ATOM      4  C   UNL     1      -2.493  -2.943   2.560  0.00  0.00    +0.121 C 
ATOM      5  C   UNL     1      -3.264  -4.243   2.883  0.00  0.00    +0.100 C 
ATOM      6  C   UNL     1      -2.470  -4.895   4.029  0.00  0.00    -0.004 C 
ATOM      7  C   UNL     1      -1.290  -3.950   4.299  0.00  0.00    +0.115 C 
ATOM      8  C   UNL     1      -3.345  -5.020   5.273  0.00  0.00    -0.010 C 
ATOM      9  C   UNL     1      -2.553  -5.723   6.379  0.00  0.00    -0.082 C 
ATOM     10  N   UNL     1      -2.134  -7.051   5.915  0.00  0.00    +0.379 N 
ATOM     11  C   UNL     1      -1.219  -6.918   4.775  0.00  0.00    -0.082 C 
ATOM     12  C   UNL     1      -1.955  -6.266   3.601  0.00  0.00    -0.010 C 
ATOM     13  H   UNL     1      -1.666  -7.536   6.666  0.00  0.00    -0.086 HD
ATOM     14  H   UNL     1      -2.947  -7.579   5.633  0.00  0.00    -0.086 HD
ENDROOT
BRANCH   1  20
ATOM     15  C   UNL     1      -0.056   1.518  -0.001  0.00  0.00    +0.047 C 
ATOM     16  C   UNL     1      -0.028   0.012  -0.009  0.00  0.00    -0.014 A 
ATOM     17  C   UNL     1      -0.026  -0.671  -1.212  0.00  0.00    +0.007 A 
ATOM     18  C   UNL     1      -0.001  -2.055  -1.230  0.00  0.00    +0.021 A 
ATOM     19  C   UNL     1       0.022  -2.765  -0.046  0.00  0.00    +0.056 A 
ATOM     20  C   UNL     1       0.020  -2.083   1.174  0.00  0.00    +0.091 A 
ATOM     21  C   UNL     1       0.000  -0.684   1.185  0.00  0.00    +0.140 A 
ATOM     22  F   UNL     1       0.003  -0.016   2.359  0.00  0.00    -0.204 F 
ATOM     23 CL   UNL     1       0.052  -4.500  -0.073  0.00  0.00    -0.083 Cl
ENDBRANCH   1  20
BRANCH   5  24
ATOM     24  C   UNL     1      -3.292  -5.149   1.680  0.00  0.00    +0.218 C 
ATOM     25  O   UNL     1      -2.423  -5.067   0.838  0.00  0.00    -0.275 OA
ATOM     26  N   UNL     1      -4.283  -6.051   1.538  0.00  0.00    -0.312 N 
ATOM     27  H   UNL     1      -4.979  -6.117   2.212  0.00  0.00    +0.149 HD
BRANCH  26  28
ATOM     28  C   UNL     1      -4.311  -6.933   0.368  0.00  0.00    +0.145 C 
BRANCH  28  29
ATOM     29  C   UNL     1      -5.530  -7.853   0.452  0.00  0.00    +0.248 C 
BRANCH  29  30
ATOM     30  O   UNL     1      -6.724  -7.072   0.365  0.00  0.00    -0.489 OA
BRANCH  30  31
ATOM     31  C   UNL     1      -7.905  -7.742   0.424  0.00  0.00    +0.139 A 
ATOM     32  C   UNL     1      -7.915  -9.121   0.568  0.00  0.00    +0.047 A 
ATOM     33  C   UNL     1      -9.117  -9.800   0.627  0.00  0.00    +0.004 A 
ATOM     34  C   UNL     1     -10.310  -9.105   0.544  0.00  0.00    +0.002 A 
ATOM     35  C   UNL     1     -10.304  -7.730   0.400  0.00  0.00    +0.023 A 
ATOM     36  C   UNL     1      -9.104  -7.046   0.346  0.00  0.00    +0.083 A 
ATOM     37 CL   UNL     1      -9.096  -5.318   0.172  0.00  0.00    -0.080 Cl
ENDBRANCH  30  31
ENDBRANCH  29  30
ENDBRANCH  28  29
ENDBRANCH  26  28
ENDBRANCH   5  24
TORSDOF 6
