REMARK  Name = ZINC32960465
REMARK  8 active torsions:
REMARK  status: ('A' for Active; 'I' for Inactive)
REMARK    1  A    between atoms: C_1  and  C_2
REMARK    2  A    between atoms: C_3  and  C_29
REMARK    3  A    between atoms: N_4  and  C_21
REMARK    4  A    between atoms: C_7  and  N_11
REMARK    5  A    between atoms: N_11  and  C_12
REMARK    6  A    between atoms: C_15  and  C_18
REMARK    7  A    between atoms: C_18  and  C_19
REMARK    8  A    between atoms: C_18  and  C_20
REMARK                            x       y       z     vdW  Elec       q    Type
REMARK                         _______ _______ _______ _____ _____    ______ ____
ROOT
ATOM      1  C   UNL     1      -4.109   2.630   7.539  0.00  0.00    +0.046 C 
ATOM      2  C   UNL     1      -3.904   4.107   7.318  0.00  0.00    -0.017 A 
ATOM      3  C   UNL     1      -4.256   5.098   8.153  0.00  0.00    +0.026 A 
ATOM      4  N   UNL     1      -3.898   6.309   7.615  0.00  0.00    -0.298 N 
ATOM      5  C   UNL     1      -3.308   6.121   6.393  0.00  0.00    +0.151 A 
ATOM      6  C   UNL     1      -3.284   4.735   6.152  0.00  0.00    +0.062 A 
ATOM      7  C   UNL     1      -2.719   4.269   4.955  0.00  0.00    +0.136 A 
ATOM      8  N   UNL     1      -2.239   5.163   4.095  0.00  0.00    -0.220 NA
ATOM      9  C   UNL     1      -2.287   6.456   4.359  0.00  0.00    +0.225 A 
ATOM     10  N   UNL     1      -2.803   6.937   5.470  0.00  0.00    -0.217 NA
ATOM     11  C   UNL     1      -4.930   4.907   9.488  0.00  0.00    +0.064 C 
ENDROOT
BRANCH   4  12
ATOM     12  C   UNL     1      -4.117   7.554   8.221  0.00  0.00    +0.051 A 
ATOM     13  C   UNL     1      -4.990   8.465   7.641  0.00  0.00    +0.029 A 
ATOM     14  C   UNL     1      -5.205   9.691   8.238  0.00  0.00    +0.043 A 
ATOM     15  C   UNL     1      -4.551  10.015   9.415  0.00  0.00    +0.159 A 
ATOM     16  C   UNL     1      -3.678   9.107   9.996  0.00  0.00    +0.160 A 
ATOM     17  C   UNL     1      -3.465   7.876   9.403  0.00  0.00    +0.067 A 
ATOM     18  F   UNL     1      -3.040   9.424  11.144  0.00  0.00    -0.202 F 
ATOM     19  F   UNL     1      -4.763  11.215   9.997  0.00  0.00    -0.202 F 
ENDBRANCH   4  12
BRANCH   7  20
ATOM     20  N   UNL     1      -2.667   2.915   4.675  0.00  0.00    -0.299 N 
ATOM     21  H   UNL     1      -3.151   2.194   5.350  0.00  0.00    +0.154 HD
BRANCH  20  22
ATOM     22  C   UNL     1      -1.999   2.463   3.533  0.00  0.00    +0.032 A 
ATOM     23  C   UNL     1      -2.454   1.335   2.861  0.00  0.00    +0.023 A 
ATOM     24  C   UNL     1      -1.792   0.892   1.733  0.00  0.00    +0.006 A 
ATOM     25  C   UNL     1      -0.677   1.569   1.272  0.00  0.00    -0.045 A 
ATOM     26  C   UNL     1      -0.219   2.689   1.942  0.00  0.00    +0.006 A 
ATOM     27  C   UNL     1      -0.879   3.141   3.067  0.00  0.00    +0.023 A 
BRANCH  25  28
ATOM     28  C   UNL     1       0.043   1.081   0.042  0.00  0.00    +0.013 C 
ATOM     29  C   UNL     1       1.490   0.739   0.400  0.00  0.00    +0.012 C 
ATOM     30  C   UNL     1       0.027   2.178  -1.026  0.00  0.00    +0.012 C 
ENDBRANCH  25  28
ENDBRANCH  20  22
ENDBRANCH   7  20
TORSDOF 4
