REMARK  Name = ZINC08643571
REMARK  13 active torsions:
REMARK  status: ('A' for Active; 'I' for Inactive)
REMARK    1  A    between atoms: C_1  and  N_54
REMARK    2  A    between atoms: C_2  and  N_54
REMARK    3  A    between atoms: C_3  and  C_4
REMARK    4  A    between atoms: C_3  and  N_54
REMARK    5  A    between atoms: C_4  and  N_5
REMARK    6  A    between atoms: C_6  and  C_8
REMARK    7  A    between atoms: C_8  and  C_9
REMARK    8  A    between atoms: C_11  and  O_31
REMARK    9  A    between atoms: C_13  and  O_30
REMARK   10  A    between atoms: C_15  and  C_18
REMARK   11  A    between atoms: C_18  and  N_19
REMARK   12  A    between atoms: N_19  and  S_20
REMARK   13  A    between atoms: S_20  and  C_23
REMARK                            x       y       z     vdW  Elec       q    Type
REMARK                         _______ _______ _______ _____ _____    ______ ____
ROOT
ATOM      1  C   UNL     1       1.760   2.527  -2.158  0.00  0.00    +0.158 C 
ATOM      2  C   UNL     1       2.020   1.244  -1.327  0.00  0.00    +0.175 C 
ATOM      3  C   UNL     1       1.286   1.562  -0.002  0.00  0.00    +0.175 C 
ATOM      4  C   UNL     1       1.171   3.098   0.007  0.00  0.00    +0.165 C 
ATOM      5  O   UNL     1       1.827   3.583  -1.176  0.00  0.00    -0.366 OA
ENDROOT
BRANCH   3   6
ATOM      6  O   UNL     1      -0.011   0.963   0.007  0.00  0.00    -0.387 OA
ATOM      7  H   UNL     1       0.002  -0.004   0.002  0.00  0.00    +0.210 HD
ENDBRANCH   3   6
BRANCH   2   8
ATOM      8  O   UNL     1       3.419   1.057  -1.104  0.00  0.00    -0.387 OA
ATOM      9  H   UNL     1       3.628   0.319  -0.515  0.00  0.00    +0.210 HD
ENDBRANCH   2   8
BRANCH   1  10
ATOM     10  C   UNL     1       2.845   2.710  -3.221  0.00  0.00    +0.130 C 
BRANCH  10  12
ATOM     11  N   UNL     1       3.388   4.319  -5.020  0.00  0.00    -0.317 N 
ATOM     12  C   UNL     1       2.559   3.955  -4.021  0.00  0.00    +0.216 C 
ATOM     13  O   UNL     1       1.585   4.630  -3.765  0.00  0.00    -0.276 OA
ATOM     14  H   UNL     1       4.167   3.779  -5.224  0.00  0.00    +0.149 HD
BRANCH  11  15
ATOM     15  C   UNL     1       3.111   5.529  -5.797  0.00  0.00    +0.085 C 
BRANCH  15  16
ATOM     16  C   UNL     1       4.195   5.712  -6.860  0.00  0.00    -0.061 C 
BRANCH  16  19
ATOM     17  C   UNL     1       4.041   8.128  -6.804  0.00  0.00    -0.097 C 
ATOM     18  C   UNL     1       4.795   7.010  -8.815  0.00  0.00    -0.097 C 
ATOM     19  N   UNL     1       3.890   6.925  -7.649  0.00  0.00    +0.377 N 
ATOM     20  H   UNL     1       2.921   6.870  -7.982  0.00  0.00    -0.083 HD
ENDBRANCH  16  19
ENDBRANCH  15  16
ENDBRANCH  11  15
ENDBRANCH  10  12
ENDBRANCH   1  10
BRANCH   4  21
ATOM     21  C   UNL     1       1.855   3.664   1.254  0.00  0.00    +0.140 C 
BRANCH  21  22
ATOM     22  N   UNL     1       1.638   5.111   1.316  0.00  0.00    -0.187 NA
ATOM     23  H   UNL     1       1.321   5.588   0.533  0.00  0.00    +0.148 HD
BRANCH  22  24
ATOM     24  S   UNL     1       1.935   5.934   2.722  0.00  0.00    +0.058 S 
ATOM     25  O   UNL     1       1.659   7.302   2.458  0.00  0.00    -0.153 OA
ATOM     26  O   UNL     1       1.284   5.212   3.759  0.00  0.00    -0.153 OA
BRANCH  24  27
ATOM     27  C   UNL     1       3.664   5.820   3.038  0.00  0.00    +0.105 A 
ATOM     28  C   UNL     1       4.162   4.773   3.792  0.00  0.00    +0.030 A 
ATOM     29  C   UNL     1       5.519   4.680   4.035  0.00  0.00    +0.022 A 
ATOM     30  C   UNL     1       6.379   5.641   3.533  0.00  0.00    +0.041 A 
ATOM     31  C   UNL     1       5.880   6.691   2.783  0.00  0.00    +0.022 A 
ATOM     32  C   UNL     1       4.523   6.780   2.536  0.00  0.00    +0.030 A 
ATOM     33 CL   UNL     1       8.083   5.529   3.843  0.00  0.00    -0.084 Cl
ENDBRANCH  24  27
ENDBRANCH  22  24
ENDBRANCH  21  22
ENDBRANCH   4  21
TORSDOF 11
