REMARK  Name = ZINC63570122
REMARK  7 active torsions:
REMARK  status: ('A' for Active; 'I' for Inactive)
REMARK    1  A    between atoms: C_4  and  C_7
REMARK    2  A    between atoms: N_18  and  C_19
REMARK    3  A    between atoms: C_19  and  C_20
REMARK    4  A    between atoms: C_23  and  C_26
REMARK    5  A    between atoms: N_28  and  C_29
REMARK    6  A    between atoms: C_29  and  C_30
REMARK    7  A    between atoms: C_30  and  C_31
REMARK                            x       y       z     vdW  Elec       q    Type
REMARK                         _______ _______ _______ _____ _____    ______ ____
ROOT
ATOM      1  C   UNL     1       6.429  -1.882  -3.356  0.00  0.00    -0.030 A 
ATOM      2  C   UNL     1       6.100  -0.569  -3.068  0.00  0.00    +0.006 A 
ATOM      3  C   UNL     1       7.091   0.384  -2.952  0.00  0.00    +0.013 A 
ATOM      4  C   UNL     1       8.428   0.022  -3.124  0.00  0.00    +0.037 A 
ATOM      5  C   UNL     1       8.753  -1.305  -3.414  0.00  0.00    +0.013 A 
ATOM      6  C   UNL     1       7.753  -2.249  -3.522  0.00  0.00    +0.006 A 
ENDROOT
BRANCH   4   7
ATOM      7  C   UNL     1       9.494   1.038  -3.001  0.00  0.00    +0.244 C 
ATOM      8  O   UNL     1       9.208   2.192  -2.749  0.00  0.00    -0.270 OA
ATOM      9  N   UNL     1      10.784   0.684  -3.168  0.00  0.00    -0.311 N 
ATOM     10  H   UNL     1      11.013  -0.237  -3.369  0.00  0.00    +0.149 HD
BRANCH   9  11
ATOM     11  C   UNL     1      11.841   1.691  -3.046  0.00  0.00    +0.109 C 
BRANCH  11  12
ATOM     12  C   UNL     1      13.203   1.032  -3.279  0.00  0.00    +0.052 C 
BRANCH  12  13
ATOM     13  C   UNL     1      14.290   2.068  -3.154  0.00  0.00    -0.040 C 
ATOM     14  C   UNL     1      15.024   2.347  -2.052  0.00  0.00    -0.001 A 
ATOM     15  C   UNL     1      15.029   1.792  -0.694  0.00  0.00    +0.010 A 
ATOM     16  C   UNL     1      15.899   2.288   0.215  0.00  0.00    +0.001 A 
ATOM     17  C   UNL     1      16.795   3.317  -0.108  0.00  0.00    +0.002 A 
ATOM     18  C   UNL     1      16.850   3.878  -1.335  0.00  0.00    +0.026 A 
ATOM     19  C   UNL     1      15.980   3.433  -2.368  0.00  0.00    +0.043 A 
ATOM     20  N   UNL     1      15.842   3.810  -3.616  0.00  0.00    -0.380 N 
ATOM     21  C   UNL     1      14.786   3.002  -4.235  0.00  0.00    +0.144 C 
ATOM     22  H   UNL     1      16.355   4.505  -4.057  0.00  0.00    +0.160 HD
ENDBRANCH  12  13
ENDBRANCH  11  12
ENDBRANCH   9  11
ENDBRANCH   4   7
BRANCH   1  23
ATOM     23  C   UNL     1       5.342  -2.917  -3.482  0.00  0.00    +0.144 C 
BRANCH  23  33
ATOM     24  C   UNL     1       6.244  -7.115  -2.499  0.00  0.00    +0.103 C 
ATOM     25  C   UNL     1       6.285  -5.684  -3.094  0.00  0.00    +0.064 C 
ATOM     26  C   UNL     1       5.948  -4.790  -1.897  0.00  0.00    +0.163 C 
ATOM     27  N   UNL     1       5.122  -5.690  -1.047  0.00  0.00    -0.222 NA
ATOM     28  N   UNL     1       5.848  -6.947  -1.071  0.00  0.00    -0.245 NA
ATOM     29  C   UNL     1       4.906  -5.046   0.240  0.00  0.00    +0.113 C 
ATOM     30  C   UNL     1       3.951  -3.866  -0.001  0.00  0.00    +0.113 C 
ATOM     31  C   UNL     1       4.275  -3.155  -1.283  0.00  0.00    +0.218 C 
ATOM     32  O   UNL     1       3.713  -2.105  -1.511  0.00  0.00    -0.276 OA
ATOM     33  N   UNL     1       5.170  -3.604  -2.199  0.00  0.00    -0.280 N 
ATOM     34  H   UNL     1       6.660  -6.906  -0.473  0.00  0.00    +0.142 HD
BRANCH  24  38
ATOM     35  C   UNL     1      10.102  -8.932  -2.759  0.00  0.00    +0.000 A 
ATOM     36  C   UNL     1       9.119  -9.262  -3.673  0.00  0.00    +0.000 A 
ATOM     37  C   UNL     1       7.871  -8.674  -3.589  0.00  0.00    +0.005 A 
ATOM     38  C   UNL     1       7.605  -7.757  -2.590  0.00  0.00    -0.029 A 
ATOM     39  C   UNL     1       8.587  -7.427  -1.675  0.00  0.00    +0.005 A 
ATOM     40  C   UNL     1       9.836  -8.014  -1.760  0.00  0.00    +0.000 A 
ENDBRANCH  24  38
ENDBRANCH  23  33
ENDBRANCH   1  23
TORSDOF 7
