REMARK  Name = ZINC09033695
REMARK  2 active torsions:
REMARK  status: ('A' for Active; 'I' for Inactive)
REMARK    1  A    between atoms: C_4  and  C_7
REMARK    2  A    between atoms: C_7  and  C_9
REMARK                            x       y       z     vdW  Elec       q    Type
REMARK                         _______ _______ _______ _____ _____    ______ ____
ROOT
ATOM      1  C   UNL     1      -0.018   1.503   0.010  0.00  0.00    +0.080 C 
ATOM      2  C   UNL     1      -0.796   2.031  -1.199  0.00  0.00    +0.071 C 
ATOM      3  C   UNL     1      -0.929   0.986  -2.271  0.00  0.00    -0.012 A 
ATOM      4  C   UNL     1      -1.480  -0.275  -2.303  0.00  0.00    +0.006 A 
ATOM      5  C   UNL     1      -1.450  -1.015  -3.471  0.00  0.00    +0.000 A 
ATOM      6  C   UNL     1      -0.864  -0.485  -4.606  0.00  0.00    +0.002 A 
ATOM      7  C   UNL     1      -0.309   0.778  -4.579  0.00  0.00    +0.023 A 
ATOM      8  C   UNL     1      -0.337   1.530  -3.407  0.00  0.00    +0.038 A 
ATOM      9  N   UNL     1       0.148   2.811  -3.133  0.00  0.00    -0.285 N 
ATOM     10  C   UNL     1      -0.081   3.179  -1.858  0.00  0.00    +0.227 C 
ATOM     11  O   UNL     1       0.230   4.231  -1.341  0.00  0.00    -0.275 OA
ATOM     12  C   UNL     1      -2.166   2.459  -0.654  0.00  0.00    -0.046 C 
ATOM     13  C   UNL     1      -2.612   3.752  -1.360  0.00  0.00    -0.016 C 
ATOM     14  C   UNL     1      -2.576   4.846  -0.268  0.00  0.00    -0.020 C 
ATOM     15  C   UNL     1      -1.601   4.255   0.782  0.00  0.00    -0.076 C 
ATOM     16  C   UNL     1      -0.782   2.018   1.236  0.00  0.00    +0.052 C 
ATOM     17  C   UNL     1       0.121   2.834   2.124  0.00  0.00    -0.027 A 
ATOM     18  C   UNL     1       0.839   3.993   1.928  0.00  0.00    +0.004 A 
ATOM     19  C   UNL     1       1.600   4.517   2.958  0.00  0.00    +0.000 A 
ATOM     20  C   UNL     1       1.635   3.876   4.183  0.00  0.00    +0.002 A 
ATOM     21  C   UNL     1       0.916   2.716   4.383  0.00  0.00    +0.023 A 
ATOM     22  C   UNL     1       0.148   2.181   3.351  0.00  0.00    +0.036 A 
ATOM     23  N   UNL     1      -0.653   1.038   3.307  0.00  0.00    -0.286 N 
ATOM     24  C   UNL     1      -1.232   0.870   2.104  0.00  0.00    +0.212 C 
ATOM     25  O   UNL     1      -1.975  -0.033   1.781  0.00  0.00    -0.277 OA
ATOM     26  H   UNL     1       0.597   3.370  -3.786  0.00  0.00    +0.155 HD
ATOM     27  H   UNL     1      -0.777   0.436   4.057  0.00  0.00    +0.155 HD
ATOM     28  N   UNL     1      -1.921   2.814   0.735  0.00  0.00    +0.395 N 
ATOM     29  H   UNL     1      -2.754   2.622   1.303  0.00  0.00    -0.079 HD
ENDROOT
BRANCH   1  30
ATOM     30  C   UNL     1       0.002  -0.004   0.002  0.00  0.00    +0.167 C 
ATOM     31  O   UNL     1      -1.038  -0.625   0.062  0.00  0.00    -0.292 OA
BRANCH  30  35
ATOM     32  C   UNL     1       3.697  -2.074  -0.230  0.00  0.00    +0.000 A 
ATOM     33  C   UNL     1       2.513  -2.786  -0.163  0.00  0.00    +0.001 A 
ATOM     34  C   UNL     1       1.307  -2.120  -0.087  0.00  0.00    +0.011 A 
ATOM     35  C   UNL     1       1.284  -0.722  -0.079  0.00  0.00    +0.018 A 
ATOM     36  C   UNL     1       2.485  -0.010  -0.154  0.00  0.00    +0.011 A 
ATOM     37  C   UNL     1       3.683  -0.690  -0.223  0.00  0.00    +0.001 A 
ENDBRANCH  30  35
ENDBRANCH   1  30
TORSDOF 2
