REMARK  Name = ZINC09540045
REMARK  6 active torsions:
REMARK  status: ('A' for Active; 'I' for Inactive)
REMARK    1  A    between atoms: C_1  and  C_2
REMARK    2  A    between atoms: C_3  and  C_19
REMARK    3  A    between atoms: C_4  and  C_10
REMARK    4  A    between atoms: C_14  and  N_16
REMARK    5  A    between atoms: N_21  and  C_22
REMARK    6  A    between atoms: C_27  and  C_28
REMARK                            x       y       z     vdW  Elec       q    Type
REMARK                         _______ _______ _______ _____ _____    ______ ____
ROOT
ATOM      1  C   UNL     1      -0.990   6.956   2.320  0.00  0.00    +0.061 C 
ATOM      2  C   UNL     1      -1.122   6.067   1.110  0.00  0.00    +0.019 C 
ATOM      3  C   UNL     1      -0.182   5.129   0.870  0.00  0.00    +0.056 C 
ATOM      4  C   UNL     1      -0.354   4.257  -0.357  0.00  0.00    +0.142 C 
ATOM      5  N   UNL     1      -1.541   4.506  -1.193  0.00  0.00    -0.288 N 
ATOM      6  C   UNL     1      -2.393   5.482  -0.822  0.00  0.00    +0.304 C 
ATOM      7  O   UNL     1      -3.375   5.696  -1.505  0.00  0.00    -0.252 OA
ATOM      8  N   UNL     1      -2.192   6.224   0.274  0.00  0.00    -0.273 N 
ATOM      9  H   UNL     1      -1.705   3.980  -1.991  0.00  0.00    +0.151 HD
ATOM     10  H   UNL     1      -2.842   6.912   0.487  0.00  0.00    +0.156 HD
ENDROOT
BRANCH   4  11
ATOM     11  C   UNL     1      -0.398   2.821   0.096  0.00  0.00    -0.020 A 
ATOM     12  C   UNL     1      -1.552   2.309   0.660  0.00  0.00    +0.006 A 
ATOM     13  C   UNL     1      -1.594   0.991   1.073  0.00  0.00    +0.003 A 
ATOM     14  C   UNL     1      -0.478   0.186   0.931  0.00  0.00    +0.033 A 
ATOM     15  C   UNL     1       0.675   0.697   0.366  0.00  0.00    +0.127 A 
ATOM     16  C   UNL     1       0.715   2.015  -0.051  0.00  0.00    +0.038 A 
BRANCH  15  17
ATOM     17  N   UNL     1       1.867  -0.166   0.209  0.00  0.00    +0.056 N 
ATOM     18  O   UNL     1       1.847  -1.313   0.618  0.00  0.00    -0.126 OA
ATOM     19  O   UNL     1       2.869   0.272  -0.329  0.00  0.00    -0.126 OA
ENDBRANCH  15  17
ENDBRANCH   4  11
BRANCH   3  20
ATOM     20  C   UNL     1       0.928   4.966   1.734  0.00  0.00    +0.248 C 
ATOM     21  O   UNL     1       2.022   5.389   1.407  0.00  0.00    -0.270 OA
ATOM     22  N   UNL     1       0.773   4.343   2.920  0.00  0.00    -0.281 N 
ATOM     23  H   UNL     1      -0.106   4.042   3.197  0.00  0.00    +0.155 HD
BRANCH  22  24
ATOM     24  C   UNL     1       1.879   4.132   3.749  0.00  0.00    +0.045 A 
ATOM     25  C   UNL     1       2.979   4.977   3.670  0.00  0.00    +0.024 A 
ATOM     26  C   UNL     1       4.068   4.769   4.493  0.00  0.00    +0.002 A 
ATOM     27  C   UNL     1       4.068   3.714   5.389  0.00  0.00    +0.001 A 
ATOM     28  C   UNL     1       2.977   2.869   5.466  0.00  0.00    +0.014 A 
ATOM     29  C   UNL     1       1.882   3.075   4.649  0.00  0.00    +0.076 A 
BRANCH  29  30
ATOM     30  C   UNL     1       0.693   2.153   4.734  0.00  0.00    +0.419 C 
ATOM     31  F   UNL     1       0.943   1.156   5.683  0.00  0.00    -0.166 F 
ATOM     32  F   UNL     1      -0.438   2.885   5.113  0.00  0.00    -0.166 F 
ATOM     33  F   UNL     1       0.470   1.563   3.486  0.00  0.00    -0.166 F 
ENDBRANCH  29  30
ENDBRANCH  22  24
ENDBRANCH   3  20
TORSDOF 5
