REMARK  Name = ZINC39652993
REMARK  10 active torsions:
REMARK  status: ('A' for Active; 'I' for Inactive)
REMARK    1  A    between atoms: C_1  and  C_2
REMARK    2  A    between atoms: C_6  and  C_8
REMARK    3  A    between atoms: C_12  and  C_21
REMARK    4  A    between atoms: N_23  and  C_24
REMARK    5  A    between atoms: C_24  and  C_25
REMARK    6  A    between atoms: C_25  and  C_26
REMARK    7  A    between atoms: C_28  and  O_34
REMARK    8  A    between atoms: C_30  and  O_32
REMARK    9  A    between atoms: O_32  and  C_33
REMARK   10  A    between atoms: O_34  and  C_35
REMARK                            x       y       z     vdW  Elec       q    Type
REMARK                         _______ _______ _______ _____ _____    ______ ____
ROOT
ATOM      1  C   UNL     1       0.151  -2.899   2.743  0.00  0.00    +0.247 C 
ATOM      2  O   UNL     1       0.284  -2.396   3.841  0.00  0.00    -0.270 OA
ATOM      3  N   UNL     1       0.031  -4.237   2.626  0.00  0.00    -0.296 N 
ATOM      4  C   UNL     1      -0.008  -5.039   1.380  0.00  0.00    +0.121 C 
ATOM      5  C   UNL     1       0.819  -6.304   1.705  0.00  0.00    +0.100 C 
ATOM      6  C   UNL     1       0.758  -6.429   3.236  0.00  0.00    -0.004 C 
ATOM      7  C   UNL     1      -0.085  -5.238   3.713  0.00  0.00    +0.115 C 
ATOM      8  C   UNL     1       2.161  -6.346   3.829  0.00  0.00    -0.010 C 
ATOM      9  C   UNL     1       2.081  -6.530   5.347  0.00  0.00    -0.082 C 
ATOM     10  N   UNL     1       1.476  -7.833   5.652  0.00  0.00    +0.379 N 
ATOM     11  C   UNL     1       0.094  -7.871   5.159  0.00  0.00    -0.082 C 
ATOM     12  C   UNL     1       0.090  -7.743   3.633  0.00  0.00    -0.010 C 
ATOM     13  H   UNL     1       2.011  -8.563   5.206  0.00  0.00    -0.086 HD
ATOM     14  H   UNL     1       1.480  -7.978   6.650  0.00  0.00    -0.086 HD
ENDROOT
BRANCH   1  20
ATOM     15  C   UNL     1      -1.102  -2.228  -2.040  0.00  0.00    +0.044 C 
ATOM     16  C   UNL     1      -0.481  -1.718  -0.765  0.00  0.00    -0.050 A 
ATOM     17  C   UNL     1       0.062  -0.446  -0.723  0.00  0.00    +0.003 A 
ATOM     18  C   UNL     1       0.634   0.030   0.443  0.00  0.00    +0.001 A 
ATOM     19  C   UNL     1       0.666  -0.762   1.573  0.00  0.00    +0.013 A 
ATOM     20  C   UNL     1       0.119  -2.045   1.537  0.00  0.00    +0.037 A 
ATOM     21  C   UNL     1      -0.461  -2.518   0.358  0.00  0.00    +0.016 A 
ENDBRANCH   1  20
BRANCH   5  22
ATOM     22  C   UNL     1       2.244  -6.132   1.246  0.00  0.00    +0.218 C 
ATOM     23  O   UNL     1       2.744  -5.027   1.224  0.00  0.00    -0.275 OA
ATOM     24  N   UNL     1       2.961  -7.205   0.860  0.00  0.00    -0.315 N 
ATOM     25  H   UNL     1       2.561  -8.088   0.878  0.00  0.00    +0.149 HD
BRANCH  24  26
ATOM     26  C   UNL     1       4.347  -7.038   0.414  0.00  0.00    +0.109 C 
BRANCH  26  27
ATOM     27  C   UNL     1       4.929  -8.402   0.035  0.00  0.00    +0.054 C 
BRANCH  27  28
ATOM     28  C   UNL     1       6.354  -8.230  -0.423  0.00  0.00    -0.039 A 
ATOM     29  C   UNL     1       6.625  -7.995  -1.758  0.00  0.00    +0.049 A 
ATOM     30  C   UNL     1       7.937  -7.837  -2.183  0.00  0.00    +0.124 A 
ATOM     31  C   UNL     1       8.975  -7.913  -1.268  0.00  0.00    +0.091 A 
ATOM     32  C   UNL     1       8.700  -8.149   0.071  0.00  0.00    +0.124 A 
ATOM     33  C   UNL     1       7.386  -8.301   0.492  0.00  0.00    +0.049 A 
BRANCH  32  34
ATOM     34  O   UNL     1       9.716  -8.225   0.970  0.00  0.00    -0.495 OA
ATOM     35  C   UNL     1      11.042  -8.053   0.467  0.00  0.00    +0.277 C 
ENDBRANCH  32  34
BRANCH  30  36
ATOM     36  O   UNL     1       8.203  -7.607  -3.496  0.00  0.00    -0.495 OA
ATOM     37  C   UNL     1       9.576  -7.453  -3.862  0.00  0.00    +0.277 C 
ENDBRANCH  30  36
ENDBRANCH  27  28
ENDBRANCH  26  27
ENDBRANCH  24  26
ENDBRANCH   5  22
TORSDOF 7
