REMARK  Name = ZINC39354196
REMARK  7 active torsions:
REMARK  status: ('A' for Active; 'I' for Inactive)
REMARK    1  A    between atoms: C_2  and  C_3
REMARK    2  A    between atoms: C_3  and  N_4
REMARK    3  A    between atoms: C_5  and  C_25
REMARK    4  A    between atoms: C_9  and  S_11
REMARK    5  A    between atoms: S_11  and  C_12
REMARK    6  A    between atoms: C_12  and  C_13
REMARK    7  A    between atoms: C_30  and  O_31
REMARK                            x       y       z     vdW  Elec       q    Type
REMARK                         _______ _______ _______ _____ _____    ______ ____
ROOT
ATOM      1  N   UNL     1      -1.482  -1.790  -0.976  0.00  0.00    -0.242 NA
ATOM      2  C   UNL     1      -2.787  -2.497  -0.988  0.00  0.00    +0.205 C 
ATOM      3  N   UNL     1      -2.531  -3.767  -0.296  0.00  0.00    -0.289 N 
ATOM      4  N   UNL     1      -1.320  -3.997  -0.218  0.00  0.00    -0.184 NA
ATOM      5  C   UNL     1      -0.534  -2.925  -0.844  0.00  0.00    +0.257 C 
ATOM      6  H   UNL     1      -3.223  -4.349   0.056  0.00  0.00    +0.184 HD
ENDROOT
BRANCH   2   7
ATOM      7  C   UNL     1      -3.234  -2.750  -2.404  0.00  0.00    +0.033 A 
ATOM      8  C   UNL     1      -2.779  -1.941  -3.428  0.00  0.00    +0.026 A 
ATOM      9  C   UNL     1      -3.189  -2.173  -4.728  0.00  0.00    +0.018 A 
ATOM     10  C   UNL     1      -4.056  -3.214  -5.007  0.00  0.00    +0.019 A 
ATOM     11  C   UNL     1      -4.514  -4.025  -3.987  0.00  0.00    +0.047 A 
ATOM     12  C   UNL     1      -4.099  -3.798  -2.682  0.00  0.00    +0.123 A 
ATOM     13 BR   UNL     1      -2.564  -1.064  -6.127  0.00  0.00    -0.050 Br
BRANCH  12  14
ATOM     14  O   UNL     1      -4.545  -4.597  -1.678  0.00  0.00    -0.506 OA
ATOM     15  H   UNL     1      -5.364  -4.291  -1.265  0.00  0.00    +0.292 HD
ENDBRANCH  12  14
ENDBRANCH   2   7
BRANCH   1  16
ATOM     16  C   UNL     1      -1.383  -0.884   0.177  0.00  0.00    +0.116 C 
BRANCH  16  18
ATOM     17  C   UNL     1      -3.182   0.622   0.852  0.00  0.00    +0.005 C 
ATOM     18  C   UNL     1      -2.278   0.308  -0.043  0.00  0.00    -0.019 C 
ENDBRANCH  16  18
ENDBRANCH   1  16
BRANCH   5  19
ATOM     19  S   UNL     1       0.862  -2.463   0.219  0.00  0.00    -0.109 S 
BRANCH  19  20
ATOM     20  C   UNL     1       2.096  -3.755  -0.091  0.00  0.00    +0.146 C 
BRANCH  20  21
ATOM     21  C   UNL     1       3.368  -3.422   0.645  0.00  0.00    +0.120 A 
ATOM     22  N   UNL     1       4.420  -4.274   0.532  0.00  0.00    -0.310 N 
ATOM     23  H   UNL     1       4.336  -5.071  -0.013  0.00  0.00    +0.170 HD
ATOM     24  C   UNL     1       5.585  -4.019   1.174  0.00  0.00    +0.259 A 
ATOM     25  O   UNL     1       6.535  -4.774   1.081  0.00  0.00    -0.267 OA
ATOM     26  C   UNL     1       5.656  -2.797   1.987  0.00  0.00    +0.065 A 
ATOM     27  C   UNL     1       6.808  -2.443   2.687  0.00  0.00    +0.015 A 
ATOM     28  C   UNL     1       6.820  -1.286   3.435  0.00  0.00    +0.001 A 
ATOM     29  C   UNL     1       5.696  -0.472   3.494  0.00  0.00    +0.002 A 
ATOM     30  C   UNL     1       4.548  -0.803   2.811  0.00  0.00    +0.028 A 
ATOM     31  C   UNL     1       4.512  -1.971   2.046  0.00  0.00    +0.078 A 
ATOM     32  N   UNL     1       3.404  -2.333   1.351  0.00  0.00    -0.233 NA
ENDBRANCH  20  21
ENDBRANCH  19  20
ENDBRANCH   5  19
TORSDOF 7
