REMARK  Name = ZINC00887540
REMARK  11 active torsions:
REMARK  status: ('A' for Active; 'I' for Inactive)
REMARK    1  A    between atoms: C_1  and  C_2
REMARK    2  A    between atoms: C_5  and  C_8
REMARK    3  A    between atoms: C_8  and  C_10
REMARK    4  A    between atoms: C_8  and  N_20
REMARK    5  A    between atoms: N_12  and  C_13
REMARK    6  A    between atoms: C_13  and  C_14
REMARK    7  A    between atoms: N_20  and  C_21
REMARK    8  A    between atoms: C_21  and  C_22
REMARK    9  A    between atoms: C_29  and  C_31
REMARK   10  A    between atoms: C_31  and  N_32
REMARK   11  A    between atoms: C_34  and  C_37
REMARK                            x       y       z     vdW  Elec       q    Type
REMARK                         _______ _______ _______ _____ _____    ______ ____
ROOT
ATOM      1  N   UNL     1      -0.883  -4.787   1.093  0.00  0.00    -0.280 N 
ATOM      2  C   UNL     1      -2.164  -4.501   0.790  0.00  0.00    +0.240 C 
ATOM      3  O   UNL     1      -2.456  -4.134  -0.328  0.00  0.00    -0.273 OA
ENDROOT
BRANCH   1   4
ATOM      4  C   UNL     1       0.176  -4.533   0.113  0.00  0.00    +0.193 C 
BRANCH   4   9
ATOM      5  C   UNL     1       0.535   1.144  -0.905  0.00  0.00    +0.044 C 
ATOM      6  C   UNL     1       0.442  -0.336  -0.639  0.00  0.00    -0.050 A 
ATOM      7  C   UNL     1       0.665  -1.237  -1.664  0.00  0.00    +0.004 A 
ATOM      8  C   UNL     1       0.579  -2.595  -1.420  0.00  0.00    +0.006 A 
ATOM      9  C   UNL     1       0.270  -3.052  -0.152  0.00  0.00    -0.018 A 
ATOM     10  C   UNL     1       0.048  -2.151   0.872  0.00  0.00    +0.006 A 
ATOM     11  C   UNL     1       0.139  -0.793   0.629  0.00  0.00    +0.004 A 
ENDBRANCH   4   9
BRANCH   4  12
ATOM     12  C   UNL     1       1.491  -5.031   0.653  0.00  0.00    +0.238 C 
ATOM     13  O   UNL     1       1.530  -5.606   1.720  0.00  0.00    -0.273 OA
ATOM     14  N   UNL     1       2.625  -4.839  -0.050  0.00  0.00    -0.309 N 
ATOM     15  H   UNL     1       2.594  -4.380  -0.904  0.00  0.00    +0.149 HD
BRANCH  14  16
ATOM     16  C   UNL     1       3.904  -5.324   0.475  0.00  0.00    +0.139 C 
BRANCH  16  17
ATOM     17  C   UNL     1       5.006  -4.984  -0.495  0.00  0.00    -0.030 A 
ATOM     18  C   UNL     1       5.340  -5.873  -1.500  0.00  0.00    +0.005 A 
ATOM     19  C   UNL     1       6.351  -5.561  -2.390  0.00  0.00    +0.000 A 
ATOM     20  C   UNL     1       7.028  -4.362  -2.274  0.00  0.00    +0.000 A 
ATOM     21  C   UNL     1       6.694  -3.473  -1.270  0.00  0.00    +0.000 A 
ATOM     22  C   UNL     1       5.680  -3.783  -0.383  0.00  0.00    +0.005 A 
ENDBRANCH  16  17
ENDBRANCH  14  16
ENDBRANCH   4  12
ENDBRANCH   1   4
BRANCH   1  23
ATOM     23  C   UNL     1      -0.548  -5.350   2.403  0.00  0.00    +0.144 C 
BRANCH  23  24
ATOM     24  C   UNL     1      -0.717  -6.847   2.364  0.00  0.00    -0.030 A 
ATOM     25  C   UNL     1      -1.944  -7.412   2.657  0.00  0.00    +0.008 A 
ATOM     26  C   UNL     1      -2.100  -8.784   2.621  0.00  0.00    +0.038 A 
ATOM     27  C   UNL     1      -1.027  -9.594   2.291  0.00  0.00    +0.123 A 
ATOM     28  C   UNL     1       0.202  -9.028   1.997  0.00  0.00    +0.038 A 
ATOM     29  C   UNL     1       0.354  -7.655   2.029  0.00  0.00    +0.008 A 
ATOM     30  F   UNL     1      -1.178 -10.936   2.256  0.00  0.00    -0.205 F 
ENDBRANCH  23  24
ENDBRANCH   1  23
BRANCH   2  31
ATOM     31  C   UNL     1      -3.236  -4.639   1.841  0.00  0.00    +0.264 C 
BRANCH  31  32
ATOM     32  N   UNL     1      -4.542  -4.339   1.249  0.00  0.00    -0.154 N 
ATOM     33  N   UNL     1      -5.086  -3.172   1.196  0.00  0.00    -0.129 NA
ATOM     34  C   UNL     1      -6.254  -3.298   0.594  0.00  0.00    +0.211 A 
ATOM     35  N   UNL     1      -6.388  -4.597   0.286  0.00  0.00    -0.107 NA
ATOM     36  N   UNL     1      -5.323  -5.199   0.696  0.00  0.00    -0.045 NA
BRANCH  34  37
ATOM     37  C   UNL     1      -7.225  -2.218   0.314  0.00  0.00    +0.060 A 
ATOM     38  C   UNL     1      -8.446  -2.295  -0.299  0.00  0.00    +0.019 A 
ATOM     39  C   UNL     1      -9.185  -1.141  -0.451  0.00  0.00    +0.008 A 
ATOM     40  C   UNL     1      -8.681   0.032   0.011  0.00  0.00    +0.046 A 
ATOM     41  S   UNL     1      -7.113  -0.478   0.695  0.00  0.00    -0.093 S 
ENDBRANCH  34  37
ENDBRANCH  31  32
ENDBRANCH   2  31
TORSDOF 10
