REMARK  Name = ZINC36625179
REMARK  8 active torsions:
REMARK  status: ('A' for Active; 'I' for Inactive)
REMARK    1  A    between atoms: C_1  and  N_2
REMARK    2  A    between atoms: N_2  and  C_3
REMARK    3  A    between atoms: N_2  and  S_4
REMARK    4  A    between atoms: S_4  and  C_7
REMARK    5  A    between atoms: C_11  and  C_13
REMARK    6  A    between atoms: N_15  and  N_16
REMARK    7  A    between atoms: C_17  and  C_19
REMARK    8  A    between atoms: C_22  and  C_24
REMARK                            x       y       z     vdW  Elec       q    Type
REMARK                         _______ _______ _______ _____ _____    ______ ____
ROOT
ATOM      1  C   UNL     1      -1.373  -3.651  -4.385  0.00  0.00    +0.262 C 
ATOM      2  O   UNL     1      -1.695  -3.825  -5.545  0.00  0.00    -0.269 OA
ATOM      3  N   UNL     1      -0.603  -4.561  -3.756  0.00  0.00    -0.230 N 
ATOM      4  H   UNL     1      -0.346  -4.422  -2.831  0.00  0.00    +0.173 HD
ENDROOT
BRANCH   1   9
ATOM      5  C   UNL     1      -1.884  -1.109  -1.669  0.00  0.00    +0.106 A 
ATOM      6  C   UNL     1      -2.675  -0.176  -2.318  0.00  0.00    +0.030 A 
ATOM      7  C   UNL     1      -3.044  -0.370  -3.636  0.00  0.00    +0.022 A 
ATOM      8  C   UNL     1      -2.624  -1.497  -4.316  0.00  0.00    +0.053 A 
ATOM      9  C   UNL     1      -1.825  -2.442  -3.666  0.00  0.00    +0.058 A 
ATOM     10  C   UNL     1      -1.454  -2.236  -2.336  0.00  0.00    +0.043 A 
ATOM     11 CL   UNL     1      -3.087  -1.739  -5.971  0.00  0.00    -0.083 Cl
BRANCH   5  12
ATOM     12  S   UNL     1      -1.421  -0.852   0.011  0.00  0.00    +0.060 S 
ATOM     13  O   UNL     1      -1.127  -2.132   0.552  0.00  0.00    -0.153 OA
ATOM     14  O   UNL     1      -2.401   0.008   0.576  0.00  0.00    -0.153 OA
BRANCH  12  16
ATOM     15  C   UNL     1      -0.018   1.461   0.010  0.00  0.00    +0.131 C 
ATOM     16  N   UNL     1       0.002  -0.004   0.002  0.00  0.00    -0.183 NA
ATOM     17  C   UNL     1       1.281  -0.719  -0.014  0.00  0.00    +0.131 C 
ENDBRANCH  12  16
ENDBRANCH   5  12
ENDBRANCH   1   9
BRANCH   3  18
ATOM     18  N   UNL     1      -0.173  -5.707  -4.438  0.00  0.00    -0.230 N 
ATOM     19  C   UNL     1       0.597  -6.616  -3.808  0.00  0.00    +0.267 C 
ATOM     20  O   UNL     1       0.919  -6.442  -2.648  0.00  0.00    -0.268 OA
ATOM     21  H   UNL     1      -0.430  -5.846  -5.363  0.00  0.00    +0.173 HD
BRANCH  19  22
ATOM     22  C   UNL     1       1.046  -7.814  -4.521  0.00  0.00    +0.076 A 
ATOM     23  C   UNL     1       1.829  -8.862  -4.059  0.00  0.00    +0.021 A 
ATOM     24  C   UNL     1       2.125  -9.887  -4.912  0.00  0.00    +0.017 A 
ATOM     25  C   UNL     1       1.631  -9.841  -6.206  0.00  0.00    +0.020 A 
ATOM     26  S   UNL     1       0.718  -8.306  -6.206  0.00  0.00    -0.084 S 
BRANCH  25  27
ATOM     27  C   UNL     1       1.809 -10.815  -7.303  0.00  0.00    -0.011 A 
ATOM     28  C   UNL     1       2.559 -11.973  -7.096  0.00  0.00    +0.012 A 
ATOM     29  C   UNL     1       2.722 -12.879  -8.123  0.00  0.00    +0.039 A 
ATOM     30  C   UNL     1       2.142 -12.640  -9.359  0.00  0.00    +0.123 A 
ATOM     31  C   UNL     1       1.397 -11.491  -9.570  0.00  0.00    +0.039 A 
ATOM     32  C   UNL     1       1.222 -10.582  -8.548  0.00  0.00    +0.012 A 
ATOM     33  F   UNL     1       2.305 -13.531 -10.362  0.00  0.00    -0.205 F 
ENDBRANCH  25  27
ENDBRANCH  19  22
ENDBRANCH   3  18
TORSDOF 6
