REMARK  Name = ZINC39685802
REMARK  12 active torsions:
REMARK  status: ('A' for Active; 'I' for Inactive)
REMARK    1  A    between atoms: C_1  and  C_2
REMARK    2  A    between atoms: C_6  and  C_9
REMARK    3  A    between atoms: C_13  and  C_22
REMARK    4  A    between atoms: N_24  and  C_25
REMARK    5  A    between atoms: C_25  and  C_27
REMARK    6  A    between atoms: C_25  and  C_30
REMARK    7  A    between atoms: C_27  and  C_28
REMARK    8  A    between atoms: C_27  and  C_29
REMARK    9  A    between atoms: N_32  and  C_33
REMARK   10  A    between atoms: C_33  and  C_34
REMARK   11  A    between atoms: C_33  and  C_35
REMARK   12  A    between atoms: C_33  and  C_36
REMARK                            x       y       z     vdW  Elec       q    Type
REMARK                         _______ _______ _______ _____ _____    ______ ____
ROOT
ATOM      1  C   UNL     1      -0.511  -2.298   4.831  0.00  0.00    +0.251 C 
ATOM      2  O   UNL     1       0.224  -2.314   5.800  0.00  0.00    -0.270 OA
ATOM      3  N   UNL     1      -1.824  -2.563   4.977  0.00  0.00    -0.296 N 
ATOM      4  C   UNL     1      -2.866  -2.598   3.924  0.00  0.00    +0.121 C 
ATOM      5  C   UNL     1      -3.766  -3.795   4.305  0.00  0.00    +0.100 C 
ATOM      6  C   UNL     1      -3.558  -3.977   5.818  0.00  0.00    -0.004 C 
ATOM      7  C   UNL     1      -2.552  -2.891   6.227  0.00  0.00    +0.115 C 
ATOM      8  C   UNL     1      -4.877  -3.784   6.560  0.00  0.00    -0.010 C 
ATOM      9  C   UNL     1      -4.656  -4.026   8.056  0.00  0.00    -0.082 C 
ATOM     10  N   UNL     1      -4.150  -5.389   8.263  0.00  0.00    +0.379 N 
ATOM     11  C   UNL     1      -2.837  -5.538   7.623  0.00  0.00    -0.082 C 
ATOM     12  C   UNL     1      -2.981  -5.359   6.109  0.00  0.00    -0.010 C 
ATOM     13  H   UNL     1      -4.063  -5.567   9.252  0.00  0.00    -0.086 HD
ATOM     14  H   UNL     1      -4.796  -6.051   7.860  0.00  0.00    -0.086 HD
ENDROOT
BRANCH   1  20
ATOM     15  C   UNL     1       0.640   1.035   1.296  0.00  0.00    +0.047 C 
ATOM     16  C   UNL     1       0.593  -0.389   1.788  0.00  0.00    -0.014 A 
ATOM     17  C   UNL     1       1.062  -1.412   0.986  0.00  0.00    +0.007 A 
ATOM     18  C   UNL     1       1.022  -2.722   1.428  0.00  0.00    +0.021 A 
ATOM     19  C   UNL     1       0.513  -3.018   2.677  0.00  0.00    +0.056 A 
ATOM     20  C   UNL     1       0.036  -1.990   3.495  0.00  0.00    +0.091 A 
ATOM     21  C   UNL     1       0.084  -0.667   3.043  0.00  0.00    +0.140 A 
ATOM     22  F   UNL     1      -0.369   0.334   3.828  0.00  0.00    -0.204 F 
ATOM     23 CL   UNL     1       0.463  -4.663   3.229  0.00  0.00    -0.083 Cl
ENDBRANCH   1  20
BRANCH   5  24
ATOM     24  C   UNL     1      -5.210  -3.482   4.005  0.00  0.00    +0.219 C 
ATOM     25  O   UNL     1      -5.613  -2.342   4.090  0.00  0.00    -0.275 OA
ATOM     26  N   UNL     1      -6.052  -4.470   3.644  0.00  0.00    -0.303 N 
ATOM     27  H   UNL     1      -5.729  -5.383   3.576  0.00  0.00    +0.149 HD
BRANCH  26  28
ATOM     28  C   UNL     1      -7.455  -4.166   3.353  0.00  0.00    +0.161 C 
BRANCH  28  29
ATOM     29  C   UNL     1      -8.293  -5.398   3.579  0.00  0.00    +0.234 C 
ATOM     30  O   UNL     1      -7.768  -6.491   3.612  0.00  0.00    -0.274 OA
ATOM     31  N   UNL     1      -9.626  -5.286   3.744  0.00  0.00    -0.309 N 
ATOM     32  H   UNL     1     -10.055  -4.421   3.649  0.00  0.00    +0.149 HD
BRANCH  31  33
ATOM     33  C   UNL     1     -10.427  -6.469   4.067  0.00  0.00    +0.026 C 
ATOM     34  C   UNL     1      -9.940  -7.069   5.388  0.00  0.00    +0.031 C 
ATOM     35  C   UNL     1     -11.898  -6.069   4.200  0.00  0.00    +0.031 C 
ATOM     36  C   UNL     1     -10.279  -7.505   2.951  0.00  0.00    +0.031 C 
ENDBRANCH  31  33
ENDBRANCH  28  29
BRANCH  28  37
ATOM     37  C   UNL     1      -7.589  -3.719   1.896  0.00  0.00    +0.012 C 
ATOM     38  C   UNL     1      -6.818  -2.413   1.691  0.00  0.00    +0.009 C 
ATOM     39  C   UNL     1      -7.016  -4.799   0.976  0.00  0.00    +0.009 C 
ENDBRANCH  28  37
ENDBRANCH  26  28
ENDBRANCH   5  24
TORSDOF 6
