REMARK  Name = ZINC35000849
REMARK  12 active torsions:
REMARK  status: ('A' for Active; 'I' for Inactive)
REMARK    1  A    between atoms: C_1  and  C_2
REMARK    2  A    between atoms: C_5  and  N_8
REMARK    3  A    between atoms: N_14  and  C_17
REMARK    4  A    between atoms: C_17  and  C_18
REMARK    5  A    between atoms: C_18  and  N_19
REMARK    6  A    between atoms: N_19  and  C_20
REMARK    7  A    between atoms: C_20  and  C_21
REMARK    8  A    between atoms: C_29  and  C_30
REMARK    9  A    between atoms: C_29  and  C_31
REMARK   10  A    between atoms: N_34  and  C_35
REMARK   11  A    between atoms: C_35  and  C_36
REMARK   12  A    between atoms: C_35  and  C_37
REMARK                            x       y       z     vdW  Elec       q    Type
REMARK                         _______ _______ _______ _____ _____    ______ ____
ROOT
ATOM      1  C   UNL     1       2.574  -9.699   1.170  0.00  0.00    -0.059 C 
ENDROOT
BRANCH   1   8
ATOM      2  N   UNL     1      -0.003  -4.175  -0.016  0.00  0.00    -0.269 N 
ATOM      3  C   UNL     1       0.174  -4.849   1.138  0.00  0.00    +0.306 C 
ATOM      4  O   UNL     1       0.227  -4.245   2.192  0.00  0.00    -0.252 OA
ATOM      5  N   UNL     1       0.294  -6.191   1.123  0.00  0.00    -0.289 N 
ATOM      6  C   UNL     1       0.415  -6.926  -0.145  0.00  0.00    +0.091 C 
ATOM      7  C   UNL     1       1.620  -7.868  -0.048  0.00  0.00    -0.059 C 
ATOM      8  N   UNL     1       1.476  -8.723   1.137  0.00  0.00    +0.383 N 
ATOM      9  C   UNL     1       1.517  -7.903   2.354  0.00  0.00    -0.059 C 
ATOM     10  C   UNL     1       0.312  -6.963   2.376  0.00  0.00    +0.091 C 
ATOM     11  H   UNL     1      -0.174  -4.660  -0.839  0.00  0.00    +0.156 HD
ATOM     12  H   UNL     1       0.595  -9.213   1.092  0.00  0.00    -0.082 HD
BRANCH   2  17
ATOM     13  C   UNL     1       0.253   1.492  -0.062  0.00  0.00    +0.044 C 
ATOM     14  C   UNL     1       0.185  -0.013  -0.050  0.00  0.00    -0.050 A 
ATOM     15  C   UNL     1       0.411  -0.724  -1.215  0.00  0.00    +0.005 A 
ATOM     16  C   UNL     1       0.349  -2.103  -1.207  0.00  0.00    +0.023 A 
ATOM     17  C   UNL     1       0.061  -2.777  -0.028  0.00  0.00    +0.035 A 
ATOM     18  C   UNL     1      -0.165  -2.061   1.140  0.00  0.00    +0.023 A 
ATOM     19  C   UNL     1      -0.097  -0.682   1.127  0.00  0.00    +0.005 A 
ENDBRANCH   2  17
ENDBRANCH   1   8
BRANCH   1  20
ATOM     20  C   UNL     1       2.358 -10.670   2.332  0.00  0.00    +0.091 C 
BRANCH  20  21
ATOM     21  N   UNL     1       3.453 -11.643   2.365  0.00  0.00    -0.283 N 
ATOM     22  C   UNL     1       3.349 -12.798   1.677  0.00  0.00    +0.303 C 
ATOM     23  O   UNL     1       4.257 -13.606   1.704  0.00  0.00    -0.253 OA
ATOM     24  N   UNL     1       2.238 -13.057   0.959  0.00  0.00    -0.297 N 
ATOM     25  H   UNL     1       1.513 -12.412   0.938  0.00  0.00    +0.150 HD
BRANCH  24  26
ATOM     26  C   UNL     1       2.125 -14.312   0.212  0.00  0.00    +0.068 C 
ATOM     27  C   UNL     1       0.648 -14.659   0.019  0.00  0.00    +0.027 C 
ATOM     28  C   UNL     1       2.794 -14.153  -1.155  0.00  0.00    +0.027 C 
ENDBRANCH  24  26
BRANCH  21  29
ATOM     29  C   UNL     1       4.660 -11.362   3.145  0.00  0.00    +0.140 C 
BRANCH  29  30
ATOM     30  C   UNL     1       4.487 -11.888   4.547  0.00  0.00    -0.053 C 
ATOM     31  C   UNL     1       4.935 -13.074   4.891  0.00  0.00    -0.025 C 
ATOM     32  C   UNL     1       4.748 -13.560   6.307  0.00  0.00    +0.031 C 
ATOM     33  C   UNL     1       3.946 -12.525   7.108  0.00  0.00    -0.000 C 
ATOM     34  C   UNL     1       2.728 -11.987   6.337  0.00  0.00    +0.012 C 
ATOM     35  C   UNL     1       3.792 -11.065   5.618  0.00  0.00    +0.022 C 
ATOM     36  C   UNL     1       4.555 -11.117   6.950  0.00  0.00    -0.025 C 
ATOM     37  C   UNL     1       6.077 -11.116   6.788  0.00  0.00    +0.012 C 
ATOM     38  C   UNL     1       4.060 -10.108   7.988  0.00  0.00    +0.012 C 
ENDBRANCH  29  30
ENDBRANCH  21  29
ENDBRANCH  20  21
ENDBRANCH   1  20
TORSDOF 7
