REMARK  Name = ZINC40501916
REMARK  6 active torsions:
REMARK  status: ('A' for Active; 'I' for Inactive)
REMARK    1  A    between atoms: C_1  and  C_2
REMARK    2  A    between atoms: C_2  and  N_3
REMARK    3  A    between atoms: C_7  and  N_10
REMARK    4  A    between atoms: N_10  and  S_11
REMARK    5  A    between atoms: S_11  and  C_14
REMARK    6  A    between atoms: C_15  and  N_22
REMARK                            x       y       z     vdW  Elec       q    Type
REMARK                         _______ _______ _______ _____ _____    ______ ____
ROOT
ATOM      1  S   UNL     1      -4.677  -5.249  -1.657  0.00  0.00    +0.061 S 
ATOM      2  O   UNL     1      -4.656  -6.645  -1.923  0.00  0.00    -0.153 OA
ATOM      3  O   UNL     1      -5.870  -4.556  -1.317  0.00  0.00    -0.153 OA
ENDROOT
BRANCH   1   4
ATOM      4  C   UNL     1      -4.022  -4.454  -3.086  0.00  0.00    +0.140 A 
ATOM      5  C   UNL     1      -4.424  -3.164  -3.409  0.00  0.00    +0.053 A 
ATOM      6  C   UNL     1      -3.905  -2.539  -4.536  0.00  0.00    +0.040 A 
ATOM      7  C   UNL     1      -2.991  -3.203  -5.333  0.00  0.00    +0.021 A 
ATOM      8  C   UNL     1      -2.593  -4.487  -5.009  0.00  0.00    +0.032 A 
ATOM      9  C   UNL     1      -3.103  -5.110  -3.883  0.00  0.00    +0.047 A 
ATOM     10 BR   UNL     1      -2.550  -6.863  -3.440  0.00  0.00    -0.048 Br
ATOM     11 BR   UNL     1      -2.284  -2.354  -6.867  0.00  0.00    -0.050 Br
BRANCH   5  12
ATOM     12  N   UNL     1      -5.348  -2.496  -2.603  0.00  0.00    -0.356 N 
ATOM     13  H   UNL     1      -5.427  -2.725  -1.663  0.00  0.00    +0.142 HD
ATOM     14  H   UNL     1      -5.912  -1.804  -2.982  0.00  0.00    +0.142 HD
ENDBRANCH   5  12
ENDBRANCH   1   4
BRANCH   1  15
ATOM     15  N   UNL     1      -3.609  -4.988  -0.418  0.00  0.00    -0.189 NA
ATOM     16  H   UNL     1      -3.134  -5.735  -0.022  0.00  0.00    +0.148 HD
BRANCH  15  21
ATOM     17  N   UNL     1      -1.688  -2.114   0.997  0.00  0.00    +0.381 N 
ATOM     18  C   UNL     1      -2.496  -1.883   2.200  0.00  0.00    -0.079 C 
ATOM     19  C   UNL     1      -3.982  -1.975   1.847  0.00  0.00    -0.017 C 
ATOM     20  C   UNL     1      -4.283  -3.369   1.289  0.00  0.00    +0.017 C 
ATOM     21  C   UNL     1      -3.381  -3.629   0.078  0.00  0.00    +0.060 C 
ATOM     22  C   UNL     1      -1.917  -3.475   0.497  0.00  0.00    -0.058 C 
ATOM     23  H   UNL     1      -1.949  -1.448   0.286  0.00  0.00    -0.082 HD
BRANCH  17  25
ATOM     24  C   UNL     1      -0.002  -0.495   1.727  0.00  0.00    -0.017 C 
ATOM     25  C   UNL     1      -0.266  -1.948   1.324  0.00  0.00    -0.082 C 
ENDBRANCH  17  25
ENDBRANCH  15  21
ENDBRANCH   1  15
TORSDOF 5
