REMARK  Name = ZINC66864219
REMARK  12 active torsions:
REMARK  status: ('A' for Active; 'I' for Inactive)
REMARK    1  A    between atoms: C_1  and  C_2
REMARK    2  A    between atoms: C_4  and  C_24
REMARK    3  A    between atoms: C_6  and  C_23
REMARK    4  A    between atoms: C_7  and  C_8
REMARK    5  A    between atoms: C_8  and  C_9
REMARK    6  A    between atoms: C_9  and  N_10
REMARK    7  A    between atoms: C_11  and  C_13
REMARK    8  A    between atoms: C_13  and  N_14
REMARK    9  A    between atoms: C_18  and  C_20
REMARK   10  A    between atoms: C_24  and  C_25
REMARK   11  A    between atoms: C_24  and  C_26
REMARK   12  A    between atoms: C_24  and  C_27
REMARK                            x       y       z     vdW  Elec       q    Type
REMARK                         _______ _______ _______ _____ _____    ______ ____
ROOT
ATOM      1  N   UNL     1      -1.407   1.762   3.956  0.00  0.00    -0.317 N 
ATOM      2  C   UNL     1      -2.575   1.920   4.610  0.00  0.00    +0.196 C 
ATOM      3  O   UNL     1      -3.622   1.671   4.051  0.00  0.00    -0.278 OA
ATOM      4  H   UNL     1      -0.570   1.961   4.403  0.00  0.00    +0.149 HD
ENDROOT
BRANCH   1   5
ATOM      5  C   UNL     1      -1.402   1.289   2.569  0.00  0.00    +0.109 C 
BRANCH   5   6
ATOM      6  C   UNL     1       0.040   1.198   2.066  0.00  0.00    +0.054 C 
BRANCH   6  13
ATOM      7  C   UNL     1      -0.087   3.096  -0.108  0.00  0.00    +0.044 C 
ATOM      8  C   UNL     1      -0.016   1.619  -0.400  0.00  0.00    -0.047 A 
ATOM      9  C   UNL     1      -0.006   1.174  -1.709  0.00  0.00    +0.007 A 
ATOM     10  C   UNL     1       0.059  -0.181  -1.977  0.00  0.00    -0.041 A 
ATOM     11  C   UNL     1       0.114  -1.089  -0.937  0.00  0.00    +0.007 A 
ATOM     12  C   UNL     1       0.105  -0.644   0.372  0.00  0.00    -0.047 A 
ATOM     13  C   UNL     1       0.044   0.711   0.640  0.00  0.00    -0.040 A 
ATOM     14  C   UNL     1       0.165  -1.634   1.506  0.00  0.00    +0.044 C 
BRANCH  10  15
ATOM     15  C   UNL     1       0.069  -0.667  -3.403  0.00  0.00    -0.013 C 
ATOM     16  C   UNL     1       1.283  -0.087  -4.131  0.00  0.00    +0.015 C 
ATOM     17  C   UNL     1       0.145  -2.195  -3.421  0.00  0.00    +0.015 C 
ATOM     18  C   UNL     1      -1.212  -0.212  -4.106  0.00  0.00    +0.015 C 
ENDBRANCH  10  15
ENDBRANCH   6  13
ENDBRANCH   5   6
ENDBRANCH   1   5
BRANCH   2  19
ATOM     19  C   UNL     1      -2.579   2.407   6.036  0.00  0.00    +0.020 C 
BRANCH  19  20
ATOM     20  N   UNL     1      -3.964   2.495   6.519  0.00  0.00    +0.393 N 
ATOM     21  C   UNL     1      -4.672   3.578   5.805  0.00  0.00    -0.077 C 
ATOM     22  C   UNL     1      -5.613   4.202   6.865  0.00  0.00    -0.020 C 
ATOM     23  C   UNL     1      -4.737   4.128   8.144  0.00  0.00    -0.008 C 
ATOM     24  C   UNL     1      -3.968   2.802   7.961  0.00  0.00    +0.020 C 
ATOM     25  H   UNL     1      -4.437   1.618   6.358  0.00  0.00    -0.080 HD
BRANCH  24  26
ATOM     26  C   UNL     1      -2.553   2.958   8.456  0.00  0.00    +0.197 C 
ATOM     27  O   UNL     1      -1.814   3.767   7.935  0.00  0.00    -0.278 OA
ATOM     28  N   UNL     1      -2.109   2.199   9.477  0.00  0.00    -0.331 N 
ATOM     29  H   UNL     1      -2.700   1.552   9.893  0.00  0.00    +0.145 HD
ATOM     30  H   UNL     1      -1.198   2.300   9.796  0.00  0.00    +0.145 HD
ENDBRANCH  24  26
ENDBRANCH  19  20
ENDBRANCH   2  19
TORSDOF 7
