REMARK  Name = ZINC39685901
REMARK  13 active torsions:
REMARK  status: ('A' for Active; 'I' for Inactive)
REMARK    1  A    between atoms: C_1  and  C_2
REMARK    2  A    between atoms: C_5  and  C_8
REMARK    3  A    between atoms: C_8  and  C_9
REMARK    4  A    between atoms: C_13  and  C_22
REMARK    5  A    between atoms: N_24  and  C_25
REMARK    6  A    between atoms: C_25  and  C_27
REMARK    7  A    between atoms: C_25  and  C_30
REMARK    8  A    between atoms: C_27  and  C_28
REMARK    9  A    between atoms: C_27  and  C_29
REMARK   10  A    between atoms: N_32  and  C_33
REMARK   11  A    between atoms: C_33  and  C_34
REMARK   12  A    between atoms: C_33  and  C_35
REMARK   13  A    between atoms: C_33  and  C_36
REMARK                            x       y       z     vdW  Elec       q    Type
REMARK                         _______ _______ _______ _____ _____    ______ ____
ROOT
ATOM      1  C   UNL     1       0.373  -5.062   0.385  0.00  0.00    +0.220 C 
ATOM      2  O   UNL     1       0.988  -4.027   0.531  0.00  0.00    -0.275 OA
ATOM      3  N   UNL     1       1.038  -6.225   0.231  0.00  0.00    -0.300 N 
ATOM      4  C   UNL     1       0.467  -7.578   0.035  0.00  0.00    +0.121 C 
ATOM      5  C   UNL     1       1.397  -8.247  -1.002  0.00  0.00    +0.100 C 
ATOM      6  C   UNL     1       2.733  -7.496  -0.874  0.00  0.00    -0.004 C 
ATOM      7  C   UNL     1       2.505  -6.437   0.215  0.00  0.00    +0.115 C 
ATOM      8  C   UNL     1       3.087  -6.818  -2.194  0.00  0.00    -0.010 C 
ATOM      9  C   UNL     1       4.446  -6.126  -2.058  0.00  0.00    -0.082 C 
ATOM     10  N   UNL     1       5.469  -7.117  -1.704  0.00  0.00    +0.379 N 
ATOM     11  C   UNL     1       5.170  -7.697  -0.389  0.00  0.00    -0.082 C 
ATOM     12  C   UNL     1       3.842  -8.456  -0.454  0.00  0.00    -0.010 C 
ATOM     13  H   UNL     1       5.481  -7.849  -2.398  0.00  0.00    -0.086 HD
ATOM     14  H   UNL     1       6.373  -6.670  -1.675  0.00  0.00    -0.086 HD
ENDROOT
BRANCH   5  15
ATOM     15  C   UNL     1       0.834  -8.088  -2.391  0.00  0.00    +0.219 C 
ATOM     16  O   UNL     1       0.820  -9.033  -3.151  0.00  0.00    -0.275 OA
ATOM     17  N   UNL     1       0.347  -6.896  -2.788  0.00  0.00    -0.303 N 
ATOM     18  H   UNL     1       0.359  -6.140  -2.180  0.00  0.00    +0.149 HD
BRANCH  17  19
ATOM     19  C   UNL     1      -0.200  -6.741  -4.138  0.00  0.00    +0.161 C 
BRANCH  19  20
ATOM     20  C   UNL     1      -0.103  -5.297  -4.557  0.00  0.00    +0.234 C 
ATOM     21  O   UNL     1       0.375  -4.477  -3.802  0.00  0.00    -0.274 OA
ATOM     22  N   UNL     1      -0.549  -4.916  -5.771  0.00  0.00    -0.309 N 
ATOM     23  H   UNL     1      -0.932  -5.572  -6.375  0.00  0.00    +0.149 HD
BRANCH  22  24
ATOM     24  C   UNL     1      -0.455  -3.512  -6.178  0.00  0.00    +0.026 C 
ATOM     25  C   UNL     1       1.011  -3.075  -6.169  0.00  0.00    +0.031 C 
ATOM     26  C   UNL     1      -1.027  -3.350  -7.588  0.00  0.00    +0.031 C 
ATOM     27  C   UNL     1      -1.252  -2.644  -5.202  0.00  0.00    +0.031 C 
ENDBRANCH  22  24
ENDBRANCH  19  20
BRANCH  19  28
ATOM     28  C   UNL     1      -1.666  -7.178  -4.148  0.00  0.00    +0.012 C 
ATOM     29  C   UNL     1      -1.764  -8.645  -3.722  0.00  0.00    +0.009 C 
ATOM     30  C   UNL     1      -2.463  -6.310  -3.172  0.00  0.00    +0.009 C 
ENDBRANCH  19  28
ENDBRANCH  17  19
ENDBRANCH   5  15
BRANCH   1  31
ATOM     31  C   UNL     1      -1.134  -5.049   0.373  0.00  0.00    +0.131 C 
BRANCH  31  36
ATOM     32  C   UNL     1      -3.021   0.365   1.097  0.00  0.00    +0.044 C 
ATOM     33  C   UNL     1      -2.528  -1.047   0.908  0.00  0.00    -0.050 A 
ATOM     34  C   UNL     1      -2.292  -1.532  -0.364  0.00  0.00    +0.003 A 
ATOM     35  C   UNL     1      -1.840  -2.827  -0.537  0.00  0.00    +0.004 A 
ATOM     36  C   UNL     1      -1.625  -3.637   0.562  0.00  0.00    -0.039 A 
ATOM     37  C   UNL     1      -1.861  -3.151   1.835  0.00  0.00    +0.004 A 
ATOM     38  C   UNL     1      -2.308  -1.855   2.008  0.00  0.00    +0.003 A 
ENDBRANCH  31  36
ENDBRANCH   1  31
TORSDOF 7
