REMARK  Name = ZINC39606506
REMARK  10 active torsions:
REMARK  status: ('A' for Active; 'I' for Inactive)
REMARK    1  A    between atoms: C_1  and  C_2
REMARK    2  A    between atoms: C_2  and  C_3
REMARK    3  A    between atoms: C_3  and  C_5
REMARK    4  A    between atoms: C_3  and  C_6
REMARK    5  A    between atoms: C_6  and  N_7
REMARK    6  A    between atoms: C_8  and  C_10
REMARK    7  A    between atoms: C_21  and  C_23
REMARK    8  A    between atoms: C_25  and  C_30
REMARK    9  A    between atoms: N_27  and  C_28
REMARK   10  A    between atoms: C_28  and  C_29
REMARK                            x       y       z     vdW  Elec       q    Type
REMARK                         _______ _______ _______ _____ _____    ______ ____
ROOT
ATOM      1  C   UNL     1      -4.592  -4.536  -0.520  0.00  0.00    +0.100 C 
ATOM      2  C   UNL     1      -5.201  -4.098  -1.871  0.00  0.00    +0.121 C 
ATOM      3  N   UNL     1      -4.817  -5.169  -2.820  0.00  0.00    -0.295 N 
ATOM      4  C   UNL     1      -4.958  -6.422  -2.039  0.00  0.00    +0.115 C 
ATOM      5  C   UNL     1      -4.438  -6.062  -0.633  0.00  0.00    -0.004 C 
ATOM      6  C   UNL     1      -5.276  -6.758   0.435  0.00  0.00    -0.010 C 
ATOM      7  C   UNL     1      -5.061  -8.271   0.340  0.00  0.00    -0.082 C 
ATOM      8  N   UNL     1      -3.638  -8.578   0.530  0.00  0.00    +0.379 N 
ATOM      9  C   UNL     1      -2.849  -7.982  -0.554  0.00  0.00    -0.082 C 
ATOM     10  C   UNL     1      -2.970  -6.457  -0.497  0.00  0.00    -0.010 C 
ATOM     11  C   UNL     1      -4.427  -5.036  -4.103  0.00  0.00    +0.266 C 
ATOM     12  O   UNL     1      -4.229  -6.024  -4.784  0.00  0.00    -0.268 OA
ATOM     13  H   UNL     1      -3.330  -8.203   1.415  0.00  0.00    -0.086 HD
ATOM     14  H   UNL     1      -3.508  -9.579   0.528  0.00  0.00    -0.086 HD
ENDROOT
BRANCH  11  15
ATOM     15  C   UNL     1      -4.243  -3.696  -4.680  0.00  0.00    +0.138 A 
ATOM     16  C   UNL     1      -3.060  -2.978  -4.754  0.00  0.00    +0.071 A 
ATOM     17  C   UNL     1      -3.397  -1.775  -5.381  0.00  0.00    +0.075 A 
ATOM     18  N   UNL     1      -4.679  -1.804  -5.644  0.00  0.00    -0.175 NA
ATOM     19  N   UNL     1      -5.202  -2.910  -5.255  0.00  0.00    -0.258 N 
ATOM     20  C   UNL     1      -2.452  -0.644  -5.697  0.00  0.00    +0.069 C 
ATOM     21 BR   UNL     1      -1.354  -3.512  -4.139  0.00  0.00    -0.046 Br
BRANCH  19  22
ATOM     22  C   UNL     1      -6.614  -3.274  -5.402  0.00  0.00    +0.141 C 
ATOM     23  C   UNL     1      -7.417  -2.681  -4.242  0.00  0.00    +0.029 C 
ENDBRANCH  19  22
ENDBRANCH  11  15
BRANCH   1  25
ATOM     24  N   UNL     1      -2.738  -3.769   0.927  0.00  0.00    -0.315 N 
ATOM     25  C   UNL     1      -3.247  -3.887  -0.315  0.00  0.00    +0.218 C 
ATOM     26  O   UNL     1      -2.623  -3.470  -1.268  0.00  0.00    -0.275 OA
ATOM     27  H   UNL     1      -3.268  -4.035   1.696  0.00  0.00    +0.149 HD
BRANCH  24  28
ATOM     28  C   UNL     1      -1.386  -3.238   1.118  0.00  0.00    +0.107 C 
BRANCH  28  29
ATOM     29  C   UNL     1      -1.055  -3.209   2.611  0.00  0.00    +0.003 C 
ATOM     30  C   UNL     1      -1.008  -4.640   3.151  0.00  0.00    +0.009 C 
BRANCH  29  32
ATOM     31  C   UNL     1       0.580  -2.400   4.318  0.00  0.00    +0.004 C 
ATOM     32  C   UNL     1       0.305  -2.541   2.819  0.00  0.00    +0.001 C 
ENDBRANCH  29  32
ENDBRANCH  28  29
ENDBRANCH  24  28
ENDBRANCH   1  25
TORSDOF 6
