REMARK  Name = ZINC38657860
REMARK  10 active torsions:
REMARK  status: ('A' for Active; 'I' for Inactive)
REMARK    1  A    between atoms: C_1  and  C_2
REMARK    2  A    between atoms: C_4  and  O_10
REMARK    3  A    between atoms: C_6  and  C_9
REMARK    4  A    between atoms: O_10  and  C_11
REMARK    5  A    between atoms: C_11  and  C_12
REMARK    6  A    between atoms: C_12  and  O_14
REMARK    7  A    between atoms: O_14  and  C_15
REMARK    8  A    between atoms: C_22  and  N_38
REMARK    9  A    between atoms: C_23  and  C_36
REMARK   10  A    between atoms: C_24  and  C_26
REMARK                            x       y       z     vdW  Elec       q    Type
REMARK                         _______ _______ _______ _____ _____    ______ ____
ROOT
ATOM      1  C   UNL     1       0.028  -6.659  -5.122  0.00  0.00    +0.135 A 
ATOM      2  C   UNL     1       0.053  -5.848  -6.247  0.00  0.00    +0.047 A 
ATOM      3  C   UNL     1       0.022  -6.413  -7.506  0.00  0.00    +0.012 A 
ATOM      4  C   UNL     1      -0.035  -7.788  -7.652  0.00  0.00    +0.008 A 
ATOM      5  C   UNL     1      -0.059  -8.603  -6.532  0.00  0.00    +0.138 A 
ATOM      6  C   UNL     1      -0.022  -8.036  -5.264  0.00  0.00    +0.093 A 
ATOM      7  O   UNL     1      -0.114  -9.953  -6.654  0.00  0.00    -0.441 OA
ATOM      8  C   UNL     1       0.237 -10.535  -7.813  0.00  0.00    +0.199 C 
ATOM      9  C   UNL     1       0.279  -9.846  -8.978  0.00  0.00    +0.098 C 
ATOM     10  C   UNL     1      -0.069  -8.385  -9.034  0.00  0.00    +0.098 C 
ENDROOT
BRANCH  10  11
ATOM     11  C   UNL     1      -1.450  -8.222  -9.614  0.00  0.00    -0.027 A 
ATOM     12  C   UNL     1      -2.536  -8.683  -8.936  0.00  0.00    +0.005 A 
ATOM     13  C   UNL     1      -3.821  -8.542  -9.456  0.00  0.00    +0.001 A 
ATOM     14  C   UNL     1      -4.027  -7.939 -10.659  0.00  0.00    +0.008 A 
ATOM     15  C   UNL     1      -2.930  -7.450 -11.389  0.00  0.00    -0.018 A 
ATOM     16  C   UNL     1      -1.624  -7.589 -10.856  0.00  0.00    -0.014 A 
ATOM     17  C   UNL     1      -0.528  -7.095 -11.584  0.00  0.00    +0.009 A 
ATOM     18  C   UNL     1      -0.735  -6.486 -12.784  0.00  0.00    +0.001 A 
ATOM     19  C   UNL     1      -2.020  -6.344 -13.304  0.00  0.00    +0.001 A 
ATOM     20  C   UNL     1      -3.104  -6.822 -12.634  0.00  0.00    +0.008 A 
ENDBRANCH  10  11
BRANCH   8  21
ATOM     21  N   UNL     1       0.563 -11.868  -7.816  0.00  0.00    -0.328 N 
ATOM     22  H   UNL     1       0.538 -12.376  -6.989  0.00  0.00    +0.145 HD
ATOM     23  H   UNL     1       0.818 -12.303  -8.644  0.00  0.00    +0.145 HD
ENDBRANCH   8  21
BRANCH   9  24
ATOM     24  C   UNL     1       0.662 -10.523 -10.180  0.00  0.00    +0.101 C 
ATOM     25  N   UNL     1       0.966 -11.060 -11.134  0.00  0.00    -0.191 NA
ENDBRANCH   9  24
BRANCH   1  26
ATOM     26  O   UNL     1       0.058  -6.104  -3.881  0.00  0.00    -0.423 OA
BRANCH  26  27
ATOM     27  C   UNL     1      -1.074  -5.561  -3.406  0.00  0.00    +0.350 C 
ATOM     28  O   UNL     1      -2.054  -5.495  -4.109  0.00  0.00    -0.247 OA
BRANCH  27  29
ATOM     29  C   UNL     1      -1.122  -5.033  -1.995  0.00  0.00    +0.349 C 
BRANCH  29  30
ATOM     30  O   UNL     1      -2.424  -4.509  -1.727  0.00  0.00    -0.481 OA
BRANCH  30  34
ATOM     31  C   UNL     1      -5.441  -2.365   1.455  0.00  0.00    +0.045 C 
ATOM     32  C   UNL     1      -4.093  -2.937   1.098  0.00  0.00    -0.028 A 
ATOM     33  C   UNL     1      -3.878  -3.464  -0.161  0.00  0.00    +0.050 A 
ATOM     34  C   UNL     1      -2.637  -3.990  -0.489  0.00  0.00    +0.122 A 
ATOM     35  C   UNL     1      -1.614  -3.986   0.448  0.00  0.00    +0.050 A 
ATOM     36  C   UNL     1      -1.833  -3.458   1.706  0.00  0.00    -0.028 A 
ATOM     37  C   UNL     1      -3.070  -2.929   2.030  0.00  0.00    +0.047 A 
ATOM     38 CL   UNL     1      -3.340  -2.261   3.609  0.00  0.00    -0.083 Cl
ATOM     39  C   UNL     1      -0.722  -3.453   2.724  0.00  0.00    +0.045 C 
ENDBRANCH  30  34
ENDBRANCH  29  30
ENDBRANCH  27  29
ENDBRANCH  26  27
ENDBRANCH   1  26
TORSDOF 8
