REMARK  Name = ZINC15735504
REMARK  7 active torsions:
REMARK  status: ('A' for Active; 'I' for Inactive)
REMARK    1  A    between atoms: C_1  and  O_2
REMARK    2  A    between atoms: O_2  and  C_3
REMARK    3  A    between atoms: C_7  and  C_9
REMARK    4  A    between atoms: N_29  and  C_30
REMARK    5  A    between atoms: C_33  and  C_36
REMARK    6  A    between atoms: C_36  and  O_38
REMARK    7  A    between atoms: O_38  and  C_39
REMARK                            x       y       z     vdW  Elec       q    Type
REMARK                         _______ _______ _______ _____ _____    ______ ____
ROOT
ATOM      1  C   UNL     1      -6.195   7.432   0.400  0.00  0.00    +0.155 C 
ATOM      2  C   UNL     1      -7.479   7.691  -0.336  0.00  0.00    +0.049 A 
ATOM      3  C   UNL     1      -7.695   8.397  -1.456  0.00  0.00    +0.025 A 
ATOM      4  C   UNL     1      -9.088   8.411  -1.685  0.00  0.00    +0.020 A 
ATOM      5  C   UNL     1      -9.671   7.697  -0.696  0.00  0.00    +0.092 A 
ATOM      6  N   UNL     1      -8.694   7.230   0.116  0.00  0.00    -0.312 N 
ATOM      7  C   UNL     1      -8.740   6.404   1.231  0.00  0.00    +0.090 A 
ATOM      8  C   UNL     1      -7.895   5.358   1.441  0.00  0.00    +0.005 A 
ATOM      9  C   UNL     1      -8.047   4.651   2.651  0.00  0.00    -0.030 A 
ATOM     10  C   UNL     1      -9.038   5.045   3.493  0.00  0.00    -0.005 A 
ATOM     11  S   UNL     1      -9.782   6.423   2.658  0.00  0.00    -0.075 S 
ATOM     12  C   UNL     1      -9.403   4.452   4.815  0.00  0.00    +0.043 C 
ATOM     13  C   UNL     1      -8.713   3.085   4.937  0.00  0.00    +0.005 C 
ATOM     14  C   UNL     1      -7.244   3.239   4.530  0.00  0.00    +0.005 C 
ATOM     15  C   UNL     1      -7.142   3.479   3.023  0.00  0.00    +0.036 C 
ATOM     16  C   UNL     1      -6.854   5.002   0.404  0.00  0.00    +0.148 C 
ATOM     17  N   UNL     1      -5.784   6.011   0.301  0.00  0.00    -0.268 N 
ATOM     18  C   UNL     1      -4.495   5.659   0.130  0.00  0.00    +0.308 C 
ATOM     19  O   UNL     1      -3.636   6.516   0.049  0.00  0.00    -0.252 OA
ATOM     20  N   UNL     1      -4.157   4.357   0.050  0.00  0.00    -0.269 N 
ATOM     21  H   UNL     1      -4.848   3.676   0.040  0.00  0.00    +0.156 HD
ENDROOT
BRANCH   1  26
ATOM     22  C   UNL     1      -7.392   9.149   3.546  0.00  0.00    +0.120 A 
ATOM     23  C   UNL     1      -6.703   8.444   4.523  0.00  0.00    +0.045 A 
ATOM     24  C   UNL     1      -5.855   7.416   4.161  0.00  0.00    +0.004 A 
ATOM     25  C   UNL     1      -5.691   7.089   2.828  0.00  0.00    +0.006 A 
ATOM     26  C   UNL     1      -6.376   7.791   1.853  0.00  0.00    -0.018 A 
ATOM     27  C   UNL     1      -7.222   8.823   2.209  0.00  0.00    +0.051 A 
BRANCH  22  29
ATOM     28  C   UNL     1      -8.349  10.445   5.295  0.00  0.00    +0.277 C 
ATOM     29  O   UNL     1      -8.227  10.161   3.900  0.00  0.00    -0.495 OA
ENDBRANCH  22  29
ENDBRANCH   1  26
BRANCH  20  30
ATOM     30  C   UNL     1      -2.814   3.988  -0.020  0.00  0.00    +0.035 A 
ATOM     31  C   UNL     1      -1.850   4.754   0.629  0.00  0.00    +0.024 A 
ATOM     32  C   UNL     1      -0.523   4.393   0.562  0.00  0.00    +0.017 A 
ATOM     33  C   UNL     1      -0.145   3.255  -0.158  0.00  0.00    +0.059 A 
ATOM     34  C   UNL     1      -1.116   2.491  -0.812  0.00  0.00    +0.017 A 
ATOM     35  C   UNL     1      -2.441   2.855  -0.737  0.00  0.00    +0.024 A 
BRANCH  33  36
ATOM     36  C   UNL     1       1.275   2.866  -0.232  0.00  0.00    +0.339 C 
ATOM     37  O   UNL     1       2.119   3.534   0.333  0.00  0.00    -0.245 OA
BRANCH  36  38
ATOM     38  O   UNL     1       1.637   1.766  -0.921  0.00  0.00    -0.464 OA
ATOM     39  C   UNL     1       3.052   1.440  -0.946  0.00  0.00    +0.280 C 
ENDBRANCH  36  38
ENDBRANCH  33  36
ENDBRANCH  20  30
TORSDOF 5
