REMARK  Name = ZINC39683060
REMARK  10 active torsions:
REMARK  status: ('A' for Active; 'I' for Inactive)
REMARK    1  A    between atoms: C_1  and  O_2
REMARK    2  A    between atoms: O_2  and  C_3
REMARK    3  A    between atoms: C_6  and  O_34
REMARK    4  A    between atoms: C_7  and  C_9
REMARK    5  A    between atoms: C_9  and  N_10
REMARK    6  A    between atoms: C_11  and  C_13
REMARK    7  A    between atoms: C_24  and  C_26
REMARK    8  A    between atoms: C_30  and  O_31
REMARK    9  A    between atoms: O_31  and  C_32
REMARK   10  A    between atoms: O_34  and  C_35
REMARK                            x       y       z     vdW  Elec       q    Type
REMARK                         _______ _______ _______ _____ _____    ______ ____
ROOT
ATOM      1  C   UNL     1      -0.845  -6.466   4.283  0.00  0.00    +0.100 C 
ATOM      2  C   UNL     1      -2.244  -6.003   3.819  0.00  0.00    +0.121 C 
ATOM      3  N   UNL     1      -2.761  -7.129   3.006  0.00  0.00    -0.296 N 
ATOM      4  C   UNL     1      -2.319  -8.342   3.735  0.00  0.00    +0.115 C 
ATOM      5  C   UNL     1      -0.899  -8.002   4.230  0.00  0.00    -0.004 C 
ATOM      6  C   UNL     1      -0.670  -8.587   5.620  0.00  0.00    -0.010 C 
ATOM      7  C   UNL     1      -0.670 -10.116   5.532  0.00  0.00    -0.082 C 
ATOM      8  N   UNL     1       0.387 -10.555   4.613  0.00  0.00    +0.379 N 
ATOM      9  C   UNL     1       0.109 -10.064   3.258  0.00  0.00    -0.082 C 
ATOM     10  C   UNL     1       0.142  -8.534   3.250  0.00  0.00    -0.010 C 
ATOM     11  C   UNL     1      -3.472  -7.065   1.863  0.00  0.00    +0.251 C 
ATOM     12  O   UNL     1      -3.675  -5.989   1.333  0.00  0.00    -0.270 OA
ATOM     13  H   UNL     1       1.275 -10.191   4.926  0.00  0.00    -0.086 HD
ATOM     14  H   UNL     1       0.425 -11.563   4.603  0.00  0.00    -0.086 HD
ENDROOT
BRANCH  11  15
ATOM     15  C   UNL     1      -4.002  -8.295   1.257  0.00  0.00    +0.087 A 
ATOM     16  C   UNL     1      -4.438  -9.350   2.028  0.00  0.00    +0.063 A 
ATOM     17  S   UNL     1      -4.940 -10.499   0.913  0.00  0.00    -0.081 S 
ATOM     18  C   UNL     1      -4.595  -9.634  -0.603  0.00  0.00    +0.120 A 
ATOM     19  C   UNL     1      -4.095  -8.453  -0.177  0.00  0.00    +0.158 A 
ATOM     20 CL   UNL     1      -4.846 -10.175  -2.234  0.00  0.00    -0.072 Cl
BRANCH  19  21
ATOM     21  O   UNL     1      -3.701  -7.477  -1.041  0.00  0.00    -0.492 OA
ATOM     22  C   UNL     1      -2.340  -7.506  -1.475  0.00  0.00    +0.277 C 
ENDBRANCH  19  21
ENDBRANCH  11  15
BRANCH   1  24
ATOM     23  N   UNL     1       1.452  -5.677   3.815  0.00  0.00    -0.311 N 
ATOM     24  C   UNL     1       0.216  -5.945   3.349  0.00  0.00    +0.218 C 
ATOM     25  O   UNL     1      -0.041  -5.768   2.177  0.00  0.00    -0.275 OA
ATOM     26  H   UNL     1       1.658  -5.819   4.752  0.00  0.00    +0.149 HD
BRANCH  23  27
ATOM     27  C   UNL     1       2.484  -5.171   2.907  0.00  0.00    +0.143 C 
BRANCH  27  32
ATOM     28  C   UNL     1       5.291  -3.484   4.791  0.00  0.00    +0.121 A 
ATOM     29  C   UNL     1       6.119  -4.560   5.078  0.00  0.00    +0.049 A 
ATOM     30  C   UNL     1       5.770  -5.830   4.661  0.00  0.00    +0.049 A 
ATOM     31  C   UNL     1       4.592  -6.029   3.957  0.00  0.00    +0.125 A 
ATOM     32  C   UNL     1       3.764  -4.954   3.671  0.00  0.00    +0.015 A 
ATOM     33  C   UNL     1       4.111  -3.685   4.092  0.00  0.00    +0.054 A 
BRANCH  28  35
ATOM     34  C   UNL     1       6.865  -2.100   5.916  0.00  0.00    +0.277 C 
ATOM     35  O   UNL     1       5.635  -2.234   5.201  0.00  0.00    -0.495 OA
ENDBRANCH  28  35
BRANCH  31  36
ATOM     36  O   UNL     1       4.249  -7.279   3.547  0.00  0.00    -0.495 OA
ATOM     37  C   UNL     1       5.148  -8.340   3.876  0.00  0.00    +0.277 C 
ENDBRANCH  31  36
ENDBRANCH  27  32
ENDBRANCH  23  27
ENDBRANCH   1  24
TORSDOF 7
