REMARK  Name = ZINC63437510
REMARK  12 active torsions:
REMARK  status: ('A' for Active; 'I' for Inactive)
REMARK    1  A    between atoms: C_1  and  C_2
REMARK    2  A    between atoms: C_2  and  O_3
REMARK    3  A    between atoms: O_3  and  C_4
REMARK    4  A    between atoms: N_6  and  C_7
REMARK    5  A    between atoms: C_7  and  C_9
REMARK    6  A    between atoms: C_7  and  C_19
REMARK    7  A    between atoms: C_9  and  C_10
REMARK    8  A    between atoms: N_21  and  C_22
REMARK    9  A    between atoms: C_22  and  C_23
REMARK   10  A    between atoms: C_23  and  C_24
REMARK   11  A    between atoms: C_27  and  S_30
REMARK   12  A    between atoms: S_30  and  N_33
REMARK                            x       y       z     vdW  Elec       q    Type
REMARK                         _______ _______ _______ _____ _____    ______ ____
ROOT
ATOM      1  C   UNL     1      -2.907  -3.823   0.009  0.00  0.00    +0.166 C 
ENDROOT
BRANCH   1   4
ATOM      2  C   UNL     1      -1.497  -1.836   0.006  0.00  0.00    +0.401 C 
ATOM      3  O   UNL     1      -0.523  -2.563  -0.007  0.00  0.00    -0.226 OA
ATOM      4  N   UNL     1      -2.735  -2.368   0.015  0.00  0.00    -0.270 N 
ATOM      5  H   UNL     1      -3.512  -1.787   0.026  0.00  0.00    +0.153 HD
BRANCH   2   6
ATOM      6  O   UNL     1      -1.339  -0.499   0.012  0.00  0.00    -0.451 OA
BRANCH   6   8
ATOM      7  C   UNL     1      -0.019   1.526   0.010  0.00  0.00    +0.048 C 
ATOM      8  C   UNL     1       0.002  -0.004   0.002  0.00  0.00    +0.230 C 
ENDBRANCH   6   8
ENDBRANCH   2   6
ENDBRANCH   1   4
BRANCH   1   9
ATOM      9  C   UNL     1      -2.273  -4.398  -1.230  0.00  0.00    +0.234 C 
ATOM     10  O   UNL     1      -1.437  -3.761  -1.835  0.00  0.00    -0.274 OA
ATOM     11  N   UNL     1      -2.634  -5.621  -1.667  0.00  0.00    -0.313 N 
ATOM     12  H   UNL     1      -3.303  -6.131  -1.183  0.00  0.00    +0.149 HD
BRANCH  11  13
ATOM     13  C   UNL     1      -2.017  -6.181  -2.872  0.00  0.00    +0.109 C 
BRANCH  13  14
ATOM     14  C   UNL     1      -2.600  -7.569  -3.146  0.00  0.00    +0.054 C 
BRANCH  14  15
ATOM     15  C   UNL     1      -1.965  -8.145  -4.385  0.00  0.00    -0.046 A 
ATOM     16  C   UNL     1      -2.532  -7.910  -5.624  0.00  0.00    +0.005 A 
ATOM     17  C   UNL     1      -1.950  -8.438  -6.761  0.00  0.00    +0.029 A 
ATOM     18  C   UNL     1      -0.801  -9.200  -6.660  0.00  0.00    +0.105 A 
ATOM     19  C   UNL     1      -0.234  -9.434  -5.421  0.00  0.00    +0.029 A 
ATOM     20  C   UNL     1      -0.813  -8.902  -4.284  0.00  0.00    +0.005 A 
BRANCH  18  21
ATOM     21  S   UNL     1      -0.059  -9.874  -8.109  0.00  0.00    +0.056 S 
ATOM     22  O   UNL     1       0.698 -11.002  -7.691  0.00  0.00    -0.153 OA
ATOM     23  O   UNL     1      -1.087  -9.967  -9.086  0.00  0.00    -0.153 OA
BRANCH  21  24
ATOM     24  N   UNL     1       1.026  -8.756  -8.669  0.00  0.00    -0.204 NA
ATOM     25  H   UNL     1       1.818  -9.047  -9.148  0.00  0.00    +0.144 HD
ATOM     26  H   UNL     1       0.870  -7.811  -8.518  0.00  0.00    +0.144 HD
ENDBRANCH  21  24
ENDBRANCH  18  21
ENDBRANCH  14  15
ENDBRANCH  13  14
ENDBRANCH  11  13
ENDBRANCH   1   9
BRANCH   1  27
ATOM     27  C   UNL     1      -2.239  -4.420   1.249  0.00  0.00    +0.065 C 
BRANCH  27  28
ATOM     28  C   UNL     1      -2.953  -3.940   2.486  0.00  0.00    -0.039 C 
ATOM     29  C   UNL     1      -3.937  -4.580   3.158  0.00  0.00    -0.001 A 
ATOM     30  C   UNL     1      -4.612  -5.867   2.945  0.00  0.00    +0.010 A 
ATOM     31  C   UNL     1      -5.583  -6.248   3.806  0.00  0.00    +0.001 A 
ATOM     32  C   UNL     1      -5.960  -5.448   4.893  0.00  0.00    +0.002 A 
ATOM     33  C   UNL     1      -5.387  -4.254   5.153  0.00  0.00    +0.026 A 
ATOM     34  C   UNL     1      -4.354  -3.754   4.313  0.00  0.00    +0.043 A 
ATOM     35  N   UNL     1      -3.655  -2.645   4.354  0.00  0.00    -0.380 N 
ATOM     36  C   UNL     1      -2.711  -2.646   3.231  0.00  0.00    +0.144 C 
ATOM     37  H   UNL     1      -3.745  -1.944   5.017  0.00  0.00    +0.160 HD
ENDBRANCH  27  28
ENDBRANCH   1  27
TORSDOF 11
