REMARK  Name = ZINC28101593
REMARK  14 active torsions:
REMARK  status: ('A' for Active; 'I' for Inactive)
REMARK    1  A    between atoms: C_1  and  C_2
REMARK    2  A    between atoms: C_2  and  C_3
REMARK    3  A    between atoms: C_3  and  C_5
REMARK    4  A    between atoms: C_3  and  N_20
REMARK    5  A    between atoms: N_7  and  C_8
REMARK    6  A    between atoms: C_8  and  C_10
REMARK    7  A    between atoms: C_8  and  C_14
REMARK    8  A    between atoms: C_10  and  C_11
REMARK    9  A    between atoms: C_14  and  C_16
REMARK   10  A    between atoms: C_16  and  N_17
REMARK   11  A    between atoms: N_17  and  C_18
REMARK   12  A    between atoms: N_17  and  C_19
REMARK   13  A    between atoms: C_24  and  N_27
REMARK   14  A    between atoms: C_28  and  C_30
REMARK                            x       y       z     vdW  Elec       q    Type
REMARK                         _______ _______ _______ _____ _____    ______ ____
ROOT
ATOM      1  N   UNL     1      -0.718   1.877  -0.305  0.00  0.00    -0.302 N 
ATOM      2  C   UNL     1       0.395   2.549  -0.705  0.00  0.00    +0.090 A 
ATOM      3  C   UNL     1       1.545   1.888  -0.971  0.00  0.00    +0.020 A 
ATOM      4  C   UNL     1       1.601   0.494  -0.835  0.00  0.00    +0.030 A 
ATOM      5  C   UNL     1       0.483  -0.184  -0.432  0.00  0.00    +0.099 A 
ATOM      6  C   UNL     1      -0.700   0.538  -0.164  0.00  0.00    +0.273 A 
ATOM      7  O   UNL     1      -1.707  -0.051   0.197  0.00  0.00    -0.266 OA
ENDROOT
BRANCH   5   8
ATOM      8  N   UNL     1       0.512  -1.577  -0.289  0.00  0.00    -0.277 N 
ATOM      9  C   UNL     1       0.235  -2.137   0.905  0.00  0.00    +0.248 C 
ATOM     10  O   UNL     1      -0.131  -1.442   1.833  0.00  0.00    -0.270 OA
ATOM     11  H   UNL     1       0.761  -2.213  -1.151  0.00  0.00    +0.155 HD
BRANCH   9  12
ATOM     12  C   UNL     1       0.375  -3.597   1.087  0.00  0.00    +0.038 A 
ATOM     13  C   UNL     1       0.792  -4.397   0.008  0.00  0.00    +0.013 A 
ATOM     14  C   UNL     1       0.935  -5.739   0.151  0.00  0.00    +0.009 A 
ATOM     15  C   UNL     1       0.651  -6.349   1.387  0.00  0.00    -0.018 A 
ATOM     16  C   UNL     1       0.783  -7.737   1.558  0.00  0.00    +0.008 A 
ATOM     17  C   UNL     1       0.502  -8.299   2.765  0.00  0.00    +0.001 A 
ATOM     18  C   UNL     1       0.083  -7.518   3.841  0.00  0.00    +0.001 A 
ATOM     19  C   UNL     1      -0.058  -6.170   3.713  0.00  0.00    +0.008 A 
ATOM     20  C   UNL     1       0.224  -5.554   2.481  0.00  0.00    -0.017 A 
ATOM     21  C   UNL     1       0.088  -4.167   2.316  0.00  0.00    +0.021 A 
ENDBRANCH   9  12
ENDBRANCH   5   8
BRANCH   1  22
ATOM     22  C   UNL     1      -1.951   2.618  -0.030  0.00  0.00    +0.175 C 
BRANCH  22  23
ATOM     23  C   UNL     1      -1.705   3.609   1.078  0.00  0.00    +0.237 C 
ATOM     24  O   UNL     1      -0.608   3.689   1.589  0.00  0.00    -0.274 OA
ATOM     25  N   UNL     1      -2.705   4.407   1.503  0.00  0.00    -0.304 N 
ATOM     26  H   UNL     1      -3.719   4.281   1.097  0.00  0.00    +0.149 HD
BRANCH  25  27
ATOM     27  C   UNL     1      -2.440   5.443   2.504  0.00  0.00    +0.148 C 
BRANCH  27  28
ATOM     28  C   UNL     1      -3.731   5.833   3.178  0.00  0.00    +0.138 C 
ATOM     29  O   UNL     1      -4.787   5.514   2.687  0.00  0.00    -0.297 OA
BRANCH  28  30
ATOM     30  C   UNL     1      -3.703   6.619   4.463  0.00  0.00    -0.002 C 
BRANCH  30  31
ATOM     31  N   UNL     1      -5.078   6.870   4.913  0.00  0.00    +0.381 N 
ATOM     32  C   UNL     1      -5.748   5.617   5.285  0.00  0.00    -0.096 C 
ATOM     33  C   UNL     1      -5.101   7.829   6.026  0.00  0.00    -0.096 C 
ATOM     34  H   UNL     1      -5.633   7.314   4.074  0.00  0.00    -0.082 HD
ENDBRANCH  30  31
ENDBRANCH  28  30
ENDBRANCH  27  28
BRANCH  27  35
ATOM     35  C   UNL     1      -1.831   6.670   1.821  0.00  0.00    +0.155 C 
BRANCH  35  36
ATOM     36  C   UNL     1      -2.753   7.145   0.728  0.00  0.00    +0.358 C 
ATOM     37  O   UNL     1      -3.821   6.604   0.560  0.00  0.00    -0.246 OA
ATOM     38  O   UNL     1      -2.388   8.168  -0.060  0.00  0.00    -0.246 OA
ENDBRANCH  35  36
ENDBRANCH  27  35
ENDBRANCH  25  27
ENDBRANCH  22  23
BRANCH  22  40
ATOM     39  C   UNL     1      -2.759   2.352  -2.379  0.00  0.00    +0.006 C 
ATOM     40  C   UNL     1      -2.390   3.364  -1.292  0.00  0.00    +0.031 C 
ENDBRANCH  22  40
ENDBRANCH   1  22
TORSDOF 11
