REMARK  Name = ZINC67576157
REMARK  7 active torsions:
REMARK  status: ('A' for Active; 'I' for Inactive)
REMARK    1  A    between atoms: C_1  and  C_2
REMARK    2  A    between atoms: N_4  and  C_5
REMARK    3  A    between atoms: C_8  and  N_12
REMARK    4  A    between atoms: N_15  and  C_16
REMARK    5  A    between atoms: C_16  and  C_17
REMARK    6  A    between atoms: C_17  and  C_18
REMARK    7  A    between atoms: N_20  and  C_21
REMARK                            x       y       z     vdW  Elec       q    Type
REMARK                         _______ _______ _______ _____ _____    ______ ____
ROOT
ATOM      1  N   UNL     1      -0.122  -6.232  -0.826  0.00  0.00    -0.268 N 
ATOM      2  C   UNL     1      -0.282  -6.830   0.371  0.00  0.00    +0.304 C 
ATOM      3  O   UNL     1      -0.310  -6.161   1.386  0.00  0.00    -0.253 OA
ATOM      4  N   UNL     1      -0.413  -8.169   0.443  0.00  0.00    -0.299 N 
ATOM      5  H   UNL     1      -0.034  -6.770  -1.629  0.00  0.00    +0.156 HD
ATOM      6  H   UNL     1      -0.391  -8.703  -0.366  0.00  0.00    +0.150 HD
ENDROOT
BRANCH   1  10
ATOM      7  C   UNL     1      -0.003  -2.070  -1.081  0.00  0.00    +0.035 A 
ATOM      8  C   UNL     1       0.536  -2.714   0.025  0.00  0.00    +0.025 A 
ATOM      9  C   UNL     1       0.497  -4.092   0.109  0.00  0.00    +0.026 A 
ATOM     10  C   UNL     1      -0.083  -4.833  -0.911  0.00  0.00    +0.053 A 
ATOM     11  C   UNL     1      -0.623  -4.189  -2.018  0.00  0.00    +0.064 A 
ATOM     12  C   UNL     1      -0.588  -2.811  -2.099  0.00  0.00    +0.045 A 
ATOM     13 CL   UNL     1      -1.347  -5.116  -3.294  0.00  0.00    -0.082 Cl
BRANCH   7  17
ATOM     14  C   UNL     1      -0.989   1.505  -1.734  0.00  0.00    +0.109 C 
ATOM     15  C   UNL     1      -0.984  -0.002  -1.735  0.00  0.00    +0.214 C 
ATOM     16  O   UNL     1      -1.899  -0.611  -2.247  0.00  0.00    -0.276 OA
ATOM     17  N   UNL     1       0.037  -0.672  -1.165  0.00  0.00    -0.286 N 
ATOM     18  H   UNL     1       0.800  -0.187  -0.815  0.00  0.00    +0.155 HD
ENDBRANCH   7  17
ENDBRANCH   1  10
BRANCH   4  19
ATOM     19  C   UNL     1      -0.587  -8.819   1.744  0.00  0.00    +0.115 C 
BRANCH  19  20
ATOM     20  C   UNL     1      -0.709 -10.332   1.547  0.00  0.00    +0.114 C 
BRANCH  20  21
ATOM     21  C   UNL     1      -0.889 -11.000   2.886  0.00  0.00    +0.215 C 
ATOM     22  O   UNL     1      -0.916 -10.333   3.898  0.00  0.00    -0.276 OA
ATOM     23  N   UNL     1      -1.019 -12.340   2.958  0.00  0.00    -0.312 N 
ATOM     24  H   UNL     1      -0.997 -12.873   2.148  0.00  0.00    +0.149 HD
BRANCH  23  25
ATOM     25  C   UNL     1      -1.193 -12.990   4.259  0.00  0.00    +0.073 C 
ATOM     26  C   UNL     1       0.177 -13.235   4.894  0.00  0.00    +0.022 C 
ATOM     27  C   UNL     1      -0.005 -13.914   6.253  0.00  0.00    +0.002 C 
ATOM     28  C   UNL     1      -0.727 -15.250   6.064  0.00  0.00    +0.000 C 
ATOM     29  C   UNL     1      -2.097 -15.004   5.429  0.00  0.00    +0.002 C 
ATOM     30  C   UNL     1      -1.915 -14.325   4.070  0.00  0.00    +0.022 C 
ENDBRANCH  23  25
ENDBRANCH  20  21
ENDBRANCH  19  20
ENDBRANCH   4  19
TORSDOF 6
