REMARK  Name = ZINC64538279
REMARK  8 active torsions:
REMARK  status: ('A' for Active; 'I' for Inactive)
REMARK    1  A    between atoms: C_1  and  C_2
REMARK    2  A    between atoms: C_8  and  C_11
REMARK    3  A    between atoms: C_11  and  C_12
REMARK    4  A    between atoms: C_12  and  N_13
REMARK    5  A    between atoms: C_14  and  C_16
REMARK    6  A    between atoms: C_16  and  C_18
REMARK    7  A    between atoms: C_16  and  N_19
REMARK    8  A    between atoms: C_27  and  C_31
REMARK                            x       y       z     vdW  Elec       q    Type
REMARK                         _______ _______ _______ _____ _____    ______ ____
ROOT
ATOM      1  C   UNL     1      -2.534  -2.338   7.783  0.00  0.00    +0.164 C 
ATOM      2  C   UNL     1      -1.916  -0.981   8.124  0.00  0.00    +0.038 C 
ENDROOT
BRANCH   1   3
ATOM      3  N   UNL     1      -3.908  -2.390   8.291  0.00  0.00    -0.256 N 
ATOM      4  C   UNL     1      -4.273  -3.391   9.199  0.00  0.00    +0.058 A 
ATOM      5  C   UNL     1      -3.461  -4.494   9.402  0.00  0.00    +0.025 A 
ATOM      6  C   UNL     1      -3.838  -5.470  10.307  0.00  0.00    +0.002 A 
ATOM      7  C   UNL     1      -5.022  -5.350  11.011  0.00  0.00    +0.002 A 
ATOM      8  C   UNL     1      -5.841  -4.253  10.813  0.00  0.00    +0.025 A 
ATOM      9  C   UNL     1      -5.471  -3.275   9.907  0.00  0.00    +0.050 A 
ATOM     10  N   UNL     1      -6.284  -2.157   9.676  0.00  0.00    -0.325 N 
ATOM     11  C   UNL     1      -6.238  -1.536   8.343  0.00  0.00    +0.262 C 
ATOM     12  C   UNL     1      -4.804  -1.472   7.883  0.00  0.00    +0.250 C 
ATOM     13  O   UNL     1      -4.454  -0.584   7.134  0.00  0.00    -0.273 OA
ATOM     14  H   UNL     1      -6.860  -1.804  10.372  0.00  0.00    +0.147 HD
BRANCH  11  15
ATOM     15  C   UNL     1      -7.061  -2.372   7.361  0.00  0.00    +0.416 C 
ATOM     16  F   UNL     1      -8.388  -2.435   7.799  0.00  0.00    -0.168 F 
ATOM     17  F   UNL     1      -7.016  -1.780   6.094  0.00  0.00    -0.168 F 
ATOM     18  F   UNL     1      -6.531  -3.665   7.291  0.00  0.00    -0.168 F 
ENDBRANCH  11  15
ENDBRANCH   1   3
BRANCH   1  20
ATOM     19  N   UNL     1      -1.385  -2.513   5.600  0.00  0.00    -0.313 N 
ATOM     20  C   UNL     1      -2.544  -2.525   6.288  0.00  0.00    +0.234 C 
ATOM     21  O   UNL     1      -3.594  -2.685   5.704  0.00  0.00    -0.274 OA
ATOM     22  H   UNL     1      -0.545  -2.385   6.068  0.00  0.00    +0.149 HD
BRANCH  19  23
ATOM     23  C   UNL     1      -1.394  -2.694   4.146  0.00  0.00    +0.108 C 
BRANCH  23  24
ATOM     24  C   UNL     1       0.040  -2.640   3.617  0.00  0.00    +0.052 C 
BRANCH  24  32
ATOM     25  C   UNL     1       0.041   1.839   0.206  0.00  0.00    +0.044 C 
ATOM     26  C   UNL     1       0.034   0.334   0.122  0.00  0.00    -0.050 A 
ATOM     27  C   UNL     1       0.023  -0.279  -1.138  0.00  0.00    +0.005 A 
ATOM     28  C   UNL     1       0.015  -1.620  -1.296  0.00  0.00    +0.026 A 
ATOM     29  C   UNL     1       0.018  -2.478  -0.162  0.00  0.00    +0.043 A 
ATOM     30  N   UNL     1       0.012  -3.784  -0.056  0.00  0.00    -0.380 N 
ATOM     31  C   UNL     1       0.019  -4.138   1.368  0.00  0.00    +0.144 C 
ATOM     32  C   UNL     1       0.031  -2.826   2.121  0.00  0.00    -0.040 C 
ATOM     33  C   UNL     1       0.030  -1.854   1.181  0.00  0.00    -0.001 A 
ATOM     34  C   UNL     1       0.043  -0.389   1.265  0.00  0.00    +0.013 A 
ATOM     35  H   UNL     1       0.004  -4.412  -0.795  0.00  0.00    +0.160 HD
ENDBRANCH  24  32
ENDBRANCH  23  24
ENDBRANCH  19  23
ENDBRANCH   1  20
TORSDOF 6
