REMARK  Name = ZINC40923719
REMARK  11 active torsions:
REMARK  status: ('A' for Active; 'I' for Inactive)
REMARK    1  A    between atoms: C_1  and  C_2
REMARK    2  A    between atoms: C_2  and  C_3
REMARK    3  A    between atoms: C_3  and  C_4
REMARK    4  A    between atoms: C_4  and  O_5
REMARK    5  A    between atoms: O_5  and  C_6
REMARK    6  A    between atoms: C_11  and  C_12
REMARK    7  A    between atoms: C_14  and  C_23
REMARK    8  A    between atoms: C_15  and  C_22
REMARK    9  A    between atoms: N_25  and  C_26
REMARK   10  A    between atoms: C_29  and  C_33
REMARK   11  A    between atoms: C_31  and  C_32
REMARK                            x       y       z     vdW  Elec       q    Type
REMARK                         _______ _______ _______ _____ _____    ______ ____
ROOT
ATOM      1  C   UNL     1      -5.927  -3.468  -0.216  0.00  0.00    +0.182 C 
ATOM      2  C   UNL     1      -6.609  -3.898  -1.488  0.00  0.00    +0.060 C 
ATOM      3  C   UNL     1      -7.788  -4.536  -1.508  0.00  0.00    +0.018 C 
ATOM      4  N   UNL     1      -8.478  -4.839  -0.359  0.00  0.00    -0.286 N 
ATOM      5  C   UNL     1      -8.050  -4.242   0.817  0.00  0.00    +0.240 A 
ATOM      6  N   UNL     1      -6.860  -3.591   0.898  0.00  0.00    -0.201 N 
ATOM      7  N   UNL     1      -6.778  -3.122   2.208  0.00  0.00    -0.042 NA
ATOM      8  N   UNL     1      -7.862  -3.503   2.803  0.00  0.00    -0.021 NA
ATOM      9  N   UNL     1      -8.613  -4.164   1.989  0.00  0.00    -0.092 NA
ATOM     10  C   UNL     1      -8.378  -4.934  -2.837  0.00  0.00    +0.061 C 
ATOM     11  H   UNL     1      -9.234  -5.447  -0.371  0.00  0.00    +0.155 HD
ENDROOT
BRANCH   1  17
ATOM     12  C   UNL     1      -3.452  -3.802  -0.002  0.00  0.00    +0.126 A 
ATOM     13  C   UNL     1      -2.349  -4.610   0.234  0.00  0.00    +0.047 A 
ATOM     14  C   UNL     1      -2.523  -5.955   0.497  0.00  0.00    +0.019 A 
ATOM     15  C   UNL     1      -3.796  -6.496   0.525  0.00  0.00    +0.018 A 
ATOM     16  C   UNL     1      -4.897  -5.692   0.290  0.00  0.00    +0.025 A 
ATOM     17  C   UNL     1      -4.727  -4.345   0.033  0.00  0.00    +0.024 A 
ATOM     18 BR   UNL     1      -4.032  -8.337   0.885  0.00  0.00    -0.050 Br
BRANCH  12  19
ATOM     19  O   UNL     1      -3.282  -2.478  -0.260  0.00  0.00    -0.492 OA
BRANCH  19  20
ATOM     20  C   UNL     1      -1.939  -2.009  -0.388  0.00  0.00    +0.229 C 
BRANCH  20  21
ATOM     21  C   UNL     1      -1.947  -0.496  -0.620  0.00  0.00    +0.041 C 
BRANCH  21  23
ATOM     22  C   UNL     1      -0.516   1.537  -0.870  0.00  0.00    +0.004 C 
ATOM     23  C   UNL     1      -0.508   0.024  -0.638  0.00  0.00    -0.000 C 
ENDBRANCH  21  23
ENDBRANCH  20  21
ENDBRANCH  19  20
ENDBRANCH  12  19
ENDBRANCH   1  17
BRANCH   2  24
ATOM     24  C   UNL     1      -5.974  -3.616  -2.721  0.00  0.00    +0.248 C 
ATOM     25  O   UNL     1      -6.065  -2.505  -3.212  0.00  0.00    -0.270 OA
ATOM     26  N   UNL     1      -5.271  -4.576  -3.353  0.00  0.00    -0.281 N 
ATOM     27  H   UNL     1      -5.257  -5.479  -2.999  0.00  0.00    +0.155 HD
BRANCH  26  28
ATOM     28  C   UNL     1      -4.560  -4.271  -4.517  0.00  0.00    +0.037 A 
ATOM     29  C   UNL     1      -4.245  -2.951  -4.815  0.00  0.00    +0.024 A 
ATOM     30  C   UNL     1      -3.543  -2.652  -5.966  0.00  0.00    +0.005 A 
ATOM     31  C   UNL     1      -3.152  -3.666  -6.822  0.00  0.00    -0.050 A 
ATOM     32  C   UNL     1      -3.464  -4.981  -6.529  0.00  0.00    +0.008 A 
ATOM     33  C   UNL     1      -4.161  -5.287  -5.376  0.00  0.00    -0.029 A 
ATOM     34  C   UNL     1      -4.495  -6.721  -5.054  0.00  0.00    +0.045 C 
ATOM     35  C   UNL     1      -2.385  -3.337  -8.076  0.00  0.00    +0.044 C 
ENDBRANCH  26  28
ENDBRANCH   2  24
TORSDOF 7
