REMARK  Name = ZINC39659291
REMARK  7 active torsions:
REMARK  status: ('A' for Active; 'I' for Inactive)
REMARK    1  A    between atoms: C_1  and  C_2
REMARK    2  A    between atoms: C_2  and  C_32
REMARK    3  A    between atoms: C_5  and  C_8
REMARK    4  A    between atoms: C_8  and  N_9
REMARK    5  A    between atoms: C_10  and  C_12
REMARK    6  A    between atoms: C_23  and  C_25
REMARK    7  A    between atoms: C_25  and  C_31
REMARK                            x       y       z     vdW  Elec       q    Type
REMARK                         _______ _______ _______ _____ _____    ______ ____
ROOT
ATOM      1  C   UNL     1       3.655  -2.134   5.185  0.00  0.00    +0.100 C 
ATOM      2  C   UNL     1       2.523  -1.417   5.954  0.00  0.00    +0.121 C 
ATOM      3  N   UNL     1       2.986  -1.389   7.361  0.00  0.00    -0.300 N 
ATOM      4  C   UNL     1       4.439  -1.110   7.266  0.00  0.00    +0.115 C 
ATOM      5  C   UNL     1       4.910  -1.930   6.049  0.00  0.00    -0.004 C 
ATOM      6  C   UNL     1       5.464  -3.277   6.503  0.00  0.00    -0.010 C 
ATOM      7  C   UNL     1       6.744  -3.050   7.313  0.00  0.00    -0.082 C 
ATOM      8  N   UNL     1       7.731  -2.347   6.485  0.00  0.00    +0.379 N 
ATOM      9  C   UNL     1       7.228  -1.015   6.129  0.00  0.00    -0.082 C 
ATOM     10  C   UNL     1       5.968  -1.155   5.269  0.00  0.00    -0.010 C 
ATOM     11  C   UNL     1       2.252  -1.575   8.476  0.00  0.00    +0.222 C 
ATOM     12  O   UNL     1       2.762  -1.438   9.568  0.00  0.00    -0.275 OA
ATOM     13  H   UNL     1       8.594  -2.253   6.999  0.00  0.00    -0.086 HD
ATOM     14  H   UNL     1       7.901  -2.877   5.643  0.00  0.00    -0.086 HD
ENDROOT
BRANCH  11  15
ATOM     15  C   UNL     1       0.797  -1.952   8.366  0.00  0.00    +0.044 C 
ATOM     16  C   UNL     1       0.066  -0.919   7.506  0.00  0.00    +0.016 C 
ATOM     17  C   UNL     1       0.187   0.462   8.154  0.00  0.00    +0.001 C 
ATOM     18  C   UNL     1      -0.438   0.427   9.550  0.00  0.00    +0.000 C 
ATOM     19  C   UNL     1       0.293  -0.606  10.410  0.00  0.00    +0.001 C 
ATOM     20  C   UNL     1       0.172  -1.987   9.762  0.00  0.00    +0.016 C 
ATOM     21  C   UNL     1       0.676  -3.333   7.719  0.00  0.00    +0.021 C 
ENDBRANCH  11  15
BRANCH   1  23
ATOM     22  N   UNL     1       4.459  -2.200   2.846  0.00  0.00    -0.312 N 
ATOM     23  C   UNL     1       3.845  -1.509   3.827  0.00  0.00    +0.218 C 
ATOM     24  O   UNL     1       3.445  -0.383   3.616  0.00  0.00    -0.275 OA
ATOM     25  H   UNL     1       4.778  -3.101   3.015  0.00  0.00    +0.149 HD
BRANCH  22  26
ATOM     26  C   UNL     1       4.644  -1.593   1.526  0.00  0.00    +0.138 C 
BRANCH  26  31
ATOM     27  C   UNL     1       3.430  -3.757  -1.932  0.00  0.00    +0.074 C 
ATOM     28  C   UNL     1       4.723  -3.963  -1.140  0.00  0.00    +0.165 C 
ATOM     29  O   UNL     1       5.739  -3.075  -1.635  0.00  0.00    -0.347 OA
ATOM     30  C   UNL     1       5.684  -1.923  -0.759  0.00  0.00    +0.196 C 
ATOM     31  C   UNL     1       5.362  -2.581   0.606  0.00  0.00    +0.164 C 
ATOM     32  O   UNL     1       4.490  -3.672   0.245  0.00  0.00    -0.342 OA
ATOM     33  C   UNL     1       5.192  -5.411  -1.289  0.00  0.00    +0.074 C 
ENDBRANCH  26  31
ENDBRANCH  22  26
ENDBRANCH   1  23
TORSDOF 4
