REMARK  Name = ZINC03340068
REMARK  14 active torsions:
REMARK  status: ('A' for Active; 'I' for Inactive)
REMARK    1  A    between atoms: C_1  and  C_2
REMARK    2  A    between atoms: C_2  and  C_3
REMARK    3  A    between atoms: C_3  and  C_4
REMARK    4  A    between atoms: C_3  and  C_5
REMARK    5  A    between atoms: C_3  and  C_6
REMARK    6  A    between atoms: C_12  and  C_20
REMARK    7  A    between atoms: C_20  and  O_22
REMARK    8  A    between atoms: O_22  and  C_23
REMARK    9  A    between atoms: C_23  and  C_25
REMARK   10  A    between atoms: C_23  and  C_26
REMARK   11  A    between atoms: N_28  and  C_29
REMARK   12  A    between atoms: C_30  and  C_42
REMARK   13  A    between atoms: N_31  and  C_41
REMARK   14  A    between atoms: N_32  and  C_35
REMARK                            x       y       z     vdW  Elec       q    Type
REMARK                         _______ _______ _______ _____ _____    ______ ____
ROOT
ATOM      1  C   UNL     1      -6.659   4.066  -0.401  0.00  0.00    +0.341 C 
ATOM      2  O   UNL     1      -7.207   3.092   0.076  0.00  0.00    -0.245 OA
ENDROOT
BRANCH   1   8
ATOM      3  C   UNL     1      -7.092   6.882   2.859  0.00  0.00    -0.001 C 
ATOM      4  C   UNL     1      -7.064   8.335   2.369  0.00  0.00    +0.010 C 
ATOM      5  C   UNL     1      -8.191   8.527   1.357  0.00  0.00    +0.056 C 
ATOM      6  C   UNL     1      -8.132   7.464   0.287  0.00  0.00    +0.046 A 
ATOM      7  C   UNL     1      -7.419   6.284   0.461  0.00  0.00    -0.011 A 
ATOM      8  C   UNL     1      -7.406   5.332  -0.557  0.00  0.00    +0.073 A 
ATOM      9  C   UNL     1      -8.121   5.610  -1.747  0.00  0.00    +0.015 A 
ATOM     10  C   UNL     1      -8.152   4.705  -2.815  0.00  0.00    +0.011 A 
ATOM     11  C   UNL     1      -8.854   5.015  -3.941  0.00  0.00    +0.001 A 
ATOM     12  C   UNL     1      -9.543   6.223  -4.043  0.00  0.00    +0.002 A 
ATOM     13  C   UNL     1      -9.543   7.120  -3.020  0.00  0.00    +0.028 A 
ATOM     14  C   UNL     1      -8.824   6.837  -1.843  0.00  0.00    +0.072 A 
ATOM     15  N   UNL     1      -8.792   7.700  -0.830  0.00  0.00    -0.251 NA
ATOM     16  C   UNL     1      -6.640   5.979   1.712  0.00  0.00    +0.042 C 
BRANCH   3  17
ATOM     17  C   UNL     1      -6.143   6.721   4.047  0.00  0.00    -0.032 C 
ATOM     18  C   UNL     1      -6.176   5.270   4.532  0.00  0.00    +0.011 C 
ATOM     19  C   UNL     1      -4.720   7.082   3.617  0.00  0.00    +0.011 C 
BRANCH  17  21
ATOM     20  C   UNL     1      -5.635   7.486   6.371  0.00  0.00    +0.004 C 
ATOM     21  C   UNL     1      -6.584   7.647   5.182  0.00  0.00    +0.003 C 
ENDBRANCH  17  21
ENDBRANCH   3  17
ENDBRANCH   1   8
BRANCH   1  22
ATOM     22  O   UNL     1      -5.371   3.992  -0.788  0.00  0.00    -0.449 OA
BRANCH  22  23
ATOM     23  C   UNL     1      -4.700   2.717  -0.605  0.00  0.00    +0.259 C 
ATOM     24  C   UNL     1      -4.883   1.859  -1.859  0.00  0.00    +0.062 C 
BRANCH  23  25
ATOM     25  C   UNL     1      -3.230   2.953  -0.368  0.00  0.00    +0.258 C 
ATOM     26  O   UNL     1      -2.791   4.084  -0.355  0.00  0.00    -0.271 OA
ATOM     27  N   UNL     1      -2.403   1.907  -0.171  0.00  0.00    -0.277 N 
ATOM     28  H   UNL     1      -2.764   1.009  -0.108  0.00  0.00    +0.155 HD
BRANCH  27  29
ATOM     29  C   UNL     1      -1.015   2.118  -0.058  0.00  0.00    +0.121 A 
ATOM     30  C   UNL     1      -0.052   1.548  -0.816  0.00  0.00    +0.059 A 
ATOM     31  N   UNL     1       1.167   2.013  -0.399  0.00  0.00    -0.282 N 
ATOM     32  N   UNL     1       0.978   2.905   0.663  0.00  0.00    -0.216 N 
ATOM     33  C   UNL     1      -0.346   2.994   0.905  0.00  0.00    +0.293 A 
ATOM     34  O   UNL     1      -0.883   3.677   1.758  0.00  0.00    -0.264 OA
ATOM     35  C   UNL     1       2.461   1.638  -0.973  0.00  0.00    +0.171 C 
ATOM     36  C   UNL     1      -0.282   0.568  -1.938  0.00  0.00    +0.067 C 
BRANCH  32  37
ATOM     37  C   UNL     1       1.987   3.585   1.353  0.00  0.00    +0.067 A 
ATOM     38  C   UNL     1       3.094   2.894   1.827  0.00  0.00    +0.028 A 
ATOM     39  C   UNL     1       4.091   3.570   2.503  0.00  0.00    +0.002 A 
ATOM     40  C   UNL     1       3.982   4.932   2.718  0.00  0.00    +0.000 A 
ATOM     41  C   UNL     1       2.878   5.622   2.252  0.00  0.00    +0.002 A 
ATOM     42  C   UNL     1       1.881   4.953   1.570  0.00  0.00    +0.028 A 
ENDBRANCH  32  37
ENDBRANCH  27  29
ENDBRANCH  23  25
ENDBRANCH  22  23
ENDBRANCH   1  22
TORSDOF 8
