REMARK  Name = ZINC35729660
REMARK  13 active torsions:
REMARK  status: ('A' for Active; 'I' for Inactive)
REMARK    1  A    between atoms: C_1  and  C_2
REMARK    2  A    between atoms: C_3  and  C_33
REMARK    3  A    between atoms: C_4  and  C_11
REMARK    4  A    between atoms: N_9  and  C_10
REMARK    5  A    between atoms: C_15  and  N_17
REMARK    6  A    between atoms: C_18  and  C_20
REMARK    7  A    between atoms: C_20  and  C_21
REMARK    8  A    between atoms: C_20  and  C_27
REMARK    9  A    between atoms: C_33  and  O_35
REMARK   10  A    between atoms: O_35  and  C_36
REMARK   11  A    between atoms: C_36  and  C_37
REMARK   12  A    between atoms: C_37  and  C_38
REMARK   13  A    between atoms: C_37  and  C_39
REMARK                            x       y       z     vdW  Elec       q    Type
REMARK                         _______ _______ _______ _____ _____    ______ ____
ROOT
ATOM      1  C   UNL     1      -4.003  -0.634   2.913  0.00  0.00    -0.021 A 
ATOM      2  C   UNL     1      -3.152  -0.689   4.002  0.00  0.00    +0.006 A 
ATOM      3  C   UNL     1      -3.229  -1.745   4.890  0.00  0.00    +0.002 A 
ATOM      4  C   UNL     1      -4.157  -2.750   4.692  0.00  0.00    +0.023 A 
ATOM      5  C   UNL     1      -5.012  -2.697   3.600  0.00  0.00    +0.034 A 
ATOM      6  C   UNL     1      -4.935  -1.632   2.712  0.00  0.00    +0.029 A 
ENDROOT
BRANCH   1  10
ATOM      7  C   UNL     1      -4.629   4.037   3.356  0.00  0.00    +0.061 C 
ATOM      8  C   UNL     1      -3.944   2.840   2.748  0.00  0.00    +0.021 C 
ATOM      9  C   UNL     1      -4.642   1.699   2.561  0.00  0.00    +0.078 C 
ATOM     10  C   UNL     1      -3.915   0.520   1.947  0.00  0.00    +0.141 C 
ATOM     11  N   UNL     1      -2.497   0.717   1.603  0.00  0.00    -0.315 N 
ATOM     12  C   UNL     1      -1.937   1.918   1.851  0.00  0.00    +0.137 C 
ATOM     13  S   UNL     1      -0.289   2.161   1.456  0.00  0.00    -0.018 S 
ATOM     14  N   UNL     1      -2.630   2.928   2.391  0.00  0.00    -0.289 N 
ATOM     15  C   UNL     1      -1.936   4.199   2.618  0.00  0.00    +0.137 C 
ATOM     16  H   UNL     1      -1.978  -0.001   1.208  0.00  0.00    +0.149 HD
BRANCH   9  17
ATOM     17  C   UNL     1      -6.006   1.608   2.926  0.00  0.00    +0.339 C 
ATOM     18  O   UNL     1      -6.569   2.568   3.418  0.00  0.00    -0.245 OA
BRANCH  17  19
ATOM     19  O   UNL     1      -6.682   0.457   2.728  0.00  0.00    -0.461 OA
BRANCH  19  20
ATOM     20  C   UNL     1      -8.056   0.436   3.120  0.00  0.00    +0.235 C 
BRANCH  20  21
ATOM     21  C   UNL     1      -8.650  -0.942   2.821  0.00  0.00    +0.020 C 
ATOM     22  C   UNL     1     -10.083  -1.005   3.353  0.00  0.00    +0.010 C 
ATOM     23  C   UNL     1      -8.657  -1.178   1.310  0.00  0.00    +0.010 C 
ENDBRANCH  20  21
ENDBRANCH  19  20
ENDBRANCH  17  19
ENDBRANCH   9  17
ENDBRANCH   1  10
BRANCH   5  24
ATOM     24  N   UNL     1      -5.952  -3.713   3.396  0.00  0.00    -0.285 N 
ATOM     25  C   UNL     1      -6.555  -4.296   4.452  0.00  0.00    +0.229 C 
ATOM     26  O   UNL     1      -6.240  -3.979   5.580  0.00  0.00    -0.274 OA
ATOM     27  H   UNL     1      -6.171  -3.998   2.495  0.00  0.00    +0.155 HD
BRANCH  25  28
ATOM     28  C   UNL     1      -7.619  -5.340   4.231  0.00  0.00    +0.135 C 
BRANCH  28  29
ATOM     29  C   UNL     1      -7.035  -6.496   3.461  0.00  0.00    -0.031 A 
ATOM     30  C   UNL     1      -5.782  -6.981   3.786  0.00  0.00    +0.005 A 
ATOM     31  C   UNL     1      -5.247  -8.043   3.080  0.00  0.00    +0.000 A 
ATOM     32  C   UNL     1      -5.965  -8.619   2.049  0.00  0.00    +0.000 A 
ATOM     33  C   UNL     1      -7.219  -8.134   1.724  0.00  0.00    +0.000 A 
ATOM     34  C   UNL     1      -7.756  -7.076   2.433  0.00  0.00    +0.005 A 
ENDBRANCH  28  29
BRANCH  28  35
ATOM     35  C   UNL     1      -8.127  -5.828   5.563  0.00  0.00    -0.031 A 
ATOM     36  C   UNL     1      -7.251  -6.383   6.476  0.00  0.00    +0.005 A 
ATOM     37  C   UNL     1      -7.717  -6.832   7.697  0.00  0.00    +0.000 A 
ATOM     38  C   UNL     1      -9.060  -6.724   8.006  0.00  0.00    +0.000 A 
ATOM     39  C   UNL     1      -9.937  -6.168   7.093  0.00  0.00    +0.000 A 
ATOM     40  C   UNL     1      -9.470  -5.716   5.873  0.00  0.00    +0.005 A 
ENDBRANCH  28  35
ENDBRANCH  25  28
ENDBRANCH   5  24
TORSDOF 9
