REMARK  Name = ZINC02137951
REMARK  5 active torsions:
REMARK  status: ('A' for Active; 'I' for Inactive)
REMARK    1  A    between atoms: C_1  and  C_2
REMARK    2  A    between atoms: C_17  and  C_19
REMARK    3  A    between atoms: C_19  and  C_20
REMARK    4  A    between atoms: N_25  and  C_28
REMARK    5  A    between atoms: C_28  and  C_29
REMARK                            x       y       z     vdW  Elec       q    Type
REMARK                         _______ _______ _______ _____ _____    ______ ____
ROOT
ATOM      1  C   UNL     1      -1.101   7.224   0.013  0.00  0.00    +0.044 C 
ATOM      2  C   UNL     1      -0.458   5.861  -0.010  0.00  0.00    -0.049 A 
ATOM      3  C   UNL     1      -1.244   4.723   0.000  0.00  0.00    +0.008 A 
ATOM      4  C   UNL     1      -0.656   3.478  -0.020  0.00  0.00    -0.026 A 
ATOM      5  C   UNL     1       0.730   3.349  -0.053  0.00  0.00    +0.054 A 
ATOM      6  C   UNL     1       1.515   4.500  -0.063  0.00  0.00    +0.063 A 
ATOM      7  C   UNL     1       0.920   5.746  -0.041  0.00  0.00    +0.025 A 
ATOM      8 CL   UNL     1       3.245   4.368  -0.102  0.00  0.00    -0.082 Cl
ATOM      9  N   UNL     1       1.089   1.999  -0.070  0.00  0.00    -0.285 N 
ATOM     10  C   UNL     1       0.015   1.187  -0.047  0.00  0.00    +0.211 C 
ATOM     11  O   UNL     1       0.023  -0.026  -0.055  0.00  0.00    -0.277 OA
ATOM     12  C   UNL     1      -1.198   2.077  -0.018  0.00  0.00    +0.050 C 
ATOM     13  C   UNL     1      -2.112   1.820  -1.221  0.00  0.00    +0.088 C 
ATOM     14  C   UNL     1      -3.553   1.997  -0.665  0.00  0.00    +0.073 C 
ATOM     15  C   UNL     1      -3.360   2.368   0.821  0.00  0.00    -0.049 C 
ATOM     16  C   UNL     1      -4.069   3.205  -1.415  0.00  0.00    +0.224 C 
ATOM     17  O   UNL     1      -5.171   3.692  -1.283  0.00  0.00    -0.275 OA
ATOM     18  N   UNL     1      -3.119   3.652  -2.245  0.00  0.00    -0.237 N 
ATOM     19  C   UNL     1      -1.980   2.951  -2.216  0.00  0.00    +0.225 C 
ATOM     20  O   UNL     1      -0.996   3.186  -2.884  0.00  0.00    -0.275 OA
ATOM     21  H   UNL     1       2.006   1.683  -0.096  0.00  0.00    +0.155 HD
ATOM     22  N   UNL     1      -2.033   1.839   1.147  0.00  0.00    +0.394 N 
ATOM     23  H   UNL     1      -1.649   2.326   1.965  0.00  0.00    -0.083 HD
ATOM     24  H   UNL     1      -2.091   0.833   1.344  0.00  0.00    -0.083 HD
ENDROOT
BRANCH  15  25
ATOM     25  C   UNL     1      -4.447   1.716   1.677  0.00  0.00    +0.080 C 
BRANCH  25  26
ATOM     26  C   UNL     1      -4.267   2.127   3.116  0.00  0.00    +0.209 C 
ATOM     27  O   UNL     1      -3.358   2.869   3.426  0.00  0.00    -0.276 OA
ATOM     28  N   UNL     1      -5.116   1.671   4.059  0.00  0.00    -0.329 N 
ATOM     29  H   UNL     1      -5.842   1.078   3.811  0.00  0.00    +0.145 HD
ATOM     30  H   UNL     1      -5.000   1.936   4.984  0.00  0.00    +0.145 HD
ENDBRANCH  25  26
ENDBRANCH  15  25
BRANCH  18  31
ATOM     31  C   UNL     1      -3.312   4.816  -3.114  0.00  0.00    +0.151 C 
BRANCH  31  32
ATOM     32  C   UNL     1      -3.963   4.380  -4.401  0.00  0.00    -0.030 A 
ATOM     33  C   UNL     1      -3.188   3.897  -5.439  0.00  0.00    +0.005 A 
ATOM     34  C   UNL     1      -3.786   3.493  -6.618  0.00  0.00    +0.000 A 
ATOM     35  C   UNL     1      -5.158   3.580  -6.762  0.00  0.00    +0.000 A 
ATOM     36  C   UNL     1      -5.933   4.067  -5.726  0.00  0.00    +0.000 A 
ATOM     37  C   UNL     1      -5.335   4.467  -4.545  0.00  0.00    +0.005 A 
ENDBRANCH  31  32
ENDBRANCH  18  31
TORSDOF 4
