REMARK  Name = ZINC63598849
REMARK  5 active torsions:
REMARK  status: ('A' for Active; 'I' for Inactive)
REMARK    1  A    between atoms: C_6  and  C_7
REMARK    2  A    between atoms: N_9  and  N_10
REMARK    3  A    between atoms: C_11  and  C_13
REMARK    4  A    between atoms: C_18  and  O_23
REMARK    5  A    between atoms: O_23  and  C_24
REMARK                            x       y       z     vdW  Elec       q    Type
REMARK                         _______ _______ _______ _____ _____    ______ ____
ROOT
ATOM      1  N   UNL     1      -2.446  -2.830   0.011  0.00  0.00    -0.232 N 
ATOM      2  C   UNL     1      -2.425  -4.178   0.004  0.00  0.00    +0.255 C 
ATOM      3  O   UNL     1      -1.365  -4.768  -0.010  0.00  0.00    -0.272 OA
ATOM      4  H   UNL     1      -3.294  -2.359   0.022  0.00  0.00    +0.173 HD
ENDROOT
BRANCH   2   5
ATOM      5  C   UNL     1      -3.718  -4.952   0.012  0.00  0.00    +0.191 C 
ATOM      6  C   UNL     1      -4.293  -5.022  -1.385  0.00  0.00    +0.016 C 
ATOM      7  C   UNL     1      -4.351  -6.336  -1.701  0.00  0.00    -0.000 A 
ATOM      8  C   UNL     1      -4.807  -7.052  -2.897  0.00  0.00    +0.055 A 
ATOM      9  C   UNL     1      -4.745  -8.405  -2.928  0.00  0.00    +0.131 A 
ATOM     10  C   UNL     1      -4.254  -9.159  -1.848  0.00  0.00    +0.048 A 
ATOM     11  C   UNL     1      -3.813  -8.591  -0.705  0.00  0.00    +0.029 A 
ATOM     12  C   UNL     1      -3.835  -7.131  -0.563  0.00  0.00    +0.043 A 
ATOM     13  N   UNL     1      -3.473  -6.341   0.419  0.00  0.00    -0.370 N 
ATOM     14  H   UNL     1      -3.105  -6.625   1.270  0.00  0.00    +0.161 HD
BRANCH   9  15
ATOM     15  O   UNL     1      -5.170  -9.056  -4.043  0.00  0.00    -0.406 OA
BRANCH  15  16
ATOM     16  C   UNL     1      -5.087 -10.483  -4.033  0.00  0.00    +0.575 C 
ATOM     17  F   UNL     1      -5.862 -10.988  -2.983  0.00  0.00    -0.133 F 
ATOM     18  F   UNL     1      -5.562 -10.986  -5.248  0.00  0.00    -0.133 F 
ATOM     19  F   UNL     1      -3.754 -10.870  -3.857  0.00  0.00    -0.133 F 
ENDBRANCH  15  16
ENDBRANCH   9  15
ENDBRANCH   2   5
BRANCH   1  22
ATOM     20  C   UNL     1      -1.266  -0.763   0.011  0.00  0.00    +0.260 C 
ATOM     21  O   UNL     1      -2.328  -0.172   0.024  0.00  0.00    -0.269 OA
ATOM     22  N   UNL     1      -1.244  -2.111   0.003  0.00  0.00    -0.230 N 
ATOM     23  H   UNL     1      -0.397  -2.582  -0.008  0.00  0.00    +0.173 HD
BRANCH  20  29
ATOM     24  C   UNL     1      -0.017   1.392   0.010  0.00  0.00    +0.014 A 
ATOM     25  C   UNL     1       1.169   2.095   0.002  0.00  0.00    +0.021 A 
ATOM     26  C   UNL     1       2.378   1.419  -0.013  0.00  0.00    +0.041 A 
ATOM     27  C   UNL     1       2.403   0.034  -0.021  0.00  0.00    +0.021 A 
ATOM     28  C   UNL     1       1.224  -0.680  -0.014  0.00  0.00    +0.014 A 
ATOM     29  C   UNL     1       0.002  -0.004   0.002  0.00  0.00    +0.038 A 
ATOM     30 CL   UNL     1       3.868   2.310  -0.023  0.00  0.00    -0.084 Cl
ENDBRANCH  20  29
ENDBRANCH   1  22
TORSDOF 5
