REMARK  Name = ZINC35307254
REMARK  15 active torsions:
REMARK  status: ('A' for Active; 'I' for Inactive)
REMARK    1  A    between atoms: C_1  and  C_2
REMARK    2  A    between atoms: C_2  and  N_3
REMARK    3  A    between atoms: N_3  and  C_4
REMARK    4  A    between atoms: N_3  and  C_6
REMARK    5  A    between atoms: C_4  and  C_5
REMARK    6  A    between atoms: C_6  and  C_7
REMARK    7  A    between atoms: C_7  and  C_8
REMARK    8  A    between atoms: C_8  and  C_9
REMARK    9  A    between atoms: C_9  and  C_11
REMARK   10  A    between atoms: C_9  and  N_12
REMARK   11  A    between atoms: C_13  and  C_15
REMARK   12  A    between atoms: C_15  and  S_16
REMARK   13  A    between atoms: S_16  and  C_17
REMARK   14  A    between atoms: N_24  and  C_25
REMARK   15  A    between atoms: N_24  and  C_26
REMARK                            x       y       z     vdW  Elec       q    Type
REMARK                         _______ _______ _______ _____ _____    ______ ____
ROOT
ATOM      1  C   UNL     1      -7.299  -3.448   2.237  0.00  0.00    +0.173 C 
ENDROOT
BRANCH   1   3
ATOM      2  N   UNL     1      -5.145  -4.107   1.217  0.00  0.00    -0.312 N 
ATOM      3  C   UNL     1      -6.481  -3.983   1.091  0.00  0.00    +0.224 C 
ATOM      4  O   UNL     1      -7.024  -4.302   0.054  0.00  0.00    -0.275 OA
ATOM      5  H   UNL     1      -4.710  -3.852   2.046  0.00  0.00    +0.149 HD
BRANCH   2   6
ATOM      6  C   UNL     1      -4.349  -4.628   0.102  0.00  0.00    +0.070 C 
ATOM      7  C   UNL     1      -4.348  -6.157   0.146  0.00  0.00    +0.028 C 
BRANCH   6   8
ATOM      8  C   UNL     1      -2.913  -4.113   0.217  0.00  0.00    +0.020 C 
BRANCH   8   9
ATOM      9  C   UNL     1      -2.901  -2.592   0.048  0.00  0.00    -0.017 C 
BRANCH   9  10
ATOM     10  C   UNL     1      -1.464  -2.078   0.163  0.00  0.00    -0.079 C 
BRANCH  10  11
ATOM     11  N   UNL     1      -1.438  -0.634  -0.108  0.00  0.00    +0.379 N 
ATOM     12  H   UNL     1      -1.863  -0.453  -1.004  0.00  0.00    -0.082 HD
BRANCH  11  14
ATOM     13  C   UNL     1      -2.263   1.562   0.594  0.00  0.00    -0.017 C 
ATOM     14  C   UNL     1      -2.184   0.074   0.941  0.00  0.00    -0.082 C 
ENDBRANCH  11  14
BRANCH  11  15
ATOM     15  C   UNL     1      -0.046  -0.164  -0.121  0.00  0.00    -0.082 C 
ATOM     16  C   UNL     1       0.689  -0.780  -1.313  0.00  0.00    -0.017 C 
ENDBRANCH  11  15
ENDBRANCH  10  11
ENDBRANCH   9  10
ENDBRANCH   8   9
ENDBRANCH   6   8
ENDBRANCH   2   6
ENDBRANCH   1   3
BRANCH   1  17
ATOM     17  S   UNL     1      -9.049  -3.402   1.761  0.00  0.00    -0.077 S 
BRANCH  17  18
ATOM     18  C   UNL     1      -9.862  -2.762   3.188  0.00  0.00    +0.192 A 
ATOM     19  N   UNL     1     -11.178  -2.607   3.166  0.00  0.00    -0.207 NA
ATOM     20  C   UNL     1     -11.822  -2.128   4.226  0.00  0.00    +0.127 A 
ATOM     21  C   UNL     1     -11.091  -1.788   5.366  0.00  0.00    +0.083 A 
ATOM     22  C   UNL     1      -9.719  -1.965   5.347  0.00  0.00    +0.135 A 
ATOM     23  N   UNL     1      -9.143  -2.454   4.257  0.00  0.00    -0.210 NA
ATOM     24 CL   UNL     1      -8.763  -1.559   6.738  0.00  0.00    -0.062 Cl
ATOM     25  N   UNL     1     -13.197  -1.967   4.199  0.00  0.00    -0.315 N 
ATOM     26  C   UNL     1     -13.883  -1.336   5.330  0.00  0.00    +0.131 C 
BRANCH  25  27
ATOM     27  C   UNL     1     -13.966  -2.427   3.041  0.00  0.00    +0.075 C 
ATOM     28  C   UNL     1     -14.701  -1.241   2.413  0.00  0.00    +0.022 C 
ATOM     29  C   UNL     1     -15.505  -1.722   1.202  0.00  0.00    +0.002 C 
ATOM     30  C   UNL     1     -16.522  -2.773   1.650  0.00  0.00    +0.000 C 
ATOM     31  C   UNL     1     -15.787  -3.959   2.278  0.00  0.00    +0.002 C 
ATOM     32  C   UNL     1     -14.984  -3.478   3.489  0.00  0.00    +0.022 C 
ENDBRANCH  25  27
ENDBRANCH  17  18
ENDBRANCH   1  17
TORSDOF 11
