REMARK  Name = ZINC02336205
REMARK  1 active torsions:
REMARK  status: ('A' for Active; 'I' for Inactive)
REMARK    1  A    between atoms: C_5  and  C_7
REMARK                            x       y       z     vdW  Elec       q    Type
REMARK                         _______ _______ _______ _____ _____    ______ ____
ROOT
ATOM      1  C   UNL     1       1.230  -2.186  -0.022  0.00  0.00    +0.118 C 
ATOM      2  C   UNL     1       1.225  -2.688   1.408  0.00  0.00    +0.039 C 
ATOM      3  C   UNL     1       1.988  -3.622   2.028  0.00  0.00    +0.048 C 
ATOM      4  C   UNL     1       1.645  -3.649   3.470  0.00  0.00    +0.007 A 
ATOM      5  C   UNL     1       2.176  -4.381   4.518  0.00  0.00    +0.010 A 
ATOM      6  C   UNL     1       1.606  -4.176   5.778  0.00  0.00    +0.001 A 
ATOM      7  C   UNL     1       0.569  -3.294   5.971  0.00  0.00    +0.001 A 
ATOM      8  C   UNL     1       0.025  -2.549   4.919  0.00  0.00    +0.012 A 
ATOM      9  C   UNL     1       0.584  -2.739   3.668  0.00  0.00    +0.031 A 
ATOM     10  C   UNL     1       0.295  -2.147   2.352  0.00  0.00    +0.193 C 
ATOM     11  O   UNL     1      -0.582  -1.340   2.108  0.00  0.00    -0.287 OA
ATOM     12  N   UNL     1       2.887  -4.479   1.465  0.00  0.00    -0.313 N 
ATOM     13  C   UNL     1       2.654  -5.189   0.294  0.00  0.00    +0.045 A 
ATOM     14  C   UNL     1       2.499  -6.570   0.326  0.00  0.00    +0.024 A 
ATOM     15  C   UNL     1       2.300  -7.258  -0.858  0.00  0.00    +0.002 A 
ATOM     16  C   UNL     1       2.259  -6.576  -2.061  0.00  0.00    +0.001 A 
ATOM     17  C   UNL     1       2.401  -5.201  -2.091  0.00  0.00    +0.016 A 
ATOM     18  C   UNL     1       2.585  -4.505  -0.899  0.00  0.00    +0.030 A 
ATOM     19  S   UNL     1       2.693  -2.749  -0.919  0.00  0.00    -0.110 S 
ATOM     20  H   UNL     1       3.741  -4.600   1.909  0.00  0.00    +0.152 HD
ENDROOT
BRANCH   1  25
ATOM     21  C   UNL     1       1.728   1.396   1.063  0.00  0.00    +0.000 A 
ATOM     22  C   UNL     1       1.171   2.086   0.003  0.00  0.00    +0.001 A 
ATOM     23  C   UNL     1       0.633   1.395  -1.066  0.00  0.00    +0.015 A 
ATOM     24  C   UNL     1       0.652   0.011  -1.074  0.00  0.00    +0.022 A 
ATOM     25  C   UNL     1       1.209  -0.679  -0.013  0.00  0.00    -0.016 A 
ATOM     26  C   UNL     1       1.747   0.014   1.055  0.00  0.00    +0.006 A 
ATOM     27 BR   UNL     1      -0.085  -0.936  -2.536  0.00  0.00    -0.050 Br
ENDBRANCH   1  25
TORSDOF 1
