REMARK  Name = ZINC33898503
REMARK  12 active torsions:
REMARK  status: ('A' for Active; 'I' for Inactive)
REMARK    1  A    between atoms: C_1  and  C_2
REMARK    2  A    between atoms: C_2  and  N_3
REMARK    3  A    between atoms: N_3  and  C_4
REMARK    4  A    between atoms: N_3  and  C_6
REMARK    5  A    between atoms: C_4  and  C_5
REMARK    6  A    between atoms: C_6  and  C_7
REMARK    7  A    between atoms: C_7  and  N_8
REMARK    8  A    between atoms: C_9  and  C_11
REMARK    9  A    between atoms: C_11  and  N_23
REMARK   10  A    between atoms: C_12  and  C_13
REMARK   11  A    between atoms: N_15  and  C_22
REMARK   12  A    between atoms: C_24  and  C_26
REMARK                            x       y       z     vdW  Elec       q    Type
REMARK                         _______ _______ _______ _____ _____    ______ ____
ROOT
ATOM      1  C   UNL     1      -3.354  -6.136  -2.782  0.00  0.00    +0.097 C 
ATOM      2  C   UNL     1      -4.684  -6.398  -2.701  0.00  0.00    +0.038 C 
ENDROOT
BRANCH   2   3
ATOM      3  C   UNL     1      -5.651  -5.298  -2.735  0.00  0.00    +0.002 A 
ATOM      4  C   UNL     1      -5.581  -4.127  -2.036  0.00  0.00    +0.094 A 
ATOM      5  N   UNL     1      -6.660  -3.355  -2.328  0.00  0.00    -0.349 N 
ATOM      6  C   UNL     1      -7.479  -3.996  -3.234  0.00  0.00    +0.049 A 
ATOM      7  C   UNL     1      -6.888  -5.234  -3.535  0.00  0.00    +0.007 A 
ATOM      8  C   UNL     1      -7.502  -6.100  -4.436  0.00  0.00    +0.010 A 
ATOM      9  C   UNL     1      -8.689  -5.735  -5.033  0.00  0.00    +0.001 A 
ATOM     10  C   UNL     1      -9.273  -4.511  -4.739  0.00  0.00    +0.002 A 
ATOM     11  C   UNL     1      -8.680  -3.648  -3.843  0.00  0.00    +0.026 A 
ATOM     12  C   UNL     1      -6.917  -2.029  -1.761  0.00  0.00    +0.149 C 
ENDBRANCH   2   3
BRANCH   1  14
ATOM     13  N   UNL     1      -1.580  -4.490  -3.054  0.00  0.00    -0.312 N 
ATOM     14  C   UNL     1      -2.893  -4.788  -3.117  0.00  0.00    +0.258 C 
ATOM     15  O   UNL     1      -3.695  -3.936  -3.454  0.00  0.00    -0.269 OA
ATOM     16  H   UNL     1      -0.941  -5.169  -2.786  0.00  0.00    +0.149 HD
BRANCH  13  17
ATOM     17  C   UNL     1      -1.118  -3.141  -3.389  0.00  0.00    +0.086 C 
BRANCH  17  18
ATOM     18  C   UNL     1       0.402  -3.069  -3.237  0.00  0.00    -0.060 C 
BRANCH  18  19
ATOM     19  N   UNL     1       0.865  -1.716  -3.573  0.00  0.00    +0.380 N 
ATOM     20  H   UNL     1       0.542  -1.470  -4.497  0.00  0.00    -0.082 HD
BRANCH  19  22
ATOM     21  C   UNL     1       0.716   0.662  -3.011  0.00  0.00    -0.017 C 
ATOM     22  C   UNL     1       0.331  -0.759  -2.595  0.00  0.00    -0.082 C 
ENDBRANCH  19  22
BRANCH  19  23
ATOM     23  C   UNL     1       2.334  -1.680  -3.543  0.00  0.00    -0.082 C 
ATOM     24  C   UNL     1       2.889  -2.588  -4.642  0.00  0.00    -0.017 C 
ENDBRANCH  19  23
ENDBRANCH  18  19
ENDBRANCH  17  18
ENDBRANCH  13  17
ENDBRANCH   1  14
BRANCH   1  25
ATOM     25  N   UNL     1      -2.423  -7.157  -2.544  0.00  0.00    -0.277 N 
ATOM     26  C   UNL     1      -1.514  -7.473  -3.488  0.00  0.00    +0.250 C 
ATOM     27  O   UNL     1      -1.441  -6.814  -4.506  0.00  0.00    -0.270 OA
ATOM     28  H   UNL     1      -2.433  -7.636  -1.701  0.00  0.00    +0.155 HD
BRANCH  26  29
ATOM     29  C   UNL     1      -0.606  -8.621  -3.284  0.00  0.00    +0.055 A 
ATOM     30  C   UNL     1      -0.691  -9.384  -2.118  0.00  0.00    +0.014 A 
ATOM     31  C   UNL     1       0.159 -10.454  -1.933  0.00  0.00    +0.001 A 
ATOM     32  C   UNL     1       1.096 -10.773  -2.901  0.00  0.00    +0.001 A 
ATOM     33  C   UNL     1       1.187 -10.022  -4.059  0.00  0.00    +0.021 A 
ATOM     34  C   UNL     1       0.338  -8.951  -4.260  0.00  0.00    +0.053 A 
ATOM     35 CL   UNL     1       0.448  -8.014  -5.717  0.00  0.00    -0.083 Cl
ENDBRANCH  26  29
ENDBRANCH   1  25
TORSDOF 9
