REMARK  Name = ZINC39142940
REMARK  8 active torsions:
REMARK  status: ('A' for Active; 'I' for Inactive)
REMARK    1  A    between atoms: C_1  and  C_2
REMARK    2  A    between atoms: C_2  and  C_24
REMARK    3  A    between atoms: N_3  and  N_4
REMARK    4  A    between atoms: C_5  and  C_7
REMARK    5  A    between atoms: C_9  and  O_23
REMARK    6  A    between atoms: N_17  and  C_20
REMARK    7  A    between atoms: C_20  and  C_21
REMARK    8  A    between atoms: C_26  and  O_36
REMARK                            x       y       z     vdW  Elec       q    Type
REMARK                         _______ _______ _______ _____ _____    ______ ____
ROOT
ATOM      1  N   UNL     1       0.023   0.044   2.324  0.00  0.00    -0.206 N 
ATOM      2  C   UNL     1       0.044  -0.636   3.487  0.00  0.00    +0.247 C 
ATOM      3  O   UNL     1       0.060  -1.849   3.481  0.00  0.00    -0.273 OA
ATOM      4  H   UNL     1       0.010   1.014   2.329  0.00  0.00    +0.177 HD
ENDROOT
BRANCH   2   5
ATOM      5  C   UNL     1       0.046   0.110   4.797  0.00  0.00    +0.195 C 
ATOM      6  C   UNL     1       0.075  -0.891   5.952  0.00  0.00    +0.167 C 
ATOM      7  C   UNL     1      -1.260  -1.582   6.054  0.00  0.00    +0.003 A 
ATOM      8  C   UNL     1      -1.330  -2.901   6.456  0.00  0.00    +0.008 A 
ATOM      9  C   UNL     1      -2.557  -3.532   6.548  0.00  0.00    +0.000 A 
ATOM     10  C   UNL     1      -3.716  -2.845   6.237  0.00  0.00    +0.002 A 
ATOM     11  C   UNL     1      -3.653  -1.526   5.834  0.00  0.00    +0.024 A 
ATOM     12  C   UNL     1      -2.422  -0.889   5.742  0.00  0.00    +0.042 A 
ATOM     13  N   UNL     1      -2.350   0.447   5.336  0.00  0.00    -0.267 N 
ATOM     14  C   UNL     1      -1.192   0.961   4.889  0.00  0.00    +0.235 C 
ATOM     15  O   UNL     1      -1.145   2.126   4.556  0.00  0.00    -0.274 OA
BRANCH   6  16
ATOM     16  O   UNL     1       1.097  -1.862   5.715  0.00  0.00    -0.386 OA
ATOM     17  H   UNL     1       1.172  -2.530   6.410  0.00  0.00    +0.210 HD
ENDBRANCH   6  16
BRANCH  13  18
ATOM     18  C   UNL     1      -3.546   1.292   5.399  0.00  0.00    +0.140 C 
BRANCH  18  19
ATOM     19  C   UNL     1      -3.615   1.965   6.745  0.00  0.00    -0.015 C 
ATOM     20  C   UNL     1      -3.709   3.270   6.820  0.00  0.00    +0.005 C 
ENDBRANCH  18  19
ENDBRANCH  13  18
ENDBRANCH   2   5
BRANCH   1  23
ATOM     21  C   UNL     1      -0.018   1.503   0.010  0.00  0.00    +0.063 C 
ATOM     22  C   UNL     1       0.002  -0.004   0.002  0.00  0.00    +0.053 C 
ATOM     23  N   UNL     1       0.021  -0.650   1.107  0.00  0.00    -0.188 NA
BRANCH  22  24
ATOM     24  C   UNL     1      -0.000  -0.750  -1.307  0.00  0.00    +0.186 C 
ATOM     25  C   UNL     1      -0.198  -2.223  -1.003  0.00  0.00    +0.120 C 
ATOM     26  C   UNL     1       0.791  -3.102  -1.450  0.00  0.00    +0.035 A 
ATOM     27  C   UNL     1       0.685  -4.487  -1.210  0.00  0.00    +0.013 A 
ATOM     28  C   UNL     1       1.663  -5.322  -1.656  0.00  0.00    +0.001 A 
ATOM     29  C   UNL     1       2.768  -4.837  -2.347  0.00  0.00    +0.002 A 
ATOM     30  C   UNL     1       2.926  -3.509  -2.608  0.00  0.00    +0.024 A 
ATOM     31  C   UNL     1       1.955  -2.589  -2.177  0.00  0.00    +0.044 A 
ATOM     32  N   UNL     1       2.111  -1.284  -2.436  0.00  0.00    -0.284 N 
ATOM     33  C   UNL     1       1.248  -0.361  -2.066  0.00  0.00    +0.233 C 
ATOM     34  O   UNL     1       1.456   0.808  -2.335  0.00  0.00    -0.274 OA
ATOM     35  H   UNL     1       2.903  -1.004  -2.921  0.00  0.00    +0.155 HD
BRANCH  25  36
ATOM     36  O   UNL     1      -1.272  -2.660  -0.337  0.00  0.00    -0.509 OA
ATOM     37  H   UNL     1      -1.289  -3.618  -0.203  0.00  0.00    +0.292 HD
ENDBRANCH  25  36
ENDBRANCH  22  24
ENDBRANCH   1  23
TORSDOF 7
