REMARK  Name = ZINC37656086
REMARK  4 active torsions:
REMARK  status: ('A' for Active; 'I' for Inactive)
REMARK    1  A    between atoms: C_2  and  N_9
REMARK    2  A    between atoms: N_9  and  S_10
REMARK    3  A    between atoms: S_10  and  N_13
REMARK    4  A    between atoms: C_17  and  C_20
REMARK                            x       y       z     vdW  Elec       q    Type
REMARK                         _______ _______ _______ _____ _____    ______ ____
ROOT
ATOM      1  S   UNL     1       2.586   4.329   0.000  0.00  0.00    +0.131 S 
ATOM      2  O   UNL     1       3.228   4.056   1.238  0.00  0.00    -0.136 OA
ATOM      3  O   UNL     1       3.204   4.068  -1.252  0.00  0.00    -0.136 OA
ENDROOT
BRANCH   1   4
ATOM      4  N   UNL     1       2.201   5.939   0.012  0.00  0.00    -0.161 NA
ATOM      5  C   UNL     1       2.009   6.672  -1.247  0.00  0.00    +0.111 C 
ATOM      6  C   UNL     1       2.913   7.908  -1.240  0.00  0.00    +0.018 C 
ATOM      7  C   UNL     1       2.632   8.734   0.017  0.00  0.00    +0.017 C 
ATOM      8  C   UNL     1       2.948   7.899   1.259  0.00  0.00    +0.118 C 
ATOM      9  C   UNL     1       2.038   6.661   1.281  0.00  0.00    +0.125 C 
BRANCH   8  10
ATOM     10  C   UNL     1       2.702   8.724   2.496  0.00  0.00    +0.360 C 
ATOM     11  O   UNL     1       2.311   9.874   2.394  0.00  0.00    -0.246 OA
ATOM     12  O   UNL     1       2.895   8.241   3.599  0.00  0.00    -0.246 OA
ENDBRANCH   8  10
ENDBRANCH   1   4
BRANCH   1  13
ATOM     13  N   UNL     1       1.161   3.484   0.009  0.00  0.00    -0.087 NA
BRANCH  13  15
ATOM     14  C   UNL     1      -0.017   1.378   0.010  0.00  0.00    +0.046 A 
ATOM     15  C   UNL     1       1.177   2.088   0.002  0.00  0.00    +0.078 A 
ATOM     16  C   UNL     1       2.387   1.406  -0.013  0.00  0.00    +0.046 A 
ATOM     17  C   UNL     1       2.400   0.023  -0.021  0.00  0.00    +0.044 A 
ATOM     18  C   UNL     1       1.209  -0.681  -0.014  0.00  0.00    +0.040 A 
ATOM     19  C   UNL     1       0.002  -0.004   0.002  0.00  0.00    +0.044 A 
ATOM     20 CL   UNL     1      -1.490  -0.892   0.011  0.00  0.00    -0.083 Cl
ATOM     21 CL   UNL     1       3.912  -0.830  -0.040  0.00  0.00    -0.083 Cl
ENDBRANCH  13  15
ENDBRANCH   1  13
TORSDOF 4
