REMARK  Name = ZINC39533966
REMARK  9 active torsions:
REMARK  status: ('A' for Active; 'I' for Inactive)
REMARK    1  A    between atoms: C_4  and  O_32
REMARK    2  A    between atoms: C_5  and  C_7
REMARK    3  A    between atoms: C_10  and  C_13
REMARK    4  A    between atoms: C_13  and  C_15
REMARK    5  A    between atoms: C_13  and  N_18
REMARK    6  A    between atoms: C_15  and  N_16
REMARK    7  A    between atoms: N_16  and  O_17
REMARK    8  A    between atoms: C_22  and  C_25
REMARK    9  A    between atoms: C_30  and  O_31
REMARK                            x       y       z     vdW  Elec       q    Type
REMARK                         _______ _______ _______ _____ _____    ______ ____
ROOT
ATOM      1  C   UNL     1       1.319  -6.441  -0.046  0.00  0.00    +0.103 C 
ENDROOT
BRANCH   1   2
ATOM      2  N   UNL     1       1.282  -6.844   1.366  0.00  0.00    -0.297 NA
ATOM      3  C   UNL     1       2.048  -8.080   1.581  0.00  0.00    +0.066 C 
ATOM      4  C   UNL     1       2.035  -8.432   3.070  0.00  0.00    -0.066 C 
ATOM      5  N   UNL     1       0.647  -8.610   3.518  0.00  0.00    +0.385 N 
ATOM      6  C   UNL     1      -0.098  -7.360   3.320  0.00  0.00    -0.023 C 
ATOM      7  C   UNL     1      -0.102  -6.999   1.833  0.00  0.00    +0.074 C 
ATOM      8  H   UNL     1       0.214  -9.349   2.984  0.00  0.00    -0.085 HD
ATOM      9  H   UNL     1       0.640  -8.855   4.497  0.00  0.00    -0.085 HD
BRANCH   6  10
ATOM     10  C   UNL     1      -1.516  -7.540   3.797  0.00  0.00    -0.019 A 
ATOM     11  C   UNL     1      -2.044  -8.809   3.935  0.00  0.00    +0.005 A 
ATOM     12  C   UNL     1      -3.345  -8.975   4.372  0.00  0.00    +0.000 A 
ATOM     13  C   UNL     1      -4.121  -7.870   4.674  0.00  0.00    +0.004 A 
ATOM     14  C   UNL     1      -3.598  -6.599   4.539  0.00  0.00    +0.045 A 
ATOM     15  C   UNL     1      -2.290  -6.431   4.105  0.00  0.00    +0.118 A 
BRANCH  15  16
ATOM     16  O   UNL     1      -1.772  -5.181   3.976  0.00  0.00    -0.507 OA
ATOM     17  H   UNL     1      -1.907  -4.787   3.103  0.00  0.00    +0.292 HD
ENDBRANCH  15  16
ENDBRANCH   6  10
ENDBRANCH   1   2
BRANCH   1  21
ATOM     18  C   UNL     1       1.378  -2.174  -0.310  0.00  0.00    -0.014 A 
ATOM     19  C   UNL     1       2.234  -2.935  -1.103  0.00  0.00    +0.009 A 
ATOM     20  C   UNL     1       2.211  -4.312  -1.014  0.00  0.00    +0.006 A 
ATOM     21  C   UNL     1       1.340  -4.936  -0.139  0.00  0.00    -0.029 A 
ATOM     22  C   UNL     1       0.488  -4.186   0.651  0.00  0.00    +0.006 A 
ATOM     23  C   UNL     1       0.506  -2.808   0.573  0.00  0.00    +0.009 A 
BRANCH  18  28
ATOM     24  C   UNL     1       0.234   1.392  -0.649  0.00  0.00    +0.001 A 
ATOM     25  C   UNL     1       1.436   2.073  -0.573  0.00  0.00    +0.004 A 
ATOM     26  C   UNL     1       2.621   1.381  -0.412  0.00  0.00    +0.046 A 
ATOM     27  C   UNL     1       2.611  -0.002  -0.325  0.00  0.00    +0.125 A 
ATOM     28  C   UNL     1       1.398  -0.693  -0.401  0.00  0.00    +0.024 A 
ATOM     29  C   UNL     1       0.209   0.014  -0.564  0.00  0.00    +0.012 A 
BRANCH  27  30
ATOM     30  O   UNL     1       3.776  -0.683  -0.167  0.00  0.00    -0.506 OA
ATOM     31  H   UNL     1       4.026  -0.825   0.756  0.00  0.00    +0.292 HD
ENDBRANCH  27  30
ENDBRANCH  18  28
ENDBRANCH   1  21
BRANCH   1  32
ATOM     32  C   UNL     1       0.079  -6.978  -0.763  0.00  0.00    +0.134 C 
BRANCH  32  33
ATOM     33  N   UNL     1       0.026  -8.440  -0.619  0.00  0.00    -0.202 NA
ATOM     34  H   UNL     1       0.873  -8.868  -0.962  0.00  0.00    +0.154 HD
BRANCH  33  35
ATOM     35  O   UNL     1      -1.150  -8.990  -1.294  0.00  0.00    -0.315 OA
ATOM     36  H   UNL     1      -1.228  -9.951  -1.226  0.00  0.00    +0.236 HD
ENDBRANCH  33  35
ENDBRANCH  32  33
ENDBRANCH   1  32
TORSDOF 9
