REMARK  Name = ZINC36584130
REMARK  15 active torsions:
REMARK  status: ('A' for Active; 'I' for Inactive)
REMARK    1  A    between atoms: C_1  and  C_2
REMARK    2  A    between atoms: C_5  and  S_8
REMARK    3  A    between atoms: S_8  and  C_11
REMARK    4  A    between atoms: C_11  and  N_12
REMARK    5  A    between atoms: C_13  and  C_15
REMARK    6  A    between atoms: C_15  and  C_17
REMARK    7  A    between atoms: C_15  and  N_26
REMARK    8  A    between atoms: C_17  and  C_19
REMARK    9  A    between atoms: C_17  and  C_20
REMARK   10  A    between atoms: N_26  and  C_36
REMARK   11  A    between atoms: C_27  and  C_29
REMARK   12  A    between atoms: C_34  and  O_35
REMARK   13  A    between atoms: C_36  and  C_37
REMARK   14  A    between atoms: C_36  and  C_38
REMARK   15  A    between atoms: C_36  and  C_39
REMARK                            x       y       z     vdW  Elec       q    Type
REMARK                         _______ _______ _______ _____ _____    ______ ____
ROOT
ATOM      1  C   UNL     1       2.942  -6.149   6.833  0.00  0.00    +0.170 C 
ENDROOT
BRANCH   1   3
ATOM      2  N   UNL     1       0.827  -4.866   6.872  0.00  0.00    -0.295 N 
ATOM      3  C   UNL     1       1.723  -5.575   6.157  0.00  0.00    +0.235 C 
ATOM      4  O   UNL     1       1.549  -5.751   4.970  0.00  0.00    -0.274 OA
ATOM      5  H   UNL     1       0.931  -4.783   7.833  0.00  0.00    +0.150 HD
BRANCH   2   6
ATOM      6  C   UNL     1      -0.302  -4.222   6.198  0.00  0.00    +0.278 C 
BRANCH   6   7
ATOM      7  S   UNL     1      -1.752  -5.310   6.273  0.00  0.00    +0.013 S 
ATOM      8  O   UNL     1      -1.390  -6.633   5.903  0.00  0.00    -0.168 OA
ATOM      9  O   UNL     1      -2.874  -4.672   5.679  0.00  0.00    -0.168 OA
BRANCH   7  14
ATOM     10  C   UNL     1      -3.118  -5.673  12.139  0.00  0.00    +0.044 C 
ATOM     11  C   UNL     1      -2.777  -5.582  10.674  0.00  0.00    -0.050 A 
ATOM     12  C   UNL     1      -3.339  -4.589   9.894  0.00  0.00    +0.005 A 
ATOM     13  C   UNL     1      -3.026  -4.506   8.550  0.00  0.00    +0.027 A 
ATOM     14  C   UNL     1      -2.150  -5.415   7.986  0.00  0.00    +0.090 A 
ATOM     15  C   UNL     1      -1.587  -6.408   8.767  0.00  0.00    +0.027 A 
ATOM     16  C   UNL     1      -1.897  -6.489  10.112  0.00  0.00    +0.005 A 
ENDBRANCH   7  14
ENDBRANCH   6   7
ENDBRANCH   2   6
ENDBRANCH   1   3
BRANCH   1  17
ATOM     17  N   UNL     1       3.843  -6.708   5.822  0.00  0.00    -0.280 N 
ATOM     18  C   UNL     1       4.144  -8.021   5.839  0.00  0.00    +0.251 C 
ATOM     19  O   UNL     1       3.350  -8.820   6.298  0.00  0.00    -0.270 OA
BRANCH  18  20
ATOM     20  C   UNL     1       5.435  -8.490   5.301  0.00  0.00    +0.078 A 
ATOM     21  C   UNL     1       5.811  -8.168   3.995  0.00  0.00    +0.017 A 
ATOM     22  C   UNL     1       7.018  -8.608   3.498  0.00  0.00    +0.001 A 
ATOM     23  C   UNL     1       7.863  -9.370   4.290  0.00  0.00    +0.004 A 
ATOM     24  C   UNL     1       7.505  -9.695   5.582  0.00  0.00    +0.046 A 
ATOM     25  C   UNL     1       6.295  -9.256   6.100  0.00  0.00    +0.129 A 
BRANCH  25  26
ATOM     26  O   UNL     1       5.944  -9.570   7.372  0.00  0.00    -0.506 OA
ATOM     27  H   UNL     1       5.454 -10.400   7.451  0.00  0.00    +0.292 HD
ENDBRANCH  25  26
ENDBRANCH  18  20
BRANCH  17  28
ATOM     28  C   UNL     1       4.418  -5.838   4.793  0.00  0.00    +0.030 C 
ATOM     29  C   UNL     1       4.296  -4.378   5.232  0.00  0.00    +0.031 C 
ATOM     30  C   UNL     1       5.894  -6.189   4.595  0.00  0.00    +0.031 C 
ATOM     31  C   UNL     1       3.666  -6.040   3.476  0.00  0.00    +0.031 C 
ENDBRANCH  17  28
ENDBRANCH   1  17
BRANCH   1  32
ATOM     32  C   UNL     1       3.665  -5.044   7.606  0.00  0.00    +0.045 C 
ATOM     33  C   UNL     1       4.945  -5.608   8.225  0.00  0.00    +0.015 C 
BRANCH  32  34
ATOM     34  C   UNL     1       2.765  -4.524   8.697  0.00  0.00    -0.042 A 
ATOM     35  C   UNL     1       2.310  -5.378   9.684  0.00  0.00    +0.004 A 
ATOM     36  C   UNL     1       1.485  -4.901  10.685  0.00  0.00    +0.000 A 
ATOM     37  C   UNL     1       1.115  -3.570  10.700  0.00  0.00    +0.000 A 
ATOM     38  C   UNL     1       1.571  -2.715   9.714  0.00  0.00    +0.000 A 
ATOM     39  C   UNL     1       2.399  -3.191   8.715  0.00  0.00    +0.004 A 
ENDBRANCH  32  34
ENDBRANCH   1  32
TORSDOF 10
