REMARK  Name = ZINC12885754
REMARK  6 active torsions:
REMARK  status: ('A' for Active; 'I' for Inactive)
REMARK    1  A    between atoms: C_1  and  C_2
REMARK    2  A    between atoms: C_16  and  C_18
REMARK    3  A    between atoms: C_18  and  C_19
REMARK    4  A    between atoms: N_27  and  C_30
REMARK    5  A    between atoms: C_30  and  C_31
REMARK    6  A    between atoms: C_31  and  C_32
REMARK                            x       y       z     vdW  Elec       q    Type
REMARK                         _______ _______ _______ _____ _____    ______ ____
ROOT
ATOM      1  C   UNL     1       3.972  11.357   1.720  0.00  0.00    +0.045 C 
ATOM      2  C   UNL     1       4.980  10.782   0.759  0.00  0.00    -0.029 A 
ATOM      3  C   UNL     1       5.754  11.625  -0.011  0.00  0.00    +0.005 A 
ATOM      4  C   UNL     1       6.683  11.107  -0.896  0.00  0.00    +0.001 A 
ATOM      5  C   UNL     1       6.837   9.736  -1.008  0.00  0.00    +0.004 A 
ATOM      6  C   UNL     1       6.066   8.891  -0.242  0.00  0.00    -0.027 A 
ATOM      7  C   UNL     1       5.128   9.401   0.651  0.00  0.00    +0.039 A 
ATOM      8  N   UNL     1       4.471   8.359   1.309  0.00  0.00    -0.286 N 
ATOM      9  C   UNL     1       4.911   7.149   0.910  0.00  0.00    +0.211 C 
ATOM     10  O   UNL     1       4.523   6.071   1.306  0.00  0.00    -0.277 OA
ATOM     11  C   UNL     1       5.977   7.396  -0.122  0.00  0.00    +0.050 C 
ATOM     12  C   UNL     1       5.622   6.745  -1.463  0.00  0.00    +0.088 C 
ATOM     13  C   UNL     1       6.418   5.410  -1.474  0.00  0.00    +0.073 C 
ATOM     14  C   UNL     1       7.170   5.369  -0.127  0.00  0.00    -0.053 C 
ATOM     15  C   UNL     1       5.332   4.358  -1.468  0.00  0.00    +0.224 C 
ATOM     16  O   UNL     1       5.517   3.160  -1.476  0.00  0.00    -0.275 OA
ATOM     17  N   UNL     1       4.134   4.955  -1.454  0.00  0.00    -0.241 N 
ATOM     18  C   UNL     1       4.180   6.292  -1.453  0.00  0.00    +0.225 C 
ATOM     19  O   UNL     1       3.215   7.026  -1.442  0.00  0.00    -0.275 OA
ATOM     20  H   UNL     1       3.779   8.490   1.976  0.00  0.00    +0.155 HD
ATOM     21  N   UNL     1       7.240   6.792   0.271  0.00  0.00    +0.394 N 
ATOM     22  H   UNL     1       7.370   6.870   1.286  0.00  0.00    -0.083 HD
ATOM     23  H   UNL     1       8.019   7.256  -0.211  0.00  0.00    -0.083 HD
ENDROOT
BRANCH  14  24
ATOM     24  C   UNL     1       8.561   4.759  -0.312  0.00  0.00    +0.020 C 
BRANCH  24  25
ATOM     25  C   UNL     1       9.229   4.616   1.032  0.00  0.00    -0.049 A 
ATOM     26  C   UNL     1      10.006   5.644   1.530  0.00  0.00    +0.003 A 
ATOM     27  C   UNL     1      10.616   5.515   2.764  0.00  0.00    +0.000 A 
ATOM     28  C   UNL     1      10.456   4.353   3.495  0.00  0.00    +0.000 A 
ATOM     29  C   UNL     1       9.683   3.322   2.994  0.00  0.00    +0.000 A 
ATOM     30  C   UNL     1       9.069   3.454   1.763  0.00  0.00    +0.003 A 
ENDBRANCH  24  25
ENDBRANCH  14  24
BRANCH  17  31
ATOM     31  C   UNL     1       2.876   4.205  -1.446  0.00  0.00    +0.121 C 
BRANCH  31  32
ATOM     32  C   UNL     1       2.451   3.937  -0.001  0.00  0.00    +0.054 C 
BRANCH  32  33
ATOM     33  C   UNL     1       1.156   3.165   0.008  0.00  0.00    -0.046 A 
ATOM     34  C   UNL     1       1.175   1.783   0.000  0.00  0.00    +0.004 A 
ATOM     35  C   UNL     1      -0.013   1.076   0.008  0.00  0.00    +0.000 A 
ATOM     36  C   UNL     1      -1.219   1.751   0.017  0.00  0.00    +0.000 A 
ATOM     37  C   UNL     1      -1.238   3.133   0.030  0.00  0.00    +0.000 A 
ATOM     38  C   UNL     1      -0.050   3.840   0.023  0.00  0.00    +0.004 A 
ENDBRANCH  32  33
ENDBRANCH  31  32
ENDBRANCH  17  31
TORSDOF 5
