REMARK  Name = ZINC08672488
REMARK  3 active torsions:
REMARK  status: ('A' for Active; 'I' for Inactive)
REMARK    1  A    between atoms: C_1  and  C_2
REMARK    2  A    between atoms: C_5  and  C_8
REMARK    3  A    between atoms: C_32  and  N_56
REMARK                            x       y       z     vdW  Elec       q    Type
REMARK                         _______ _______ _______ _____ _____    ______ ____
ROOT
ATOM      1  C   UNL     1       1.505   6.704  -0.694  0.00  0.00    +0.019 C 
ATOM      2  C   UNL     1       1.845   6.856   0.806  0.00  0.00    -0.068 C 
ATOM      3  C   UNL     1       0.117   5.279   0.720  0.00  0.00    +0.056 C 
ATOM      4  C   UNL     1       0.380   5.654  -0.740  0.00  0.00    +0.076 C 
ATOM      5  C   UNL     1      -0.871   6.248  -1.379  0.00  0.00    +0.243 C 
ATOM      6  O   UNL     1      -0.632   6.484  -2.770  0.00  0.00    -0.490 OA
ATOM      7  C   UNL     1      -0.255   5.424  -3.526  0.00  0.00    +0.131 A 
ATOM      8  C   UNL     1      -0.593   5.362  -4.869  0.00  0.00    +0.046 A 
ATOM      9  C   UNL     1      -0.200   4.279  -5.630  0.00  0.00    +0.004 A 
ATOM     10  C   UNL     1       0.532   3.246  -5.064  0.00  0.00    +0.001 A 
ATOM     11  C   UNL     1       0.876   3.288  -3.730  0.00  0.00    +0.015 A 
ATOM     12  C   UNL     1       0.484   4.378  -2.950  0.00  0.00    +0.060 A 
ATOM     13  C   UNL     1       0.832   4.448  -1.522  0.00  0.00    +0.176 C 
ATOM     14  O   UNL     1       1.466   3.561  -0.991  0.00  0.00    -0.291 OA
ATOM     15  C   UNL     1       0.774   3.996   1.101  0.00  0.00    -0.027 A 
ATOM     16  C   UNL     1       2.094   3.599   1.094  0.00  0.00    +0.004 A 
ATOM     17  C   UNL     1       2.367   2.304   1.520  0.00  0.00    +0.000 A 
ATOM     18  C   UNL     1       1.360   1.454   1.931  0.00  0.00    +0.002 A 
ATOM     19  C   UNL     1       0.030   1.844   1.938  0.00  0.00    +0.023 A 
ATOM     20  C   UNL     1      -0.258   3.143   1.519  0.00  0.00    +0.036 A 
ATOM     21  N   UNL     1      -1.480   3.787   1.430  0.00  0.00    -0.286 N 
ATOM     22  C   UNL     1      -1.354   5.051   0.968  0.00  0.00    +0.212 C 
ATOM     23  O   UNL     1      -2.250   5.848   0.789  0.00  0.00    -0.277 OA
ATOM     24  C   UNL     1       0.926   5.997   2.893  0.00  0.00    -0.094 C 
ATOM     25  H   UNL     1      -2.327   3.379   1.670  0.00  0.00    +0.155 HD
ATOM     26  N   UNL     1       0.628   6.411   1.485  0.00  0.00    +0.391 N 
ATOM     27  H   UNL     1      -0.064   7.169   1.496  0.00  0.00    -0.080 HD
ENDROOT
BRANCH   1  32
ATOM     28  C   UNL     1       6.125   4.845  -3.626  0.00  0.00    +0.044 C 
ATOM     29  C   UNL     1       4.920   5.330  -2.861  0.00  0.00    -0.050 A 
ATOM     30  C   UNL     1       3.870   5.928  -3.533  0.00  0.00    +0.003 A 
ATOM     31  C   UNL     1       2.765   6.373  -2.831  0.00  0.00    +0.004 A 
ATOM     32  C   UNL     1       2.709   6.219  -1.459  0.00  0.00    -0.045 A 
ATOM     33  C   UNL     1       3.761   5.625  -0.787  0.00  0.00    +0.004 A 
ATOM     34  C   UNL     1       4.864   5.176  -1.488  0.00  0.00    +0.003 A 
ENDBRANCH   1  32
TORSDOF 1
