REMARK  Name = ZINC19952224
REMARK  3 active torsions:
REMARK  status: ('A' for Active; 'I' for Inactive)
REMARK    1  A    between atoms: C_4  and  C_15
REMARK    2  A    between atoms: C_6  and  N_7
REMARK    3  A    between atoms: N_7  and  C_8
REMARK                            x       y       z     vdW  Elec       q    Type
REMARK                         _______ _______ _______ _____ _____    ______ ____
ROOT
ATOM      1  N   UNL     1      -1.199  -0.719   0.010  0.00  0.00    -0.313 N 
ATOM      2  H   UNL     1      -1.183  -1.689   0.003  0.00  0.00    +0.152 HD
ENDROOT
BRANCH   1   3
ATOM      3  C   UNL     1      -2.418  -0.039   0.131  0.00  0.00    +0.048 A 
ATOM      4  C   UNL     1      -2.588   1.214  -0.457  0.00  0.00    +0.028 A 
ATOM      5  C   UNL     1      -3.808   1.848  -0.312  0.00  0.00    +0.043 A 
ATOM      6  C   UNL     1      -4.818   1.220   0.410  0.00  0.00    +0.094 A 
ATOM      7  N   UNL     1      -4.620   0.030   0.954  0.00  0.00    -0.348 N 
ATOM      8  C   UNL     1      -3.471  -0.607   0.831  0.00  0.00    +0.107 A 
ATOM      9  N   UNL     1      -6.050   1.851   0.562  0.00  0.00    -0.345 N 
ATOM     10  H   UNL     1      -6.200   2.724   0.166  0.00  0.00    +0.144 HD
ATOM     11  H   UNL     1      -6.758   1.418   1.065  0.00  0.00    +0.144 HD
ATOM     12  H   UNL     1      -5.340  -0.386   1.453  0.00  0.00    +0.167 HD
ENDBRANCH   1   3
BRANCH   1  18
ATOM     13  C   UNL     1       1.064  -0.534  -0.811  0.00  0.00    +0.025 A 
ATOM     14  C   UNL     1       2.247   0.172  -0.924  0.00  0.00    +0.022 A 
ATOM     15  C   UNL     1       2.375   1.414  -0.333  0.00  0.00    +0.055 A 
ATOM     16  C   UNL     1       1.305   1.960   0.383  0.00  0.00    +0.083 A 
ATOM     17  C   UNL     1       0.110   1.246   0.496  0.00  0.00    +0.039 A 
ATOM     18  C   UNL     1      -0.006   0.000  -0.101  0.00  0.00    +0.032 A 
ATOM     19 CL   UNL     1       3.864   2.295  -0.478  0.00  0.00    -0.083 Cl
BRANCH  16  20
ATOM     20  C   UNL     1       1.437   3.286   1.016  0.00  0.00    +0.388 C 
ATOM     21  O   UNL     1       0.500   3.761   1.641  0.00  0.00    -0.241 OA
ATOM     22  O   UNL     1       2.485   3.909   0.915  0.00  0.00    -0.241 OA
ENDBRANCH  16  20
ENDBRANCH   1  18
TORSDOF 3
