REMARK  Name = ZINC08870574
REMARK  14 active torsions:
REMARK  status: ('A' for Active; 'I' for Inactive)
REMARK    1  A    between atoms: C_1  and  C_2
REMARK    2  A    between atoms: C_2  and  O_3
REMARK    3  A    between atoms: O_3  and  C_4
REMARK    4  A    between atoms: C_4  and  C_6
REMARK    5  A    between atoms: C_7  and  C_35
REMARK    6  A    between atoms: N_8  and  S_30
REMARK    7  A    between atoms: C_12  and  N_15
REMARK    8  A    between atoms: N_15  and  S_25
REMARK    9  A    between atoms: C_16  and  C_18
REMARK   10  A    between atoms: C_21  and  C_24
REMARK   11  A    between atoms: S_25  and  C_28
REMARK   12  A    between atoms: C_28  and  C_29
REMARK   13  A    between atoms: S_30  and  C_33
REMARK   14  A    between atoms: C_33  and  C_34
REMARK                            x       y       z     vdW  Elec       q    Type
REMARK                         _______ _______ _______ _____ _____    ______ ____
ROOT
ATOM      1  C   UNL     1       3.046   4.723  -3.308  0.00  0.00    +0.089 A 
ATOM      2  C   UNL     1       2.988   5.995  -3.800  0.00  0.00    +0.054 A 
ATOM      3  N   UNL     1       1.696   6.372  -3.944  0.00  0.00    -0.219 N 
ATOM      4  C   UNL     1       0.849   5.354  -3.549  0.00  0.00    +0.073 A 
ATOM      5  C   UNL     1       1.650   4.278  -3.135  0.00  0.00    +0.018 A 
ATOM      6  C   UNL     1       1.061   3.102  -2.679  0.00  0.00    +0.036 A 
ATOM      7  C   UNL     1      -0.319   3.000  -2.637  0.00  0.00    +0.060 A 
ATOM      8  C   UNL     1      -1.112   4.067  -3.054  0.00  0.00    +0.027 A 
ATOM      9  C   UNL     1      -0.536   5.235  -3.501  0.00  0.00    +0.030 A 
ATOM     10  C   UNL     1       4.183   6.851  -4.131  0.00  0.00    +0.066 C 
ENDROOT
BRANCH   7  11
ATOM     11  N   UNL     1      -0.919   1.820  -2.181  0.00  0.00    -0.140 N 
ATOM     12  C   UNL     1      -0.692   1.392  -0.923  0.00  0.00    +0.270 C 
ATOM     13  O   UNL     1      -1.158   0.334  -0.548  0.00  0.00    -0.268 OA
BRANCH  12  14
ATOM     14  C   UNL     1       0.117   2.213   0.003  0.00  0.00    +0.039 A 
ATOM     15  C   UNL     1       0.092   3.606  -0.090  0.00  0.00    +0.013 A 
ATOM     16  C   UNL     1       0.845   4.365   0.781  0.00  0.00    +0.004 A 
ATOM     17  C   UNL     1       1.634   3.750   1.736  0.00  0.00    -0.050 A 
ATOM     18  C   UNL     1       1.669   2.370   1.830  0.00  0.00    +0.004 A 
ATOM     19  C   UNL     1       0.915   1.598   0.969  0.00  0.00    +0.013 A 
ATOM     20  C   UNL     1       2.460   4.587   2.679  0.00  0.00    +0.044 C 
ENDBRANCH  12  14
BRANCH  11  21
ATOM     21  S   UNL     1      -1.906   0.950  -3.186  0.00  0.00    +0.052 S 
ATOM     22  O   UNL     1      -1.574   1.395  -4.494  0.00  0.00    -0.155 OA
ATOM     23  O   UNL     1      -1.704  -0.405  -2.809  0.00  0.00    -0.155 OA
BRANCH  21  24
ATOM     24  C   UNL     1      -3.588   1.475  -2.755  0.00  0.00    +0.186 C 
ATOM     25  C   UNL     1      -4.601   0.594  -3.490  0.00  0.00    +0.030 C 
ENDBRANCH  21  24
ENDBRANCH  11  21
ENDBRANCH   7  11
BRANCH   3  26
ATOM     26  S   UNL     1       1.200   7.846  -4.513  0.00  0.00    +0.055 S 
ATOM     27  O   UNL     1       2.205   8.233  -5.441  0.00  0.00    -0.153 OA
ATOM     28  O   UNL     1      -0.139   7.637  -4.941  0.00  0.00    -0.153 OA
BRANCH  26  29
ATOM     29  C   UNL     1       1.230   8.939  -3.066  0.00  0.00    +0.188 C 
ATOM     30  C   UNL     1       0.786  10.344  -3.479  0.00  0.00    +0.030 C 
ENDBRANCH  26  29
ENDBRANCH   3  26
BRANCH   1  31
ATOM     31  C   UNL     1       4.257   3.950  -3.012  0.00  0.00    +0.342 C 
ATOM     32  O   UNL     1       4.759   3.252  -3.872  0.00  0.00    -0.245 OA
BRANCH  31  33
ATOM     33  O   UNL     1       4.815   4.014  -1.786  0.00  0.00    -0.461 OA
BRANCH  33  35
ATOM     34  C   UNL     1       6.489   3.407  -0.125  0.00  0.00    +0.048 C 
ATOM     35  C   UNL     1       5.939   3.133  -1.526  0.00  0.00    +0.229 C 
ENDBRANCH  33  35
ENDBRANCH  31  33
ENDBRANCH   1  31
TORSDOF 9
