REMARK  Name = ZINC12790562
REMARK  8 active torsions:
REMARK  status: ('A' for Active; 'I' for Inactive)
REMARK    1  A    between atoms: C_4  and  N_7
REMARK    2  A    between atoms: N_7  and  S_8
REMARK    3  A    between atoms: S_8  and  C_11
REMARK    4  A    between atoms: C_14  and  C_17
REMARK    5  A    between atoms: N_19  and  C_20
REMARK    6  A    between atoms: C_20  and  C_21
REMARK    7  A    between atoms: C_21  and  C_23
REMARK    8  A    between atoms: C_21  and  N_56
REMARK                            x       y       z     vdW  Elec       q    Type
REMARK                         _______ _______ _______ _____ _____    ______ ____
ROOT
ATOM      1  C   UNL     1       1.951  -5.774  -6.246  0.00  0.00    +0.109 A 
ATOM      2  C   UNL     1       0.625  -5.466  -5.998  0.00  0.00    +0.029 A 
ATOM      3  C   UNL     1       0.165  -5.383  -4.700  0.00  0.00    +0.015 A 
ATOM      4  C   UNL     1       1.041  -5.609  -3.636  0.00  0.00    +0.037 A 
ATOM      5  C   UNL     1       2.378  -5.914  -3.894  0.00  0.00    +0.015 A 
ATOM      6  C   UNL     1       2.824  -6.000  -5.197  0.00  0.00    +0.029 A 
ENDROOT
BRANCH   4   7
ATOM      7  C   UNL     1       0.555  -5.521  -2.243  0.00  0.00    +0.244 C 
ATOM      8  O   UNL     1      -0.610  -5.250  -2.021  0.00  0.00    -0.270 OA
ATOM      9  N   UNL     1       1.402  -5.740  -1.218  0.00  0.00    -0.313 N 
ATOM     10  H   UNL     1       2.331  -5.956  -1.395  0.00  0.00    +0.149 HD
BRANCH   9  11
ATOM     11  C   UNL     1       0.921  -5.653   0.163  0.00  0.00    +0.094 C 
BRANCH  11  12
ATOM     12  C   UNL     1       2.104  -5.777   1.124  0.00  0.00    -0.013 C 
BRANCH  12  17
ATOM     13  C   UNL     1       4.057  -4.604   1.983  0.00  0.00    -0.078 C 
ATOM     14  C   UNL     1       5.185  -3.753   1.347  0.00  0.00    -0.020 C 
ATOM     15  C   UNL     1       5.168  -4.207  -0.131  0.00  0.00    -0.020 C 
ATOM     16  C   UNL     1       3.763  -4.795  -0.355  0.00  0.00    -0.078 C 
ATOM     17  N   UNL     1       3.048  -4.639   0.913  0.00  0.00    +0.386 N 
ATOM     18  H   UNL     1       2.519  -3.759   0.906  0.00  0.00    -0.081 HD
ENDBRANCH  12  17
BRANCH  12  19
ATOM     19  C   UNL     1       1.601  -5.761   2.545  0.00  0.00    -0.022 A 
ATOM     20  C   UNL     1       1.493  -6.787   3.424  0.00  0.00    +0.009 A 
ATOM     21  C   UNL     1       0.999  -6.536   4.690  0.00  0.00    +0.008 A 
ATOM     22  C   UNL     1       0.636  -5.271   5.015  0.00  0.00    +0.045 A 
ATOM     23  S   UNL     1       0.999  -4.384   3.509  0.00  0.00    -0.103 S 
ENDBRANCH  12  19
ENDBRANCH  11  12
ENDBRANCH   9  11
ENDBRANCH   4   7
BRANCH   1  24
ATOM     24  S   UNL     1       2.530  -5.879  -7.907  0.00  0.00    +0.072 S 
ATOM     25  O   UNL     1       3.623  -6.787  -7.899  0.00  0.00    -0.150 OA
ATOM     26  O   UNL     1       1.385  -6.072  -8.726  0.00  0.00    -0.150 OA
BRANCH  24  27
ATOM     27  N   UNL     1       3.151  -4.396  -8.304  0.00  0.00    -0.216 N 
ATOM     28  H   UNL     1       2.763  -3.887  -9.033  0.00  0.00    +0.174 HD
BRANCH  27  32
ATOM     29  C   UNL     1       6.376  -2.850  -6.172  0.00  0.00    +0.000 A 
ATOM     30  C   UNL     1       6.397  -4.165  -6.597  0.00  0.00    +0.002 A 
ATOM     31  C   UNL     1       5.329  -4.681  -7.304  0.00  0.00    +0.024 A 
ATOM     32  C   UNL     1       4.233  -3.877  -7.588  0.00  0.00    +0.048 A 
ATOM     33  C   UNL     1       4.217  -2.555  -7.164  0.00  0.00    +0.024 A 
ATOM     34  C   UNL     1       5.286  -2.046  -6.452  0.00  0.00    +0.002 A 
ENDBRANCH  27  32
ENDBRANCH  24  27
ENDBRANCH   1  24
TORSDOF 8
