REMARK  Name = ZINC12010174
REMARK  3 active torsions:
REMARK  status: ('A' for Active; 'I' for Inactive)
REMARK    1  A    between atoms: C_3  and  C_6
REMARK    2  A    between atoms: C_8  and  N_23
REMARK    3  A    between atoms: C_24  and  C_26
REMARK                            x       y       z     vdW  Elec       q    Type
REMARK                         _______ _______ _______ _____ _____    ______ ____
ROOT
ATOM      1  C   UNL     1      -1.830   9.328  -0.377  0.00  0.00    +0.130 A 
ATOM      2  C   UNL     1      -1.591   7.990   0.001  0.00  0.00    +0.077 A 
ATOM      3  C   UNL     1      -2.131   7.187  -0.950  0.00  0.00    +0.132 A 
ATOM      4  N   UNL     1      -2.703   7.991  -1.895  0.00  0.00    -0.184 N 
ATOM      5  N   UNL     1      -2.499   9.322  -1.512  0.00  0.00    -0.159 NA
ATOM      6  C   UNL     1      -3.365   7.565  -3.030  0.00  0.00    +0.234 A 
ATOM      7  N   UNL     1      -3.885   8.484  -3.886  0.00  0.00    -0.291 N 
ATOM      8  H   UNL     1      -3.789   9.432  -3.702  0.00  0.00    +0.172 HD
ATOM      9  C   UNL     1      -4.535   8.069  -4.992  0.00  0.00    +0.256 A 
ATOM     10  O   UNL     1      -5.008   8.879  -5.772  0.00  0.00    -0.267 OA
ATOM     11  C   UNL     1      -4.662   6.683  -5.234  0.00  0.00    +0.038 A 
ATOM     12  C   UNL     1      -4.115   5.811  -4.350  0.00  0.00    +0.053 A 
ATOM     13  N   UNL     1      -3.477   6.279  -3.269  0.00  0.00    -0.217 NA
ATOM     14  C   UNL     1      -4.180   4.318  -4.535  0.00  0.00    +0.056 C 
ATOM     15  C   UNL     1      -5.277   3.947  -5.531  0.00  0.00    +0.006 C 
ATOM     16  C   UNL     1      -5.084   4.789  -6.798  0.00  0.00    +0.005 C 
ATOM     17  C   UNL     1      -5.409   6.244  -6.463  0.00  0.00    +0.042 C 
ENDROOT
BRANCH   1  20
ATOM     18  C   UNL     1      -1.067  12.631   1.011  0.00  0.00    +0.042 A 
ATOM     19  C   UNL     1      -1.638  11.819   0.011  0.00  0.00    +0.051 A 
ATOM     20  C   UNL     1      -1.408  10.529   0.374  0.00  0.00    +0.155 A 
ATOM     21  O   UNL     1      -0.723  10.536   1.534  0.00  0.00    -0.461 OA
ATOM     22  C   UNL     1      -0.515  11.805   1.922  0.00  0.00    +0.196 A 
ENDBRANCH   1  20
BRANCH   3  23
ATOM     23  N   UNL     1      -2.112   5.794  -0.958  0.00  0.00    -0.270 N 
ATOM     24  C   UNL     1      -1.510   5.123   0.044  0.00  0.00    +0.224 C 
ATOM     25  O   UNL     1      -0.984   5.731   0.952  0.00  0.00    -0.275 OA
ATOM     26  H   UNL     1      -2.533   5.307  -1.684  0.00  0.00    +0.156 HD
BRANCH  24  27
ATOM     27  C   UNL     1      -1.490   3.616   0.036  0.00  0.00    +0.048 C 
ATOM     28  C   UNL     1      -0.773   3.123  -1.223  0.00  0.00    +0.019 C 
ATOM     29  C   UNL     1      -0.753   1.593  -1.232  0.00  0.00    -0.009 C 
ATOM     30  C   UNL     1      -0.013   1.086   0.008  0.00  0.00    +0.007 C 
ATOM     31  C   UNL     1      -0.729   1.579   1.267  0.00  0.00    -0.009 C 
ATOM     32  C   UNL     1      -0.750   3.109   1.275  0.00  0.00    +0.019 C 
ATOM     33  C   UNL     1      -2.164   1.050   1.278  0.00  0.00    +0.007 C 
ATOM     34  C   UNL     1      -2.904   1.556   0.038  0.00  0.00    -0.009 C 
ATOM     35  C   UNL     1      -2.188   1.063  -1.221  0.00  0.00    +0.007 C 
ATOM     36  C   UNL     1      -2.925   3.086   0.047  0.00  0.00    +0.019 C 
ENDBRANCH  24  27
ENDBRANCH   3  23
TORSDOF 3
