REMARK  Name = ZINC05840071
REMARK  7 active torsions:
REMARK  status: ('A' for Active; 'I' for Inactive)
REMARK    1  A    between atoms: C_1  and  C_2
REMARK    2  A    between atoms: C_2  and  C_27
REMARK    3  A    between atoms: C_6  and  C_17
REMARK    4  A    between atoms: C_11  and  O_16
REMARK    5  A    between atoms: C_12  and  O_15
REMARK    6  A    between atoms: C_23  and  S_25
REMARK    7  A    between atoms: S_25  and  C_26
REMARK                            x       y       z     vdW  Elec       q    Type
REMARK                         _______ _______ _______ _____ _____    ______ ____
ROOT
ATOM      1  C   UNL     1       1.451   2.607  -1.423  0.00  0.00    +0.034 C 
ATOM      2  C   UNL     1       1.184   2.118   0.002  0.00  0.00    +0.040 C 
ATOM      3  C   UNL     1       2.466   1.509   0.575  0.00  0.00    +0.096 C 
ATOM      4  C   UNL     1       2.729   0.175  -0.132  0.00  0.00    +0.181 C 
ATOM      5  C   UNL     1       2.916   0.413  -1.632  0.00  0.00    +0.082 C 
ATOM      6  C   UNL     1       4.060   1.413  -1.825  0.00  0.00    +0.065 C 
ATOM      7  C   UNL     1       5.243   1.000  -0.986  0.00  0.00    +0.006 A 
ATOM      8  C   UNL     1       6.488   1.531  -1.286  0.00  0.00    +0.011 A 
ATOM      9  C   UNL     1       7.595   1.187  -0.537  0.00  0.00    +0.050 A 
ATOM     10  C   UNL     1       7.466   0.304   0.525  0.00  0.00    +0.162 A 
ATOM     11  C   UNL     1       6.222  -0.231   0.829  0.00  0.00    +0.201 A 
ATOM     12  C   UNL     1       5.106   0.116   0.069  0.00  0.00    +0.172 A 
ATOM     13  O   UNL     1       3.905  -0.433   0.393  0.00  0.00    -0.464 OA
ATOM     14  N   UNL     1       1.569  -0.694   0.091  0.00  0.00    -0.288 N 
ATOM     15  C   UNL     1       0.308  -0.147   0.010  0.00  0.00    +0.131 C 
ATOM     16  N   UNL     1       0.112   1.131  -0.021  0.00  0.00    -0.363 N 
ATOM     17  C   UNL     1       0.758   3.305   0.870  0.00  0.00    +0.034 C 
ATOM     18  H   UNL     1       1.715  -1.760   0.319  0.00  0.00    +0.152 HD
ATOM     19  H   UNL     1      -0.913   1.529  -0.069  0.00  0.00    +0.162 HD
ENDROOT
BRANCH   6  20
ATOM     20  C   UNL     1       4.460   1.443  -3.277  0.00  0.00    -0.003 A 
ATOM     21  C   UNL     1       4.445   2.483  -4.146  0.00  0.00    +0.012 A 
ATOM     22  C   UNL     1       4.863   2.276  -5.447  0.00  0.00    +0.008 A 
ATOM     23  C   UNL     1       5.277   1.039  -5.816  0.00  0.00    +0.045 A 
ATOM     24  S   UNL     1       5.087   0.118  -4.298  0.00  0.00    -0.101 S 
ENDBRANCH   6  20
BRANCH  11  25
ATOM     25  O   UNL     1       6.091  -1.097   1.871  0.00  0.00    -0.501 OA
ATOM     26  H   UNL     1       5.105  -1.522   2.113  0.00  0.00    +0.292 HD
ENDBRANCH  11  25
BRANCH  10  27
ATOM     27  O   UNL     1       8.554  -0.035   1.267  0.00  0.00    -0.503 OA
ATOM     28  H   UNL     1       8.450  -0.734   2.109  0.00  0.00    +0.292 HD
ENDBRANCH  10  27
BRANCH  15  29
ATOM     29  S   UNL     1      -1.085  -1.225  -0.054  0.00  0.00    -0.096 S 
ATOM     30  C   UNL     1      -2.420  -0.007  -0.150  0.00  0.00    +0.092 C 
ENDBRANCH  15  29
TORSDOF 4
