REMARK  Name = ZINC01844791
REMARK  12 active torsions:
REMARK  status: ('A' for Active; 'I' for Inactive)
REMARK    1  A    between atoms: C_1  and  O_2
REMARK    2  A    between atoms: O_2  and  C_3
REMARK    3  A    between atoms: C_6  and  N_9
REMARK    4  A    between atoms: N_9  and  S_10
REMARK    5  A    between atoms: S_10  and  C_13
REMARK    6  A    between atoms: C_20  and  C_21
REMARK    7  A    between atoms: C_20  and  C_23
REMARK    8  A    between atoms: C_29  and  S_31
REMARK    9  A    between atoms: S_31  and  N_34
REMARK   10  A    between atoms: N_34  and  C_35
REMARK   11  A    between atoms: C_38  and  O_41
REMARK   12  A    between atoms: O_41  and  C_42
REMARK                            x       y       z     vdW  Elec       q    Type
REMARK                         _______ _______ _______ _____ _____    ______ ____
ROOT
ATOM      1  C   UNL     1      -2.532   0.120   1.536  0.00  0.00    +0.109 A 
ATOM      2  C   UNL     1      -2.288   1.300   2.215  0.00  0.00    +0.029 A 
ATOM      3  C   UNL     1      -2.755   1.478   3.505  0.00  0.00    +0.011 A 
ATOM      4  C   UNL     1      -3.476   0.467   4.129  0.00  0.00    -0.009 A 
ATOM      5  C   UNL     1      -3.725  -0.733   3.438  0.00  0.00    -0.006 A 
ATOM      6  C   UNL     1      -3.252  -0.895   2.138  0.00  0.00    +0.038 A 
ATOM      7  C   UNL     1      -4.502  -1.616   4.331  0.00  0.00    +0.018 C 
ATOM      8  C   UNL     1      -4.953  -2.893   4.036  0.00  0.00    +0.136 C 
ATOM      9  C   UNL     1      -4.709  -0.884   5.597  0.00  0.00    -0.006 A 
ATOM     10  C   UNL     1      -4.090   0.372   5.474  0.00  0.00    -0.009 A 
ATOM     11  C   UNL     1      -4.138   1.266   6.539  0.00  0.00    +0.011 A 
ATOM     12  C   UNL     1      -4.792   0.915   7.707  0.00  0.00    +0.029 A 
ATOM     13  C   UNL     1      -5.400  -0.321   7.827  0.00  0.00    +0.109 A 
ATOM     14  C   UNL     1      -5.363  -1.222   6.780  0.00  0.00    +0.038 A 
ENDROOT
BRANCH   1  15
ATOM     15  S   UNL     1      -1.929  -0.088  -0.107  0.00  0.00    +0.072 S 
ATOM     16  O   UNL     1      -1.653   1.213  -0.606  0.00  0.00    -0.150 OA
ATOM     17  O   UNL     1      -2.823  -0.980  -0.758  0.00  0.00    -0.150 OA
BRANCH  15  18
ATOM     18  N   UNL     1      -0.474  -0.872   0.002  0.00  0.00    -0.216 N 
ATOM     19  H   UNL     1       0.339  -0.427  -0.286  0.00  0.00    +0.174 HD
BRANCH  18  23
ATOM     20  C   UNL     1      -0.307  -4.761   1.492  0.00  0.00    +0.120 A 
ATOM     21  C   UNL     1      -0.786  -4.530   0.211  0.00  0.00    +0.047 A 
ATOM     22  C   UNL     1      -0.842  -3.241  -0.283  0.00  0.00    +0.028 A 
ATOM     23  C   UNL     1      -0.418  -2.178   0.502  0.00  0.00    +0.048 A 
ATOM     24  C   UNL     1       0.067  -2.411   1.782  0.00  0.00    +0.028 A 
ATOM     25  C   UNL     1       0.116  -3.699   2.277  0.00  0.00    +0.047 A 
BRANCH  20  27
ATOM     26  C   UNL     1       0.253  -6.195   3.305  0.00  0.00    +0.277 C 
ATOM     27  O   UNL     1      -0.252  -6.030   1.978  0.00  0.00    -0.495 OA
ENDBRANCH  20  27
ENDBRANCH  18  23
ENDBRANCH  15  18
ENDBRANCH   1  15
BRANCH  13  28
ATOM     28  S   UNL     1      -6.227  -0.750   9.323  0.00  0.00    +0.072 S 
ATOM     29  O   UNL     1      -6.353  -2.165   9.327  0.00  0.00    -0.150 OA
ATOM     30  O   UNL     1      -5.574  -0.040  10.366  0.00  0.00    -0.150 OA
BRANCH  28  31
ATOM     31  N   UNL     1      -7.763  -0.138   9.225  0.00  0.00    -0.216 N 
ATOM     32  H   UNL     1      -8.050   0.553   9.842  0.00  0.00    +0.174 HD
BRANCH  31  33
ATOM     33  C   UNL     1      -8.647  -0.619   8.253  0.00  0.00    +0.048 A 
ATOM     34  C   UNL     1      -8.965   0.167   7.153  0.00  0.00    +0.028 A 
ATOM     35  C   UNL     1      -9.833  -0.310   6.191  0.00  0.00    +0.047 A 
ATOM     36  C   UNL     1     -10.396  -1.571   6.328  0.00  0.00    +0.120 A 
ATOM     37  C   UNL     1     -10.083  -2.355   7.429  0.00  0.00    +0.047 A 
ATOM     38  C   UNL     1      -9.211  -1.881   8.389  0.00  0.00    +0.028 A 
BRANCH  36  39
ATOM     39  O   UNL     1     -11.255  -2.038   5.383  0.00  0.00    -0.495 OA
ATOM     40  C   UNL     1     -11.533  -1.177   4.277  0.00  0.00    +0.277 C 
ENDBRANCH  36  39
ENDBRANCH  31  33
ENDBRANCH  28  31
ENDBRANCH  13  28
BRANCH   8  41
ATOM     41  C   UNL     1      -5.699  -3.632   5.010  0.00  0.00    +0.111 C 
ATOM     42  N   UNL     1      -6.291  -4.218   5.782  0.00  0.00    -0.190 NA
ENDBRANCH   8  41
BRANCH   8  43
ATOM     43  C   UNL     1      -4.672  -3.474   2.758  0.00  0.00    +0.111 C 
ATOM     44  N   UNL     1      -4.449  -3.935   1.744  0.00  0.00    -0.190 NA
ENDBRANCH   8  43
TORSDOF 10
