REMARK  Name = ZINC06445101
REMARK  12 active torsions:
REMARK  status: ('A' for Active; 'I' for Inactive)
REMARK    1  A    between atoms: C_12  and  C_13
REMARK    2  A    between atoms: C_13  and  N_14
REMARK    3  A    between atoms: N_14  and  C_15
REMARK    4  A    between atoms: N_14  and  C_19
REMARK    5  A    between atoms: C_15  and  C_16
REMARK    6  A    between atoms: C_16  and  C_17
REMARK    7  A    between atoms: C_17  and  O_18
REMARK    8  A    between atoms: C_19  and  N_21
REMARK    9  A    between atoms: N_21  and  C_22
REMARK   10  A    between atoms: C_22  and  C_23
REMARK   11  A    between atoms: C_23  and  C_24
REMARK   12  A    between atoms: C_24  and  N_65
REMARK                            x       y       z     vdW  Elec       q    Type
REMARK                         _______ _______ _______ _____ _____    ______ ____
ROOT
ATOM      1  N   UNL     1       0.002  -0.004   0.002  0.00  0.00    -0.308 N 
ENDROOT
BRANCH   1   2
ATOM      2  C   UNL     1       1.028  -0.667   0.572  0.00  0.00    +0.133 C 
ATOM      3  S   UNL     1       1.051  -2.379   0.563  0.00  0.00    -0.019 S 
BRANCH   2   4
ATOM      4  N   UNL     1       2.035   0.017   1.150  0.00  0.00    -0.326 N 
ATOM      5  H   UNL     1       2.021   0.987   1.155  0.00  0.00    +0.148 HD
BRANCH   4   6
ATOM      6  C   UNL     1       3.149  -0.704   1.770  0.00  0.00    +0.101 C 
BRANCH   6   7
ATOM      7  C   UNL     1       4.148   0.301   2.347  0.00  0.00    +0.000 C 
BRANCH   7   8
ATOM      8  C   UNL     1       5.312  -0.452   2.995  0.00  0.00    -0.077 C 
BRANCH   8  14
ATOM      9  C   UNL     1       6.917   1.288   2.479  0.00  0.00    -0.050 C 
ATOM     10  C   UNL     1       7.861   2.319   3.103  0.00  0.00    +0.141 C 
ATOM     11  O   UNL     1       8.812   1.647   3.933  0.00  0.00    -0.383 OA
ATOM     12  C   UNL     1       8.218   0.882   4.986  0.00  0.00    +0.141 C 
ATOM     13  C   UNL     1       7.277  -0.163   4.382  0.00  0.00    -0.050 C 
ATOM     14  N   UNL     1       6.259   0.531   3.565  0.00  0.00    +0.383 N 
ATOM     15  H   UNL     1       5.741   1.186   4.162  0.00  0.00    -0.082 HD
ENDBRANCH   8  14
ENDBRANCH   7   8
ENDBRANCH   6   7
ENDBRANCH   4   6
ENDBRANCH   2   4
ENDBRANCH   1   2
BRANCH   1  16
ATOM     16  C   UNL     1      -1.093  -0.748  -0.626  0.00  0.00    +0.147 C 
BRANCH  16  28
ATOM     17  C   UNL     1      -0.184  -2.151  -2.458  0.00  0.00    +0.020 A 
ATOM     18  C   UNL     1       0.112  -2.355  -3.876  0.00  0.00    +0.003 A 
ATOM     19  C   UNL     1       0.711  -3.538  -4.326  0.00  0.00    +0.059 A 
ATOM     20  C   UNL     1       0.983  -3.700  -5.668  0.00  0.00    +0.163 A 
ATOM     21  C   UNL     1       0.662  -2.689  -6.578  0.00  0.00    +0.164 A 
ATOM     22  C   UNL     1       0.070  -1.516  -6.142  0.00  0.00    +0.075 A 
ATOM     23  C   UNL     1      -0.209  -1.337  -4.794  0.00  0.00    +0.053 A 
ATOM     24  N   UNL     1      -0.798  -0.173  -4.341  0.00  0.00    -0.322 N 
ATOM     25  H   UNL     1      -1.019   0.528  -4.974  0.00  0.00    +0.169 HD
ATOM     26  C   UNL     1      -1.071   0.002  -3.036  0.00  0.00    +0.254 A 
ATOM     27  O   UNL     1      -1.591   1.043  -2.673  0.00  0.00    -0.268 OA
ATOM     28  C   UNL     1      -0.769  -0.987  -2.078  0.00  0.00    +0.035 A 
ATOM     29  O   UNL     1       0.923  -2.843  -7.905  0.00  0.00    -0.485 OA
ATOM     30  C   UNL     1       1.855  -3.868  -8.263  0.00  0.00    +0.270 C 
ATOM     31  C   UNL     1       1.489  -5.143  -7.490  0.00  0.00    +0.270 C 
ATOM     32  O   UNL     1       1.569  -4.855  -6.090  0.00  0.00    -0.485 OA
ENDBRANCH  16  28
ENDBRANCH   1  16
BRANCH   1  33
ATOM     33  C   UNL     1      -0.018   1.461   0.010  0.00  0.00    +0.109 C 
BRANCH  33  34
ATOM     34  C   UNL     1      -0.734   1.954   1.269  0.00  0.00    +0.047 C 
BRANCH  34  35
ATOM     35  C   UNL     1      -0.755   3.484   1.277  0.00  0.00    +0.157 C 
BRANCH  35  36
ATOM     36  O   UNL     1      -1.423   3.945   2.453  0.00  0.00    -0.395 OA
ATOM     37  H   UNL     1      -1.474   4.908   2.525  0.00  0.00    +0.209 HD
ENDBRANCH  35  36
ENDBRANCH  34  35
ENDBRANCH  33  34
ENDBRANCH   1  33
TORSDOF 12
