REMARK  Name = ZINC37289606
REMARK  7 active torsions:
REMARK  status: ('A' for Active; 'I' for Inactive)
REMARK    1  A    between atoms: C_1  and  C_2
REMARK    2  A    between atoms: C_2  and  C_4
REMARK    3  A    between atoms: C_2  and  O_10
REMARK    4  A    between atoms: N_6  and  C_7
REMARK    5  A    between atoms: O_10  and  C_11
REMARK    6  A    between atoms: C_14  and  N_20
REMARK    7  A    between atoms: C_16  and  C_17
REMARK                            x       y       z     vdW  Elec       q    Type
REMARK                         _______ _______ _______ _____ _____    ______ ____
ROOT
ATOM      1  C   UNL     1       2.024  -0.553  -1.118  0.00  0.00    +0.136 A 
ATOM      2  C   UNL     1       2.689  -0.303   0.073  0.00  0.00    +0.048 A 
ATOM      3  C   UNL     1       4.064  -0.392   0.132  0.00  0.00    +0.026 A 
ATOM      4  C   UNL     1       4.796  -0.732  -1.002  0.00  0.00    +0.026 A 
ATOM      5  C   UNL     1       4.148  -0.984  -2.198  0.00  0.00    +0.041 A 
ATOM      6  C   UNL     1       2.753  -0.902  -2.264  0.00  0.00    +0.106 A 
ENDROOT
BRANCH   6   7
ATOM      7  C   UNL     1       2.055  -1.175  -3.531  0.00  0.00    +0.390 C 
ATOM      8  O   UNL     1       2.695  -1.479  -4.528  0.00  0.00    -0.240 OA
ATOM      9  O   UNL     1       0.836  -1.097  -3.586  0.00  0.00    -0.240 OA
ENDBRANCH   6   7
BRANCH   4  10
ATOM     10  N   UNL     1       6.191  -0.819  -0.932  0.00  0.00    -0.358 N 
ATOM     11  H   UNL     1       6.647  -0.643  -0.095  0.00  0.00    +0.142 HD
ATOM     12  H   UNL     1       6.703  -1.056  -1.722  0.00  0.00    +0.142 HD
ENDBRANCH   4  10
BRANCH   1  13
ATOM     13  O   UNL     1       0.671  -0.465  -1.174  0.00  0.00    -0.479 OA
BRANCH  13  15
ATOM     14  C   UNL     1      -0.048   1.273   0.344  0.00  0.00    +0.062 C 
ATOM     15  C   UNL     1      -0.015  -0.229   0.058  0.00  0.00    +0.255 C 
BRANCH  15  16
ATOM     16  C   UNL     1      -1.424  -0.753  -0.044  0.00  0.00    +0.254 C 
ATOM     17  O   UNL     1      -1.833  -1.193  -1.098  0.00  0.00    -0.272 OA
ATOM     18  N   UNL     1      -2.231  -0.731   1.035  0.00  0.00    -0.309 N 
ATOM     19  H   UNL     1      -1.904  -0.379   1.878  0.00  0.00    +0.149 HD
BRANCH  18  20
ATOM     20  C   UNL     1      -3.601  -1.240   0.936  0.00  0.00    +0.073 C 
ATOM     21  C   UNL     1      -4.710  -0.416   1.595  0.00  0.00    +0.024 C 
ATOM     22  C   UNL     1      -4.264  -1.739   2.221  0.00  0.00    +0.024 C 
ENDBRANCH  18  20
ENDBRANCH  15  16
ENDBRANCH  13  15
ENDBRANCH   1  13
TORSDOF 6
