REMARK  Name = ZINC64057954
REMARK  11 active torsions:
REMARK  status: ('A' for Active; 'I' for Inactive)
REMARK    1  A    between atoms: C_1  and  C_2
REMARK    2  A    between atoms: C_4  and  C_13
REMARK    3  A    between atoms: C_13  and  C_14
REMARK    4  A    between atoms: C_14  and  N_15
REMARK    5  A    between atoms: C_16  and  C_18
REMARK    6  A    between atoms: C_18  and  C_19
REMARK    7  A    between atoms: C_19  and  C_20
REMARK    8  A    between atoms: C_20  and  C_26
REMARK    9  A    between atoms: C_26  and  C_27
REMARK   10  A    between atoms: C_29  and  O_34
REMARK   11  A    between atoms: O_34  and  C_35
REMARK                            x       y       z     vdW  Elec       q    Type
REMARK                         _______ _______ _______ _____ _____    ______ ____
ROOT
ATOM      1  C   UNL     1      -7.059  -1.438  -2.956  0.00  0.00    +0.098 C 
ENDROOT
BRANCH   1   3
ATOM      2  N   UNL     1      -4.598  -1.393  -2.711  0.00  0.00    -0.315 N 
ATOM      3  C   UNL     1      -5.796  -1.704  -2.178  0.00  0.00    +0.213 C 
ATOM      4  O   UNL     1      -5.857  -2.199  -1.073  0.00  0.00    -0.276 OA
ATOM      5  H   UNL     1      -4.548  -0.997  -3.596  0.00  0.00    +0.149 HD
BRANCH   2   6
ATOM      6  C   UNL     1      -3.370  -1.651  -1.955  0.00  0.00    +0.108 C 
BRANCH   6   7
ATOM      7  C   UNL     1      -2.160  -1.209  -2.781  0.00  0.00    +0.052 C 
BRANCH   7  10
ATOM      8  C   UNL     1       0.703   0.308  -2.697  0.00  0.00    +0.035 C 
ATOM      9  C   UNL     1       0.521  -1.190  -2.445  0.00  0.00    +0.103 C 
ATOM     10  C   UNL     1      -0.897  -1.475  -2.003  0.00  0.00    -0.037 C 
ATOM     11  C   UNL     1      -0.802  -2.017  -0.767  0.00  0.00    +0.001 A 
ATOM     12  C   UNL     1      -1.807  -2.503   0.185  0.00  0.00    +0.030 A 
ATOM     13  C   UNL     1      -1.397  -3.004   1.374  0.00  0.00    +0.042 A 
ATOM     14  C   UNL     1      -0.039  -3.071   1.716  0.00  0.00    +0.022 A 
ATOM     15  C   UNL     1       0.942  -2.644   0.893  0.00  0.00    +0.027 A 
ATOM     16  C   UNL     1       0.625  -2.099  -0.381  0.00  0.00    +0.043 A 
ATOM     17  N   UNL     1       1.384  -1.626  -1.342  0.00  0.00    -0.378 N 
ATOM     18 CL   UNL     1      -2.583  -3.579   2.503  0.00  0.00    -0.084 Cl
ATOM     19  H   UNL     1       2.353  -1.573  -1.326  0.00  0.00    +0.160 HD
ENDBRANCH   7  10
ENDBRANCH   6   7
ENDBRANCH   2   6
ENDBRANCH   1   3
BRANCH   1  20
ATOM     20  C   UNL     1      -8.269  -1.881  -2.131  0.00  0.00    +0.035 C 
BRANCH  20  21
ATOM     21  C   UNL     1      -9.554  -1.551  -2.893  0.00  0.00    +0.039 C 
ATOM     22  C   UNL     1     -10.775  -2.166  -2.174  0.00  0.00    +0.035 C 
ATOM     23  C   UNL     1     -10.923  -3.519  -2.906  0.00  0.00    +0.098 C 
ATOM     24  C   UNL     1     -10.286  -3.281  -4.258  0.00  0.00    +0.214 C 
ATOM     25  O   UNL     1     -10.435  -3.990  -5.231  0.00  0.00    -0.276 OA
ATOM     26  N   UNL     1      -9.529  -2.171  -4.223  0.00  0.00    -0.309 N 
ATOM     27  H   UNL     1      -9.031  -1.824  -4.979  0.00  0.00    +0.149 HD
BRANCH  21  28
ATOM     28  C   UNL     1      -9.720  -0.035  -3.018  0.00  0.00    +0.064 C 
BRANCH  28  29
ATOM     29  C   UNL     1     -10.918   0.270  -3.880  0.00  0.00    -0.007 A 
ATOM     30  C   UNL     1     -12.151   0.485  -3.296  0.00  0.00    +0.052 A 
ATOM     31  C   UNL     1     -13.254   0.765  -4.089  0.00  0.00    +0.121 A 
ATOM     32  C   UNL     1     -13.116   0.830  -5.468  0.00  0.00    +0.048 A 
ATOM     33  C   UNL     1     -11.882   0.615  -6.049  0.00  0.00    +0.042 A 
ATOM     34  C   UNL     1     -10.781   0.340  -5.256  0.00  0.00    +0.127 A 
ATOM     35  F   UNL     1      -9.573   0.135  -5.825  0.00  0.00    -0.205 F 
BRANCH  31  36
ATOM     36  O   UNL     1     -14.468   0.976  -3.516  0.00  0.00    -0.495 OA
ATOM     37  C   UNL     1     -15.559   1.261  -4.394  0.00  0.00    +0.277 C 
ENDBRANCH  31  36
ENDBRANCH  28  29
ENDBRANCH  21  28
ENDBRANCH  20  21
ENDBRANCH   1  20
TORSDOF 9
