REMARK  Name = ZINC45510587
REMARK  8 active torsions:
REMARK  status: ('A' for Active; 'I' for Inactive)
REMARK    1  A    between atoms: C_1  and  C_2
REMARK    2  A    between atoms: C_5  and  O_9
REMARK    3  A    between atoms: C_6  and  C_8
REMARK    4  A    between atoms: O_9  and  C_10
REMARK    5  A    between atoms: C_10  and  C_11
REMARK    6  A    between atoms: C_11  and  C_12
REMARK    7  A    between atoms: C_11  and  C_18
REMARK    8  A    between atoms: C_11  and  N_21
REMARK                            x       y       z     vdW  Elec       q    Type
REMARK                         _______ _______ _______ _____ _____    ______ ____
ROOT
ATOM      1  C   UNL     1       0.079  -6.289  -1.105  0.00  0.00    +0.153 C 
ENDROOT
BRANCH   1   2
ATOM      2  C   UNL     1       0.081  -6.965  -2.452  0.00  0.00    -0.015 A 
ATOM      3  C   UNL     1       0.671  -6.344  -3.537  0.00  0.00    +0.006 A 
ATOM      4  C   UNL     1       0.673  -6.965  -4.772  0.00  0.00    +0.000 A 
ATOM      5  C   UNL     1       0.085  -8.207  -4.922  0.00  0.00    +0.000 A 
ATOM      6  C   UNL     1      -0.504  -8.829  -3.837  0.00  0.00    +0.000 A 
ATOM      7  C   UNL     1      -0.502  -8.210  -2.601  0.00  0.00    +0.006 A 
ENDBRANCH   1   2
BRANCH   1   8
ATOM      8  C   UNL     1       1.319  -6.682  -0.344  0.00  0.00    +0.238 C 
ATOM      9  O   UNL     1       2.312  -7.035  -0.943  0.00  0.00    -0.274 OA
ATOM     10  N   UNL     1       1.323  -6.641   1.003  0.00  0.00    -0.327 N 
ATOM     11  H   UNL     1       0.529  -6.359   1.483  0.00  0.00    +0.145 HD
ATOM     12  H   UNL     1       2.121  -6.894   1.494  0.00  0.00    +0.145 HD
ENDBRANCH   1   8
BRANCH   1  13
ATOM     13  N   UNL     1      -1.111  -6.703  -0.351  0.00  0.00    -0.311 NA
ATOM     14  H   UNL     1      -1.103  -6.313   0.580  0.00  0.00    +0.120 HD
ATOM     15  H   UNL     1      -1.956  -6.450  -0.841  0.00  0.00    +0.120 HD
ENDBRANCH   1  13
BRANCH   1  16
ATOM     16  C   UNL     1       0.058  -4.771  -1.298  0.00  0.00    +0.265 C 
BRANCH  16  17
ATOM     17  O   UNL     1       0.057  -4.129  -0.021  0.00  0.00    -0.489 OA
BRANCH  17  22
ATOM     18  C   UNL     1      -0.018   1.503   0.010  0.00  0.00    +0.044 C 
ATOM     19  C   UNL     1       0.002  -0.004   0.002  0.00  0.00    -0.050 A 
ATOM     20  C   UNL     1       0.006  -0.688  -1.200  0.00  0.00    +0.007 A 
ATOM     21  C   UNL     1       0.024  -2.069  -1.210  0.00  0.00    +0.046 A 
ATOM     22  C   UNL     1       0.039  -2.770  -0.013  0.00  0.00    +0.124 A 
ATOM     23  C   UNL     1       0.036  -2.082   1.191  0.00  0.00    -0.009 A 
ATOM     24  C   UNL     1       0.023  -0.701   1.196  0.00  0.00    +0.010 A 
ATOM     25  C   UNL     1       0.052  -2.841   2.493  0.00  0.00    +0.047 C 
ENDBRANCH  17  22
ENDBRANCH  16  17
ENDBRANCH   1  16
TORSDOF 6
