REMARK  Name = ZINC12816124
REMARK  10 active torsions:
REMARK  status: ('A' for Active; 'I' for Inactive)
REMARK    1  A    between atoms: C_1  and  C_2
REMARK    2  A    between atoms: C_3  and  C_29
REMARK    3  A    between atoms: C_4  and  C_26
REMARK    4  A    between atoms: C_5  and  S_9
REMARK    5  A    between atoms: C_7  and  C_8
REMARK    6  A    between atoms: S_9  and  C_10
REMARK    7  A    between atoms: C_10  and  C_11
REMARK    8  A    between atoms: N_13  and  C_14
REMARK    9  A    between atoms: C_19  and  C_20
REMARK   10  A    between atoms: C_20  and  C_22
REMARK                            x       y       z     vdW  Elec       q    Type
REMARK                         _______ _______ _______ _____ _____    ______ ____
ROOT
ATOM      1  C   UNL     1       2.022   2.013   4.257  0.00  0.00    +0.171 C 
ENDROOT
BRANCH   1   2
ATOM      2  C   UNL     1       3.053   2.192   5.342  0.00  0.00    +0.227 C 
ATOM      3  O   UNL     1       2.717   2.590   6.437  0.00  0.00    -0.275 OA
ATOM      4  N   UNL     1       4.347   1.911   5.095  0.00  0.00    -0.284 N 
ATOM      5  H   UNL     1       4.607   1.531   4.241  0.00  0.00    +0.155 HD
BRANCH   4   6
ATOM      6  C   UNL     1       5.313   2.165   6.066  0.00  0.00    +0.048 A 
ATOM      7  C   UNL     1       5.011   1.995   7.408  0.00  0.00    +0.073 A 
ATOM      8  C   UNL     1       5.970   2.247   8.376  0.00  0.00    +0.168 A 
ATOM      9  C   UNL     1       7.249   2.676   8.005  0.00  0.00    +0.167 A 
ATOM     10  C   UNL     1       7.562   2.850   6.674  0.00  0.00    +0.062 A 
ATOM     11  C   UNL     1       6.599   2.590   5.688  0.00  0.00    +0.042 A 
ATOM     12  O   UNL     1       7.994   2.851   9.137  0.00  0.00    -0.453 OA
ATOM     13  C   UNL     1       7.042   2.922  10.215  0.00  0.00    +0.466 C 
ATOM     14  O   UNL     1       5.921   2.156   9.735  0.00  0.00    -0.453 OA
BRANCH  11  15
ATOM     15  C   UNL     1       6.930   2.767   4.272  0.00  0.00    +0.162 C 
ATOM     16  O   UNL     1       6.068   2.639   3.428  0.00  0.00    -0.292 OA
ATOM     17  C   UNL     1       8.340   3.107   3.865  0.00  0.00    +0.091 C 
ENDBRANCH  11  15
ENDBRANCH   4   6
ENDBRANCH   1   2
BRANCH   1  18
ATOM     18  S   UNL     1       0.391   2.470   4.893  0.00  0.00    -0.096 S 
BRANCH  18  23
ATOM     19  C   UNL     1      -2.857   1.439  -0.048  0.00  0.00    +0.046 C 
ATOM     20  C   UNL     1      -2.082   1.708   1.216  0.00  0.00    -0.026 A 
ATOM     21  C   UNL     1      -2.735   2.162   2.349  0.00  0.00    -0.031 A 
ATOM     22  C   UNL     1      -1.977   2.405   3.500  0.00  0.00    +0.071 A 
ATOM     23  C   UNL     1      -0.590   2.174   3.459  0.00  0.00    +0.110 A 
ATOM     24  N   UNL     1      -0.018   1.734   2.348  0.00  0.00    -0.245 NA
ATOM     25  C   UNL     1      -0.715   1.500   1.254  0.00  0.00    +0.043 A 
ATOM     26  C   UNL     1      -0.009   1.000   0.020  0.00  0.00    +0.066 C 
ATOM     27  C   UNL     1      -4.224   2.393   2.342  0.00  0.00    +0.045 C 
BRANCH  22  28
ATOM     28  C   UNL     1      -2.620   2.894   4.733  0.00  0.00    +0.244 C 
ATOM     29  O   UNL     1      -2.729   4.089   4.929  0.00  0.00    -0.270 OA
ATOM     30  N   UNL     1      -3.087   2.016   5.643  0.00  0.00    -0.325 N 
ATOM     31  H   UNL     1      -3.000   1.063   5.487  0.00  0.00    +0.145 HD
ATOM     32  H   UNL     1      -3.511   2.338   6.454  0.00  0.00    +0.145 HD
ENDBRANCH  22  28
ENDBRANCH  18  23
ENDBRANCH   1  18
TORSDOF 6
