REMARK  Name = ZINC63588676
REMARK  13 active torsions:
REMARK  status: ('A' for Active; 'I' for Inactive)
REMARK    1  A    between atoms: C_1  and  C_2
REMARK    2  A    between atoms: C_6  and  N_8
REMARK    3  A    between atoms: N_10  and  C_11
REMARK    4  A    between atoms: C_11  and  C_12
REMARK    5  A    between atoms: C_12  and  C_13
REMARK    6  A    between atoms: N_22  and  C_23
REMARK    7  A    between atoms: C_23  and  C_25
REMARK    8  A    between atoms: C_27  and  O_35
REMARK    9  A    between atoms: C_28  and  O_33
REMARK   10  A    between atoms: C_29  and  O_31
REMARK   11  A    between atoms: O_31  and  C_32
REMARK   12  A    between atoms: O_33  and  C_34
REMARK   13  A    between atoms: O_35  and  C_36
REMARK                            x       y       z     vdW  Elec       q    Type
REMARK                         _______ _______ _______ _____ _____    ______ ____
ROOT
ATOM      1  N   UNL     1       0.085  -3.163   2.027  0.00  0.00    -0.328 N 
ATOM      2  C   UNL     1       0.092  -4.489   2.352  0.00  0.00    +0.194 C 
ATOM      3  N   UNL     1       0.231  -4.872   3.654  0.00  0.00    -0.357 N 
ATOM      4  N   UNL     1      -0.034  -5.404   1.403  0.00  0.00    -0.143 NA
ATOM      5  H   UNL     1       0.567  -5.757   3.866  0.00  0.00    +0.162 HD
ATOM      6  H   UNL     1      -0.576  -2.820   1.405  0.00  0.00    +0.169 HD
ENDROOT
BRANCH   1  12
ATOM      7  C   UNL     1       1.339   1.356   3.501  0.00  0.00    +0.044 C 
ATOM      8  C   UNL     1       1.664  -0.104   3.317  0.00  0.00    -0.049 A 
ATOM      9  C   UNL     1       2.898  -0.591   3.706  0.00  0.00    +0.003 A 
ATOM     10  C   UNL     1       3.201  -1.930   3.539  0.00  0.00    +0.002 A 
ATOM     11  C   UNL     1       2.270  -2.785   2.983  0.00  0.00    +0.026 A 
ATOM     12  C   UNL     1       1.029  -2.299   2.591  0.00  0.00    +0.042 A 
ATOM     13  C   UNL     1       0.727  -0.955   2.765  0.00  0.00    +0.029 A 
ENDBRANCH   1  12
BRANCH   4  14
ATOM     14  C   UNL     1      -0.218  -5.028   0.130  0.00  0.00    +0.270 C 
ATOM     15  O   UNL     1      -0.177  -3.847  -0.169  0.00  0.00    -0.268 OA
BRANCH  14  16
ATOM     16  C   UNL     1      -0.470  -6.045  -0.913  0.00  0.00    +0.046 A 
ATOM     17  C   UNL     1      -0.628  -7.386  -0.558  0.00  0.00    +0.062 A 
ATOM     18  C   UNL     1      -0.864  -8.336  -1.535  0.00  0.00    +0.166 A 
ATOM     19  C   UNL     1      -0.943  -7.957  -2.872  0.00  0.00    +0.204 A 
ATOM     20  C   UNL     1      -0.786  -6.620  -3.228  0.00  0.00    +0.166 A 
ATOM     21  C   UNL     1      -0.556  -5.666  -2.254  0.00  0.00    +0.062 A 
BRANCH  20  22
ATOM     22  O   UNL     1      -0.863  -6.252  -4.535  0.00  0.00    -0.491 OA
ATOM     23  C   UNL     1      -0.692  -4.864  -4.830  0.00  0.00    +0.277 C 
ENDBRANCH  20  22
BRANCH  19  24
ATOM     24  O   UNL     1      -1.174  -8.892  -3.830  0.00  0.00    -0.488 OA
ATOM     25  C   UNL     1      -2.538  -9.158  -4.162  0.00  0.00    +0.277 C 
ENDBRANCH  19  24
BRANCH  18  26
ATOM     26  O   UNL     1      -1.018  -9.642  -1.189  0.00  0.00    -0.491 OA
ATOM     27  C   UNL     1      -0.924  -9.961   0.201  0.00  0.00    +0.277 C 
ENDBRANCH  18  26
ENDBRANCH  14  16
ENDBRANCH   4  14
BRANCH   3  28
ATOM     28  C   UNL     1      -0.129  -3.947   4.731  0.00  0.00    +0.120 C 
BRANCH  28  29
ATOM     29  C   UNL     1       0.226  -4.574   6.081  0.00  0.00    +0.054 C 
BRANCH  29  30
ATOM     30  C   UNL     1      -0.255  -3.677   7.193  0.00  0.00    -0.040 C 
ATOM     31  C   UNL     1      -1.447  -3.737   7.828  0.00  0.00    -0.001 A 
ATOM     32  C   UNL     1      -2.610  -4.620   7.678  0.00  0.00    +0.010 A 
ATOM     33  C   UNL     1      -3.685  -4.430   8.476  0.00  0.00    +0.001 A 
ATOM     34  C   UNL     1      -3.717  -3.413   9.441  0.00  0.00    +0.002 A 
ATOM     35  C   UNL     1      -2.687  -2.562   9.637  0.00  0.00    +0.026 A 
ATOM     36  C   UNL     1      -1.506  -2.671   8.854  0.00  0.00    +0.043 A 
ATOM     37  N   UNL     1      -0.392  -1.979   8.853  0.00  0.00    -0.380 N 
ATOM     38  C   UNL     1       0.502  -2.532   7.830  0.00  0.00    +0.144 C 
ATOM     39  H   UNL     1      -0.191  -1.229   9.435  0.00  0.00    +0.160 HD
ENDBRANCH  29  30
ENDBRANCH  28  29
ENDBRANCH   3  28
TORSDOF 9
