REMARK  Name = ZINC27831374
REMARK  6 active torsions:
REMARK  status: ('A' for Active; 'I' for Inactive)
REMARK    1  A    between atoms: C_1  and  C_2
REMARK    2  A    between atoms: C_5  and  N_8
REMARK    3  A    between atoms: C_10  and  C_21
REMARK    4  A    between atoms: C_16  and  O_19
REMARK    5  A    between atoms: O_19  and  C_20
REMARK    6  A    between atoms: C_26  and  C_29
REMARK                            x       y       z     vdW  Elec       q    Type
REMARK                         _______ _______ _______ _____ _____    ______ ____
ROOT
ATOM      1  N   UNL     1      -5.173   0.253   0.561  0.00  0.00    -0.325 N 
ATOM      2  C   UNL     1      -4.856  -0.917   0.049  0.00  0.00    +0.212 A 
ATOM      3  C   UNL     1      -3.455  -1.384   0.026  0.00  0.00    +0.098 A 
ATOM      4  C   UNL     1      -3.246  -2.757   0.017  0.00  0.00    +0.030 A 
ATOM      5  C   UNL     1      -4.430  -3.618   0.043  0.00  0.00    +0.022 A 
ATOM      6  C   UNL     1      -4.316  -4.989   0.310  0.00  0.00    +0.012 A 
ATOM      7  C   UNL     1      -5.434  -5.773   0.330  0.00  0.00    +0.004 A 
ATOM      8  C   UNL     1      -6.685  -5.225   0.087  0.00  0.00    +0.049 A 
ATOM      9  C   UNL     1      -6.823  -3.874  -0.182  0.00  0.00    +0.163 A 
ATOM     10  C   UNL     1      -5.695  -3.058  -0.208  0.00  0.00    +0.179 A 
ATOM     11  O   UNL     1      -5.807  -1.733  -0.474  0.00  0.00    -0.435 OA
ATOM     12  H   UNL     1      -4.404   0.862   1.058  0.00  0.00    +0.169 HD
ENDROOT
BRANCH   3  13
ATOM     13  C   UNL     1      -2.330  -0.435   0.008  0.00  0.00    +0.255 C 
ATOM     14  O   UNL     1      -2.544   0.763   0.012  0.00  0.00    -0.270 OA
ATOM     15  N   UNL     1      -1.062  -0.893  -0.012  0.00  0.00    -0.261 N 
ATOM     16  C   UNL     1      -0.001   0.002  -0.029  0.00  0.00    +0.165 A 
ATOM     17  N   UNL     1       1.296  -0.241  -0.050  0.00  0.00    -0.225 NA
ATOM     18  C   UNL     1       2.181   0.745  -0.064  0.00  0.00    +0.080 A 
ATOM     19  C   UNL     1       1.742   2.040  -0.058  0.00  0.00    +0.076 A 
ATOM     20  S   UNL     1      -0.029   1.789  -0.029  0.00  0.00    -0.060 S 
ATOM     21  H   UNL     1      -0.869  -1.976  -0.015  0.00  0.00    +0.157 HD
BRANCH  18  22
ATOM     22  C   UNL     1       3.634   0.447  -0.088  0.00  0.00    +0.001 A 
ATOM     23  C   UNL     1       4.560   1.488  -0.109  0.00  0.00    +0.011 A 
ATOM     24  C   UNL     1       5.911   1.206  -0.125  0.00  0.00    +0.020 A 
ATOM     25  C   UNL     1       6.346  -0.108  -0.132  0.00  0.00    +0.041 A 
ATOM     26  C   UNL     1       5.429  -1.146  -0.117  0.00  0.00    +0.020 A 
ATOM     27  C   UNL     1       4.077  -0.874  -0.094  0.00  0.00    +0.011 A 
ATOM     28 CL   UNL     1       8.046  -0.457  -0.160  0.00  0.00    -0.084 Cl
ENDBRANCH  18  22
ENDBRANCH   3  13
BRANCH   1  33
ATOM     29  C   UNL     1     -10.477   2.148   0.203  0.00  0.00    +0.044 C 
ATOM     30  C   UNL     1      -9.061   1.641   0.298  0.00  0.00    -0.050 A 
ATOM     31  C   UNL     1      -8.646   0.966   1.433  0.00  0.00    +0.005 A 
ATOM     32  C   UNL     1      -7.351   0.500   1.527  0.00  0.00    +0.026 A 
ATOM     33  C   UNL     1      -6.458   0.711   0.474  0.00  0.00    +0.042 A 
ATOM     34  C   UNL     1      -6.883   1.398  -0.666  0.00  0.00    +0.026 A 
ATOM     35  C   UNL     1      -8.182   1.854  -0.749  0.00  0.00    +0.005 A 
ENDBRANCH   1  33
BRANCH   9  36
ATOM     36  O   UNL     1      -8.053  -3.346  -0.419  0.00  0.00    -0.491 OA
ATOM     37  C   UNL     1      -9.164  -4.245  -0.375  0.00  0.00    +0.277 C 
ENDBRANCH   9  36
TORSDOF 4
