REMARK  Name = ZINC09359168
REMARK  5 active torsions:
REMARK  status: ('A' for Active; 'I' for Inactive)
REMARK    1  A    between atoms: C_1  and  O_2
REMARK    2  A    between atoms: O_2  and  C_3
REMARK    3  A    between atoms: C_8  and  N_9
REMARK    4  A    between atoms: C_24  and  C_30
REMARK    5  A    between atoms: N_32  and  C_33
REMARK                            x       y       z     vdW  Elec       q    Type
REMARK                         _______ _______ _______ _____ _____    ______ ____
ROOT
ATOM      1  N   UNL     1       2.883   4.713  -2.650  0.00  0.00    -0.206 N 
ATOM      2  C   UNL     1       3.973   5.424  -2.320  0.00  0.00    +0.232 C 
ATOM      3  O   UNL     1       5.122   5.108  -2.545  0.00  0.00    -0.274 OA
ATOM      4  C   UNL     1       3.522   6.688  -1.621  0.00  0.00    +0.113 C 
ATOM      5  C   UNL     1       4.288   6.889  -0.315  0.00  0.00    +0.100 C 
ATOM      6  C   UNL     1       5.679   6.317  -0.389  0.00  0.00    -0.021 A 
ATOM      7  C   UNL     1       6.402   6.345  -1.558  0.00  0.00    +0.006 A 
ATOM      8  C   UNL     1       7.677   5.808  -1.597  0.00  0.00    +0.000 A 
ATOM      9  C   UNL     1       8.230   5.241  -0.462  0.00  0.00    +0.001 A 
ATOM     10  C   UNL     1       7.516   5.207   0.718  0.00  0.00    +0.008 A 
ATOM     11  C   UNL     1       6.231   5.749   0.767  0.00  0.00    -0.019 A 
ATOM     12  C   UNL     1       5.462   5.729   2.028  0.00  0.00    +0.022 C 
ATOM     13  C   UNL     1       4.128   5.921   1.993  0.00  0.00    +0.054 C 
ATOM     14  C   UNL     1       2.293   5.675   0.226  0.00  0.00    +0.156 C 
ATOM     15  C   UNL     1       2.080   6.308  -1.164  0.00  0.00    +0.118 C 
ATOM     16  C   UNL     1       1.739   5.195  -2.142  0.00  0.00    +0.232 C 
ATOM     17  O   UNL     1       0.623   4.809  -2.415  0.00  0.00    -0.274 OA
ATOM     18  N   UNL     1       3.433   6.473   0.770  0.00  0.00    -0.383 NA
ATOM     19  H   UNL     1       3.005   7.343   1.108  0.00  0.00    +0.127 HD
ENDROOT
BRANCH   1  25
ATOM     20  C   UNL     1       2.814   3.677  -4.839  0.00  0.00    +0.142 A 
ATOM     21  C   UNL     1       2.867   2.541  -5.630  0.00  0.00    +0.047 A 
ATOM     22  C   UNL     1       3.041   1.300  -5.047  0.00  0.00    +0.004 A 
ATOM     23  C   UNL     1       3.163   1.188  -3.674  0.00  0.00    +0.002 A 
ATOM     24  C   UNL     1       3.116   2.317  -2.878  0.00  0.00    +0.027 A 
ATOM     25  C   UNL     1       2.936   3.565  -3.456  0.00  0.00    +0.085 A 
BRANCH  20  27
ATOM     26  C   UNL     1       2.524   4.937  -6.835  0.00  0.00    +0.277 C 
ATOM     27  O   UNL     1       2.642   4.898  -5.411  0.00  0.00    -0.493 OA
ENDBRANCH  20  27
ENDBRANCH   1  25
BRANCH  14  28
ATOM     28  C   UNL     1       2.317   4.173   0.104  0.00  0.00    +0.237 C 
ATOM     29  O   UNL     1       3.376   3.582   0.091  0.00  0.00    -0.273 OA
ATOM     30  N   UNL     1       1.161   3.486   0.010  0.00  0.00    -0.284 N 
ATOM     31  H   UNL     1       0.318   3.962  -0.058  0.00  0.00    +0.155 HD
BRANCH  30  32
ATOM     32  C   UNL     1       1.177   2.086   0.009  0.00  0.00    +0.034 A 
ATOM     33  C   UNL     1       2.133   1.401   0.746  0.00  0.00    +0.025 A 
ATOM     34  C   UNL     1       2.146   0.020   0.743  0.00  0.00    +0.022 A 
ATOM     35  C   UNL     1       1.208  -0.681   0.006  0.00  0.00    +0.041 A 
ATOM     36  C   UNL     1       0.254  -0.000  -0.730  0.00  0.00    +0.022 A 
ATOM     37  C   UNL     1       0.236   1.381  -0.731  0.00  0.00    +0.025 A 
ATOM     38 CL   UNL     1       1.227  -2.417   0.005  0.00  0.00    -0.084 Cl
ENDBRANCH  30  32
ENDBRANCH  14  28
TORSDOF 4
