REMARK  Name = ZINC26841565
REMARK  7 active torsions:
REMARK  status: ('A' for Active; 'I' for Inactive)
REMARK    1  A    between atoms: C_1  and  C_2
REMARK    2  A    between atoms: C_5  and  C_8
REMARK    3  A    between atoms: N_10  and  C_11
REMARK    4  A    between atoms: C_11  and  C_13
REMARK    5  A    between atoms: C_11  and  N_17
REMARK    6  A    between atoms: N_17  and  C_18
REMARK    7  A    between atoms: C_18  and  N_20
REMARK                            x       y       z     vdW  Elec       q    Type
REMARK                         _______ _______ _______ _____ _____    ______ ____
ROOT
ATOM      1  N   UNL     1       1.362   1.591  -0.007  0.00  0.00    -0.305 N 
ATOM      2  H   UNL     1       1.557   2.645  -0.254  0.00  0.00    +0.150 HD
ENDROOT
BRANCH   1   3
ATOM      3  C   UNL     1       2.387   0.767   0.285  0.00  0.00    +0.134 C 
ATOM      4  S   UNL     1       2.076  -0.838   0.793  0.00  0.00    -0.019 S 
BRANCH   3   5
ATOM      5  N   UNL     1       3.657   1.206   0.178  0.00  0.00    -0.312 N 
ATOM      6  C   UNL     1       3.940   2.609  -0.145  0.00  0.00    +0.112 C 
ATOM      7  C   UNL     1       4.944   3.185   0.845  0.00  0.00    +0.027 C 
ATOM      8  C   UNL     1       6.162   2.273   0.986  0.00  0.00    +0.018 C 
ATOM      9  C   UNL     1       5.685   0.902   1.472  0.00  0.00    +0.054 C 
ATOM     10  C   UNL     1       4.789   0.290   0.388  0.00  0.00    +0.116 C 
ATOM     11  C   UNL     1       4.864   1.064   2.729  0.00  0.00    +0.027 A 
ATOM     12  C   UNL     1       4.830   0.015   3.594  0.00  0.00    +0.022 A 
ATOM     13  C   UNL     1       4.038   0.069   4.746  0.00  0.00    +0.007 A 
ATOM     14  C   UNL     1       3.280   1.180   4.975  0.00  0.00    +0.070 A 
ATOM     15  C   UNL     1       3.335   2.241   4.061  0.00  0.00    +0.251 A 
ATOM     16  O   UNL     1       2.614   3.214   4.221  0.00  0.00    -0.268 OA
ATOM     17  N   UNL     1       4.179   2.199   3.001  0.00  0.00    -0.312 N 
ATOM     18  C   UNL     1       4.323   3.433   2.207  0.00  0.00    +0.130 C 
ENDBRANCH   3   5
ENDBRANCH   1   3
BRANCH   1  19
ATOM     19  C   UNL     1      -0.013   1.084   0.005  0.00  0.00    +0.211 C 
BRANCH  19  22
ATOM     20  C   UNL     1      -0.922   0.720   2.236  0.00  0.00    +0.246 C 
ATOM     21  O   UNL     1      -0.554  -0.436   2.165  0.00  0.00    -0.270 OA
ATOM     22  N   UNL     1      -0.699   1.562   1.208  0.00  0.00    -0.290 N 
ATOM     23  H   UNL     1      -1.032   2.609   1.272  0.00  0.00    +0.151 HD
BRANCH  20  28
ATOM     24  C   UNL     1      -3.617   2.598   6.961  0.00  0.00    +0.044 C 
ATOM     25  C   UNL     1      -2.912   2.106   5.723  0.00  0.00    -0.050 A 
ATOM     26  C   UNL     1      -2.495   0.789   5.646  0.00  0.00    +0.004 A 
ATOM     27  C   UNL     1      -1.848   0.332   4.516  0.00  0.00    +0.013 A 
ATOM     28  C   UNL     1      -1.615   1.202   3.450  0.00  0.00    +0.037 A 
ATOM     29  C   UNL     1      -2.034   2.531   3.536  0.00  0.00    +0.013 A 
ATOM     30  C   UNL     1      -2.684   2.973   4.670  0.00  0.00    +0.004 A 
ENDBRANCH  20  28
ENDBRANCH  19  22
BRANCH  19  31
ATOM     31  C   UNL     1      -0.752   1.585  -1.237  0.00  0.00    +0.225 C 
ATOM     32 CL   UNL     1       0.093   0.997  -2.718  0.00  0.00    -0.080 Cl
ATOM     33 CL   UNL     1      -2.443   0.961  -1.223  0.00  0.00    -0.080 Cl
ATOM     34 CL   UNL     1      -0.776   3.388  -1.236  0.00  0.00    -0.080 Cl
ENDBRANCH  19  31
ENDBRANCH   1  19
TORSDOF 6
