REMARK  Name = ZINC39633786
REMARK  8 active torsions:
REMARK  status: ('A' for Active; 'I' for Inactive)
REMARK    1  A    between atoms: C_1  and  C_2
REMARK    2  A    between atoms: C_2  and  C_3
REMARK    3  A    between atoms: C_2  and  C_4
REMARK    4  A    between atoms: C_4  and  C_6
REMARK    5  A    between atoms: C_4  and  O_29
REMARK    6  A    between atoms: C_10  and  C_19
REMARK    7  A    between atoms: N_21  and  C_22
REMARK    8  A    between atoms: O_29  and  C_30
REMARK                            x       y       z     vdW  Elec       q    Type
REMARK                         _______ _______ _______ _____ _____    ______ ____
ROOT
ATOM      1  C   UNL     1      -1.114  -1.582   0.234  0.00  0.00    +0.257 C 
ATOM      2  O   UNL     1      -1.442  -2.353  -0.642  0.00  0.00    -0.272 OA
ATOM      3  N   UNL     1      -0.635  -2.054   1.403  0.00  0.00    -0.297 N 
ATOM      4  C   UNL     1      -0.300  -1.284   2.624  0.00  0.00    +0.121 C 
ATOM      5  C   UNL     1      -0.780  -2.176   3.791  0.00  0.00    +0.100 C 
ATOM      6  C   UNL     1      -0.793  -3.602   3.216  0.00  0.00    -0.004 C 
ATOM      7  C   UNL     1      -0.331  -3.461   1.758  0.00  0.00    +0.115 C 
ATOM      8  C   UNL     1       0.172  -4.494   3.993  0.00  0.00    -0.010 C 
ATOM      9  C   UNL     1       0.098  -5.920   3.440  0.00  0.00    -0.082 C 
ATOM     10  N   UNL     1      -1.274  -6.425   3.564  0.00  0.00    +0.379 N 
ATOM     11  C   UNL     1      -2.182  -5.617   2.740  0.00  0.00    -0.082 C 
ATOM     12  C   UNL     1      -2.205  -4.178   3.263  0.00  0.00    -0.010 C 
ATOM     13  H   UNL     1      -1.307  -7.385   3.256  0.00  0.00    -0.086 HD
ATOM     14  H   UNL     1      -1.564  -6.374   4.529  0.00  0.00    -0.086 HD
ENDROOT
BRANCH   5  15
ATOM     15  C   UNL     1       0.178  -2.083   4.950  0.00  0.00    +0.218 C 
ATOM     16  O   UNL     1       1.342  -1.807   4.754  0.00  0.00    -0.275 OA
ATOM     17  N   UNL     1      -0.259  -2.308   6.205  0.00  0.00    -0.312 N 
ATOM     18  H   UNL     1      -1.190  -2.530   6.362  0.00  0.00    +0.149 HD
BRANCH  17  19
ATOM     19  C   UNL     1       0.672  -2.219   7.332  0.00  0.00    +0.073 C 
ATOM     20  C   UNL     1       1.448  -3.547   7.446  0.00  0.00    +0.022 C 
ATOM     21  C   UNL     1       2.712  -3.297   8.224  0.00  0.00    +0.002 C 
ATOM     22  C   UNL     1       2.549  -3.595   9.726  0.00  0.00    +0.000 C 
ATOM     23  C   UNL     1       1.207  -3.091  10.293  0.00  0.00    +0.000 C 
ATOM     24  C   UNL     1       0.836  -1.730   9.770  0.00  0.00    +0.002 C 
ATOM     25  C   UNL     1      -0.078  -1.909   8.541  0.00  0.00    +0.022 C 
ENDBRANCH  17  19
ENDBRANCH   5  15
BRANCH   1  26
ATOM     26  C   UNL     1      -1.243  -0.096   0.018  0.00  0.00    +0.261 C 
BRANCH  26  28
ATOM     27  C   UNL     1      -0.010   1.990  -0.592  0.00  0.00    +0.011 C 
ATOM     28  C   UNL     1       0.106   0.473  -0.428  0.00  0.00    +0.033 C 
ATOM     29  C   UNL     1       1.168   0.153   0.626  0.00  0.00    +0.011 C 
ENDBRANCH  26  28
BRANCH  26  30
ATOM     30  O   UNL     1      -2.223   0.155  -0.991  0.00  0.00    -0.479 OA
BRANCH  30  31
ATOM     31  C   UNL     1      -3.081   1.187  -0.775  0.00  0.00    +0.122 A 
ATOM     32  C   UNL     1      -4.135   1.409  -1.649  0.00  0.00    +0.045 A 
ATOM     33  C   UNL     1      -5.006   2.458  -1.427  0.00  0.00    +0.004 A 
ATOM     34  C   UNL     1      -4.827   3.287  -0.335  0.00  0.00    +0.000 A 
ATOM     35  C   UNL     1      -3.777   3.068   0.538  0.00  0.00    +0.004 A 
ATOM     36  C   UNL     1      -2.907   2.016   0.323  0.00  0.00    +0.045 A 
ENDBRANCH  30  31
ENDBRANCH  26  30
ENDBRANCH   1  26
TORSDOF 6
