REMARK  Name = ZINC39684010
REMARK  11 active torsions:
REMARK  status: ('A' for Active; 'I' for Inactive)
REMARK    1  A    between atoms: C_1  and  C_2
REMARK    2  A    between atoms: C_2  and  C_4
REMARK    3  A    between atoms: C_2  and  N_8
REMARK    4  A    between atoms: N_6  and  C_7
REMARK    5  A    between atoms: C_9  and  C_11
REMARK    6  A    between atoms: C_22  and  C_24
REMARK    7  A    between atoms: C_24  and  C_26
REMARK    8  A    between atoms: C_24  and  O_29
REMARK    9  A    between atoms: C_26  and  C_27
REMARK   10  A    between atoms: C_26  and  C_28
REMARK   11  A    between atoms: O_29  and  C_30
REMARK                            x       y       z     vdW  Elec       q    Type
REMARK                         _______ _______ _______ _____ _____    ______ ____
ROOT
ATOM      1  C   UNL     1      -3.731  -1.345  -1.868  0.00  0.00    +0.100 C 
ATOM      2  C   UNL     1      -4.428  -0.482  -0.793  0.00  0.00    +0.121 C 
ATOM      3  N   UNL     1      -5.122   0.580  -1.558  0.00  0.00    -0.297 N 
ATOM      4  C   UNL     1      -5.652  -0.114  -2.756  0.00  0.00    +0.115 C 
ATOM      5  C   UNL     1      -4.539  -1.104  -3.154  0.00  0.00    -0.004 C 
ATOM      6  C   UNL     1      -5.148  -2.412  -3.649  0.00  0.00    -0.010 C 
ATOM      7  C   UNL     1      -5.898  -2.157  -4.960  0.00  0.00    -0.082 C 
ATOM      8  N   UNL     1      -4.969  -1.617  -5.960  0.00  0.00    +0.379 N 
ATOM      9  C   UNL     1      -4.460  -0.313  -5.518  0.00  0.00    -0.082 C 
ATOM     10  C   UNL     1      -3.649  -0.490  -4.231  0.00  0.00    -0.010 C 
ATOM     11  C   UNL     1      -5.245   1.883  -1.237  0.00  0.00    +0.257 C 
ATOM     12  O   UNL     1      -4.677   2.323  -0.260  0.00  0.00    -0.272 OA
ATOM     13  H   UNL     1      -4.197  -2.255  -6.080  0.00  0.00    -0.086 HD
ATOM     14  H   UNL     1      -5.451  -1.507  -6.840  0.00  0.00    -0.086 HD
ENDROOT
BRANCH   1  16
ATOM     15  N   UNL     1      -1.366  -1.785  -2.446  0.00  0.00    -0.304 N 
ATOM     16  C   UNL     1      -2.304  -0.899  -2.054  0.00  0.00    +0.219 C 
ATOM     17  O   UNL     1      -1.998   0.257  -1.851  0.00  0.00    -0.275 OA
ATOM     18  H   UNL     1      -1.610  -2.709  -2.608  0.00  0.00    +0.149 HD
BRANCH  15  20
ATOM     19  C   UNL     1       0.750  -1.397  -1.282  0.00  0.00    +0.038 C 
ATOM     20  C   UNL     1       0.021  -1.351  -2.627  0.00  0.00    +0.156 C 
BRANCH  20  21
ATOM     21  C   UNL     1       0.711  -2.268  -3.603  0.00  0.00    +0.233 C 
ATOM     22  O   UNL     1       0.104  -3.193  -4.099  0.00  0.00    -0.274 OA
ATOM     23  N   UNL     1       2.003  -2.061  -3.925  0.00  0.00    -0.317 N 
ATOM     24  C   UNL     1       2.674  -2.952  -4.875  0.00  0.00    +0.128 C 
ATOM     25  H   UNL     1       2.489  -1.321  -3.528  0.00  0.00    +0.148 HD
ENDBRANCH  20  21
ENDBRANCH  15  20
ENDBRANCH   1  16
BRANCH  11  26
ATOM     26  C   UNL     1      -6.087   2.795  -2.093  0.00  0.00    +0.261 C 
BRANCH  26  27
ATOM     27  C   UNL     1      -7.552   2.362  -2.009  0.00  0.00    +0.033 C 
ATOM     28  C   UNL     1      -8.056   2.544  -0.576  0.00  0.00    +0.011 C 
ATOM     29  C   UNL     1      -8.392   3.220  -2.957  0.00  0.00    +0.011 C 
ENDBRANCH  26  27
BRANCH  26  30
ATOM     30  O   UNL     1      -5.959   4.139  -1.626  0.00  0.00    -0.479 OA
BRANCH  30  31
ATOM     31  C   UNL     1      -5.965   5.121  -2.565  0.00  0.00    +0.122 A 
ATOM     32  C   UNL     1      -5.834   6.449  -2.183  0.00  0.00    +0.045 A 
ATOM     33  C   UNL     1      -5.839   7.445  -3.140  0.00  0.00    +0.004 A 
ATOM     34  C   UNL     1      -5.975   7.121  -4.477  0.00  0.00    +0.000 A 
ATOM     35  C   UNL     1      -6.106   5.799  -4.860  0.00  0.00    +0.004 A 
ATOM     36  C   UNL     1      -6.095   4.798  -3.908  0.00  0.00    +0.045 A 
ENDBRANCH  30  31
ENDBRANCH  26  30
ENDBRANCH  11  26
TORSDOF 7
