REMARK  Name = ZINC11854467
REMARK  4 active torsions:
REMARK  status: ('A' for Active; 'I' for Inactive)
REMARK    1  A    between atoms: C_1  and  C_2
REMARK    2  A    between atoms: C_11  and  N_20
REMARK    3  A    between atoms: C_13  and  C_15
REMARK    4  A    between atoms: C_21  and  C_23
REMARK                            x       y       z     vdW  Elec       q    Type
REMARK                         _______ _______ _______ _____ _____    ______ ____
ROOT
ATOM      1  C   UNL     1       1.053   3.526   0.010  0.00  0.00    +0.066 C 
ATOM      2  C   UNL     1       1.111   2.021   0.002  0.00  0.00    +0.047 A 
ATOM      3  C   UNL     1       2.319   1.386  -0.013  0.00  0.00    +0.093 A 
ATOM      4  C   UNL     1       2.346  -0.021  -0.021  0.00  0.00    +0.253 A 
ATOM      5  O   UNL     1       3.407  -0.623  -0.033  0.00  0.00    -0.268 OA
ATOM      6  N   UNL     1       1.174  -0.692  -0.013  0.00  0.00    -0.291 N 
ATOM      7  H   UNL     1       1.169  -1.662  -0.018  0.00  0.00    +0.172 HD
ATOM      8  C   UNL     1       0.002  -0.004   0.002  0.00  0.00    +0.234 A 
ATOM      9  N   UNL     1      -0.016   1.311   0.009  0.00  0.00    -0.217 NA
ATOM     10  N   UNL     1      -1.192  -0.698   0.009  0.00  0.00    -0.185 N 
ATOM     11  C   UNL     1      -2.442  -0.147   0.024  0.00  0.00    +0.132 A 
ATOM     12  C   UNL     1      -3.341  -1.163   0.026  0.00  0.00    +0.074 A 
ATOM     13  C   UNL     1      -2.620  -2.377   0.013  0.00  0.00    +0.102 A 
ATOM     14  N   UNL     1      -1.334  -2.092  -0.003  0.00  0.00    -0.162 NA
ENDROOT
BRANCH  13  15
ATOM     15  C   UNL     1      -3.208  -3.733   0.010  0.00  0.00    +0.039 A 
ATOM     16  C   UNL     1      -2.575  -4.947  -0.003  0.00  0.00    +0.018 A 
ATOM     17  C   UNL     1      -3.340  -6.093  -0.003  0.00  0.00    +0.008 A 
ATOM     18  C   UNL     1      -4.694  -5.985   0.010  0.00  0.00    +0.046 A 
ATOM     19  S   UNL     1      -4.927  -4.215   0.030  0.00  0.00    -0.095 S 
ENDBRANCH  13  15
BRANCH  11  20
ATOM     20  N   UNL     1      -2.740   1.214   0.034  0.00  0.00    -0.269 N 
ATOM     21  C   UNL     1      -4.024   1.623   0.048  0.00  0.00    +0.230 C 
ATOM     22  O   UNL     1      -4.920   0.805   0.051  0.00  0.00    -0.274 OA
ATOM     23  H   UNL     1      -2.023   1.867   0.031  0.00  0.00    +0.156 HD
BRANCH  21  24
ATOM     24  C   UNL     1      -4.346   3.095   0.059  0.00  0.00    +0.142 C 
ATOM     25  C   UNL     1      -3.737   3.727   1.280  0.00  0.00    +0.011 A 
ATOM     26  C   UNL     1      -2.381   4.003   1.296  0.00  0.00    +0.008 A 
ATOM     27  C   UNL     1      -1.802   4.583   2.409  0.00  0.00    +0.001 A 
ATOM     28  C   UNL     1      -2.578   4.889   3.512  0.00  0.00    +0.004 A 
ATOM     29  C   UNL     1      -3.929   4.618   3.501  0.00  0.00    +0.046 A 
ATOM     30  C   UNL     1      -4.515   4.035   2.383  0.00  0.00    +0.133 A 
ATOM     31  O   UNL     1      -5.845   3.776   2.392  0.00  0.00    -0.455 OA
ATOM     32  C   UNL     1      -6.512   3.607   1.226  0.00  0.00    +0.133 A 
ATOM     33  C   UNL     1      -5.840   3.276   0.061  0.00  0.00    +0.011 A 
ATOM     34  C   UNL     1      -6.545   3.107  -1.118  0.00  0.00    +0.008 A 
ATOM     35  C   UNL     1      -7.917   3.269  -1.137  0.00  0.00    +0.001 A 
ATOM     36  C   UNL     1      -8.591   3.602   0.024  0.00  0.00    +0.004 A 
ATOM     37  C   UNL     1      -7.892   3.771   1.203  0.00  0.00    +0.046 A 
ENDBRANCH  21  24
ENDBRANCH  11  20
TORSDOF 3
