REMARK  Name = ZINC15277509
REMARK  6 active torsions:
REMARK  status: ('A' for Active; 'I' for Inactive)
REMARK    1  A    between atoms: C_1  and  O_2
REMARK    2  A    between atoms: O_2  and  C_3
REMARK    3  A    between atoms: C_5  and  C_13
REMARK    4  A    between atoms: C_7  and  N_10
REMARK    5  A    between atoms: C_8  and  O_9
REMARK    6  A    between atoms: C_18  and  C_23
REMARK                            x       y       z     vdW  Elec       q    Type
REMARK                         _______ _______ _______ _____ _____    ______ ____
ROOT
ATOM      1  C   UNL     1       1.143   3.595   0.010  0.00  0.00    +0.136 C 
ATOM      2  C   UNL     1       1.057   4.080  -1.417  0.00  0.00    +0.036 C 
ATOM      3  C   UNL     1      -0.004   4.663  -1.992  0.00  0.00    +0.017 C 
ATOM      4  C   UNL     1       0.053   5.118  -3.440  0.00  0.00    +0.060 C 
ATOM      5  C   UNL     1       0.971   4.196  -4.241  0.00  0.00    +0.039 C 
ATOM      6  C   UNL     1       2.364   4.256  -3.604  0.00  0.00    +0.088 C 
ATOM      7  C   UNL     1       2.246   3.868  -2.161  0.00  0.00    +0.163 C 
ATOM      8  O   UNL     1       3.200   3.354  -1.611  0.00  0.00    -0.292 OA
ATOM      9  N   UNL     1      -1.181   4.912  -1.362  0.00  0.00    -0.316 N 
ATOM     10  C   UNL     1      -1.866   4.003  -0.565  0.00  0.00    +0.052 A 
ATOM     11  C   UNL     1      -3.136   3.552  -0.879  0.00  0.00    +0.025 A 
ATOM     12  C   UNL     1      -3.808   2.739   0.017  0.00  0.00    +0.002 A 
ATOM     13  C   UNL     1      -3.216   2.379   1.213  0.00  0.00    +0.002 A 
ATOM     14  C   UNL     1      -1.937   2.811   1.519  0.00  0.00    +0.025 A 
ATOM     15  C   UNL     1      -1.254   3.610   0.617  0.00  0.00    +0.049 A 
ATOM     16  N   UNL     1       0.053   4.030   0.858  0.00  0.00    -0.331 N 
ATOM     17  H   UNL     1      -1.663   5.895  -1.466  0.00  0.00    +0.152 HD
ATOM     18  H   UNL     1       0.251   4.702   1.706  0.00  0.00    +0.147 HD
ENDROOT
BRANCH   1  21
ATOM     19  C   UNL     1       2.317   0.031   0.441  0.00  0.00    +0.164 A 
ATOM     20  C   UNL     1       2.292   1.416   0.448  0.00  0.00    +0.055 A 
ATOM     21  C   UNL     1       1.169   2.089   0.002  0.00  0.00    -0.017 A 
ATOM     22  C   UNL     1       0.071   1.382  -0.452  0.00  0.00    +0.042 A 
ATOM     23  C   UNL     1       0.090   0.000  -0.461  0.00  0.00    +0.171 A 
ATOM     24  C   UNL     1       1.212  -0.680  -0.015  0.00  0.00    +0.189 A 
BRANCH  23  25
ATOM     25  N   UNL     1      -1.088  -0.753  -0.947  0.00  0.00    +0.060 N 
ATOM     26  O   UNL     1      -2.074  -0.155  -1.339  0.00  0.00    -0.126 OA
ATOM     27  O   UNL     1      -1.071  -1.971  -0.956  0.00  0.00    -0.126 OA
ENDBRANCH  23  25
BRANCH  19  29
ATOM     28  C   UNL     1       4.518   0.162   1.334  0.00  0.00    +0.277 C 
ATOM     29  O   UNL     1       3.421  -0.633   0.879  0.00  0.00    -0.491 OA
ENDBRANCH  19  29
BRANCH  24  30
ATOM     30  O   UNL     1       1.232  -2.040  -0.024  0.00  0.00    -0.502 OA
ATOM     31  H   UNL     1       0.357  -2.601  -0.385  0.00  0.00    +0.292 HD
ENDBRANCH  24  30
ENDBRANCH   1  21
BRANCH   5  32
ATOM     32  C   UNL     1       1.042   4.664  -5.672  0.00  0.00    -0.006 A 
ATOM     33  C   UNL     1       0.696   4.004  -6.804  0.00  0.00    +0.011 A 
ATOM     34  C   UNL     1       0.848   4.639  -8.023  0.00  0.00    +0.008 A 
ATOM     35  C   UNL     1       1.339   5.902  -8.049  0.00  0.00    +0.045 A 
ATOM     36  S   UNL     1       1.597   6.234  -6.314  0.00  0.00    -0.101 S 
ENDBRANCH   5  32
TORSDOF 5
