REMARK  Name = ZINC02933121
REMARK  8 active torsions:
REMARK  status: ('A' for Active; 'I' for Inactive)
REMARK    1  A    between atoms: C_1  and  C_2
REMARK    2  A    between atoms: C_6  and  C_11
REMARK    3  A    between atoms: C_7  and  N_8
REMARK    4  A    between atoms: C_14  and  S_22
REMARK    5  A    between atoms: N_15  and  C_16
REMARK    6  A    between atoms: S_22  and  C_23
REMARK    7  A    between atoms: C_23  and  C_24
REMARK    8  A    between atoms: N_26  and  N_27
REMARK                            x       y       z     vdW  Elec       q    Type
REMARK                         _______ _______ _______ _____ _____    ______ ____
ROOT
ATOM      1  C   UNL     1       1.537   4.320   1.041  0.00  0.00    +0.172 A 
ATOM      2  N   UNL     1       1.238   5.543   0.668  0.00  0.00    -0.128 NA
ATOM      3  N   UNL     1       0.831   5.544  -0.550  0.00  0.00    -0.122 NA
ATOM      4  C   UNL     1       0.850   4.322  -1.035  0.00  0.00    +0.197 A 
ATOM      5  N   UNL     1       1.294   3.498  -0.038  0.00  0.00    -0.270 N 
ENDROOT
BRANCH   1  11
ATOM      6  C   UNL     1       4.679   4.963   4.864  0.00  0.00    +0.046 C 
ATOM      7  C   UNL     1       3.550   4.209   4.210  0.00  0.00    -0.020 A 
ATOM      8  C   UNL     1       2.981   3.123   4.852  0.00  0.00    +0.005 A 
ATOM      9  C   UNL     1       1.944   2.426   4.259  0.00  0.00    +0.001 A 
ATOM     10  C   UNL     1       1.466   2.813   3.023  0.00  0.00    +0.014 A 
ATOM     11  C   UNL     1       2.039   3.903   2.367  0.00  0.00    +0.050 A 
ATOM     12  C   UNL     1       3.085   4.603   2.972  0.00  0.00    +0.140 A 
BRANCH  12  13
ATOM     13  N   UNL     1       3.695   5.765   2.287  0.00  0.00    +0.057 N 
ATOM     14  O   UNL     1       3.248   6.883   2.470  0.00  0.00    -0.126 OA
ATOM     15  O   UNL     1       4.642   5.603   1.539  0.00  0.00    -0.126 OA
ENDBRANCH  12  13
ENDBRANCH   1  11
BRANCH   5  16
ATOM     16  C   UNL     1       1.471   2.109  -0.102  0.00  0.00    +0.051 A 
ATOM     17  C   UNL     1       0.371   1.273  -0.239  0.00  0.00    +0.026 A 
ATOM     18  C   UNL     1       0.549  -0.095  -0.303  0.00  0.00    +0.002 A 
ATOM     19  C   UNL     1       1.821  -0.632  -0.231  0.00  0.00    +0.000 A 
ATOM     20  C   UNL     1       2.919   0.198  -0.094  0.00  0.00    +0.002 A 
ATOM     21  C   UNL     1       2.747   1.567  -0.029  0.00  0.00    +0.026 A 
ENDBRANCH   5  16
BRANCH   4  22
ATOM     22  S   UNL     1       0.386   3.837  -2.664  0.00  0.00    -0.076 S 
BRANCH  22  23
ATOM     23  C   UNL     1      -0.070   5.447  -3.354  0.00  0.00    +0.174 C 
BRANCH  23  24
ATOM     24  C   UNL     1      -0.514   5.273  -4.784  0.00  0.00    +0.237 C 
ATOM     25  O   UNL     1      -0.520   4.170  -5.287  0.00  0.00    -0.274 OA
ATOM     26  N   UNL     1      -0.902   6.344  -5.504  0.00  0.00    -0.253 N 
ATOM     27  H   UNL     1      -0.897   7.227  -5.101  0.00  0.00    +0.169 HD
BRANCH  26  28
ATOM     28  N   UNL     1      -1.304   6.187  -6.800  0.00  0.00    -0.254 NA
ATOM     29  H   UNL     1      -2.060   5.522  -6.866  0.00  0.00    +0.140 HD
ATOM     30  H   UNL     1      -1.564   7.072  -7.208  0.00  0.00    +0.140 HD
ENDBRANCH  26  28
ENDBRANCH  23  24
ENDBRANCH  22  23
ENDBRANCH   4  22
TORSDOF 7
