REMARK  Name = ZINC08594882
REMARK  10 active torsions:
REMARK  status: ('A' for Active; 'I' for Inactive)
REMARK    1  A    between atoms: C_1  and  C_2
REMARK    2  A    between atoms: C_7  and  N_8
REMARK    3  A    between atoms: C_9  and  C_11
REMARK    4  A    between atoms: C_11  and  S_12
REMARK    5  A    between atoms: S_12  and  C_13
REMARK    6  A    between atoms: C_23  and  C_28
REMARK    7  A    between atoms: C_28  and  C_29
REMARK    8  A    between atoms: C_29  and  C_30
REMARK    9  A    between atoms: N_32  and  C_33
REMARK   10  A    between atoms: C_33  and  C_34
REMARK                            x       y       z     vdW  Elec       q    Type
REMARK                         _______ _______ _______ _____ _____    ______ ____
ROOT
ATOM      1  C   UNL     1      -0.384  -0.118   7.687  0.00  0.00    +0.169 C 
ATOM      2  N   UNL     1      -0.394   1.178   7.532  0.00  0.00    -0.225 NA
ATOM      3  C   UNL     1      -0.488   2.030   8.584  0.00  0.00    +0.077 A 
ATOM      4  C   UNL     1      -0.498   3.415   8.397  0.00  0.00    +0.028 A 
ATOM      5  C   UNL     1      -0.594   4.250   9.489  0.00  0.00    +0.002 A 
ATOM      6  C   UNL     1      -0.682   3.733  10.773  0.00  0.00    +0.001 A 
ATOM      7  C   UNL     1      -0.674   2.369  10.981  0.00  0.00    +0.013 A 
ATOM      8  C   UNL     1      -0.577   1.510   9.891  0.00  0.00    +0.041 A 
ATOM      9  C   UNL     1      -0.565   0.042  10.065  0.00  0.00    +0.139 C 
ATOM     10  N   UNL     1      -0.634  -0.681  11.147  0.00  0.00    -0.255 NA
ATOM     11  C   UNL     1      -0.580  -2.095  10.748  0.00  0.00    +0.194 C 
ATOM     12  C   UNL     1      -0.467  -2.045   9.239  0.00  0.00    +0.251 C 
ATOM     13  O   UNL     1      -0.394  -2.986   8.478  0.00  0.00    -0.272 OA
ATOM     14  N   UNL     1      -0.472  -0.731   8.919  0.00  0.00    -0.200 N 
ENDROOT
BRANCH   1  15
ATOM     15  S   UNL     1      -0.259  -1.133   6.252  0.00  0.00    -0.080 S 
BRANCH  15  16
ATOM     16  C   UNL     1      -0.168   0.052   4.882  0.00  0.00    +0.173 C 
BRANCH  16  18
ATOM     17  N   UNL     1       0.025  -0.015   2.417  0.00  0.00    -0.285 N 
ATOM     18  C   UNL     1      -0.056  -0.694   3.578  0.00  0.00    +0.227 C 
ATOM     19  O   UNL     1      -0.040  -1.907   3.573  0.00  0.00    -0.275 OA
ATOM     20  H   UNL     1       0.078   0.954   2.425  0.00  0.00    +0.155 HD
BRANCH  17  27
ATOM     21  C   UNL     1      -1.264   1.184   0.181  0.00  0.00    +0.045 C 
ATOM     22  C   UNL     1      -0.584  -0.158   0.084  0.00  0.00    -0.029 A 
ATOM     23  C   UNL     1      -0.568  -0.840  -1.117  0.00  0.00    +0.005 A 
ATOM     24  C   UNL     1       0.055  -2.071  -1.206  0.00  0.00    +0.000 A 
ATOM     25  C   UNL     1       0.666  -2.622  -0.095  0.00  0.00    +0.002 A 
ATOM     26  C   UNL     1       0.655  -1.945   1.108  0.00  0.00    +0.023 A 
ATOM     27  C   UNL     1       0.034  -0.706   1.201  0.00  0.00    +0.036 A 
ENDBRANCH  17  27
ENDBRANCH  16  18
ENDBRANCH  15  16
ENDBRANCH   1  15
BRANCH  11  28
ATOM     28  C   UNL     1      -1.860  -2.820  11.170  0.00  0.00    +0.045 C 
BRANCH  28  29
ATOM     29  C   UNL     1      -1.933  -2.879  12.697  0.00  0.00    +0.098 C 
BRANCH  29  30
ATOM     30  C   UNL     1      -3.193  -3.594  13.112  0.00  0.00    +0.213 C 
ATOM     31  O   UNL     1      -3.957  -4.015  12.269  0.00  0.00    -0.276 OA
ATOM     32  N   UNL     1      -3.471  -3.765  14.419  0.00  0.00    -0.311 N 
ATOM     33  H   UNL     1      -2.860  -3.428  15.093  0.00  0.00    +0.149 HD
BRANCH  32  34
ATOM     34  C   UNL     1      -4.696  -4.460  14.823  0.00  0.00    +0.139 C 
BRANCH  34  35
ATOM     35  C   UNL     1      -4.769  -4.518  16.327  0.00  0.00    -0.030 A 
ATOM     36  C   UNL     1      -4.209  -5.584  17.006  0.00  0.00    +0.005 A 
ATOM     37  C   UNL     1      -4.276  -5.637  18.385  0.00  0.00    +0.000 A 
ATOM     38  C   UNL     1      -4.901  -4.623  19.087  0.00  0.00    +0.000 A 
ATOM     39  C   UNL     1      -5.460  -3.556  18.408  0.00  0.00    +0.000 A 
ATOM     40  C   UNL     1      -5.390  -3.501  17.029  0.00  0.00    +0.005 A 
ENDBRANCH  34  35
ENDBRANCH  32  34
ENDBRANCH  29  30
ENDBRANCH  28  29
ENDBRANCH  11  28
TORSDOF 9
