REMARK  Name = ZINC21082712
REMARK  15 active torsions:
REMARK  status: ('A' for Active; 'I' for Inactive)
REMARK    1  A    between atoms: C_1  and  C_2
REMARK    2  A    between atoms: C_2  and  C_3
REMARK    3  A    between atoms: C_2  and  C_4
REMARK    4  A    between atoms: C_4  and  N_5
REMARK    5  A    between atoms: C_6  and  N_34
REMARK    6  A    between atoms: C_7  and  N_14
REMARK    7  A    between atoms: N_14  and  C_15
REMARK    8  A    between atoms: C_15  and  C_16
REMARK    9  A    between atoms: C_16  and  C_17
REMARK   10  A    between atoms: C_16  and  C_18
REMARK   11  A    between atoms: C_19  and  C_21
REMARK   12  A    between atoms: C_21  and  C_22
REMARK   13  A    between atoms: C_22  and  C_23
REMARK   14  A    between atoms: C_23  and  N_24
REMARK   15  A    between atoms: C_25  and  C_27
REMARK                            x       y       z     vdW  Elec       q    Type
REMARK                         _______ _______ _______ _____ _____    ______ ____
ROOT
ATOM      1  N   UNL     1       7.311   1.881  -0.043  0.00  0.00    -0.264 N 
ATOM      2  C   UNL     1       6.016   2.257   0.007  0.00  0.00    +0.220 C 
ATOM      3  O   UNL     1       5.729   3.427   0.145  0.00  0.00    -0.275 OA
ENDROOT
BRANCH   1   6
ATOM      4  N   UNL     1      10.237   4.034  -0.593  0.00  0.00    -0.280 N 
ATOM      5  C   UNL     1       9.254   3.100  -0.825  0.00  0.00    +0.127 A 
ATOM      6  C   UNL     1       8.331   2.833   0.165  0.00  0.00    +0.140 A 
ATOM      7  C   UNL     1       8.420   3.533   1.383  0.00  0.00    +0.277 A 
ATOM      8  O   UNL     1       7.614   3.320   2.273  0.00  0.00    -0.266 OA
ATOM      9  N   UNL     1       9.405   4.435   1.561  0.00  0.00    -0.273 N 
ATOM     10  H   UNL     1       9.486   4.979   2.513  0.00  0.00    +0.173 HD
ATOM     11  C   UNL     1      10.296   4.681   0.585  0.00  0.00    +0.331 A 
ATOM     12  O   UNL     1      11.172   5.504   0.771  0.00  0.00    -0.246 OA
BRANCH   5  13
ATOM     13  N   UNL     1       9.194   2.438  -2.028  0.00  0.00    -0.343 N 
ATOM     14  H   UNL     1       8.406   1.692  -2.207  0.00  0.00    +0.144 HD
ATOM     15  H   UNL     1       9.934   2.655  -2.813  0.00  0.00    +0.144 HD
ENDBRANCH   5  13
BRANCH   4  16
ATOM     16  C   UNL     1      11.224   4.327  -1.635  0.00  0.00    +0.131 C 
BRANCH  16  18
ATOM     17  C   UNL     1      11.789   5.853  -3.532  0.00  0.00    +0.009 C 
ATOM     18  C   UNL     1      10.708   5.462  -2.522  0.00  0.00    +0.003 C 
ATOM     19  C   UNL     1       9.456   4.998  -3.269  0.00  0.00    +0.009 C 
ENDBRANCH  16  18
ENDBRANCH   4  16
ENDBRANCH   1   6
BRANCH   1  20
ATOM     20  C   UNL     1       7.658   0.483  -0.312  0.00  0.00    +0.117 C 
BRANCH  20  21
ATOM     21  C   UNL     1       7.804  -0.270   1.012  0.00  0.00    +0.001 C 
ATOM     22  C   UNL     1       8.007  -1.760   0.731  0.00  0.00    +0.009 C 
ATOM     23  C   UNL     1       9.012   0.274   1.778  0.00  0.00    +0.009 C 
ENDBRANCH  20  21
ENDBRANCH   1  20
BRANCH   2  24
ATOM     24  C   UNL     1       4.926   1.223  -0.111  0.00  0.00    +0.098 C 
BRANCH  24  25
ATOM     25  C   UNL     1       3.565   1.889   0.103  0.00  0.00    +0.028 C 
BRANCH  25  26
ATOM     26  C   UNL     1       2.459   0.839  -0.016  0.00  0.00    +0.105 C 
BRANCH  26  27
ATOM     27  N   UNL     1       1.156   1.478   0.189  0.00  0.00    -0.311 N 
ATOM     28  C   UNL     1       0.029   0.742   0.129  0.00  0.00    +0.244 C 
ATOM     29  O   UNL     1       0.092  -0.451  -0.094  0.00  0.00    -0.270 OA
ATOM     30  H   UNL     1       1.098   2.557   0.392  0.00  0.00    +0.149 HD
BRANCH  28  31
ATOM     31  C   UNL     1      -1.286   1.387   0.330  0.00  0.00    +0.037 A 
ATOM     32  C   UNL     1      -1.362   2.756   0.593  0.00  0.00    +0.014 A 
ATOM     33  C   UNL     1      -2.592   3.353   0.774  0.00  0.00    +0.021 A 
ATOM     34  C   UNL     1      -3.749   2.595   0.706  0.00  0.00    +0.041 A 
ATOM     35  C   UNL     1      -3.680   1.236   0.452  0.00  0.00    +0.021 A 
ATOM     36  C   UNL     1      -2.456   0.628   0.263  0.00  0.00    +0.014 A 
ATOM     37 CL   UNL     1      -5.293   3.353   0.942  0.00  0.00    -0.084 Cl
ENDBRANCH  28  31
ENDBRANCH  26  27
ENDBRANCH  25  26
ENDBRANCH  24  25
ENDBRANCH   2  24
TORSDOF 11
