REMARK  Name = ZINC04161173
REMARK  14 active torsions:
REMARK  status: ('A' for Active; 'I' for Inactive)
REMARK    1  A    between atoms: C_1  and  C_2
REMARK    2  A    between atoms: C_2  and  C_3
REMARK    3  A    between atoms: C_3  and  C_4
REMARK    4  A    between atoms: C_4  and  C_6
REMARK    5  A    between atoms: C_4  and  N_13
REMARK    6  A    between atoms: N_8  and  C_9
REMARK    7  A    between atoms: C_9  and  C_10
REMARK    8  A    between atoms: C_9  and  C_11
REMARK    9  A    between atoms: C_9  and  C_12
REMARK   10  A    between atoms: N_13  and  C_14
REMARK   11  A    between atoms: C_14  and  C_15
REMARK   12  A    between atoms: C_21  and  C_23
REMARK   13  A    between atoms: C_24  and  N_31
REMARK   14  A    between atoms: C_25  and  C_28
REMARK                            x       y       z     vdW  Elec       q    Type
REMARK                         _______ _______ _______ _____ _____    ______ ____
ROOT
ATOM      1  N   UNL     1      -1.047  -2.563  -0.932  0.00  0.00    -0.283 N 
ATOM      2  C   UNL     1      -1.858  -2.989   0.057  0.00  0.00    +0.257 C 
ATOM      3  O   UNL     1      -1.384  -3.510   1.050  0.00  0.00    -0.269 OA
ENDROOT
BRANCH   2   4
ATOM      4  C   UNL     1      -3.308  -2.826  -0.064  0.00  0.00    +0.115 A 
ATOM      5  C   UNL     1      -4.308  -3.091   0.873  0.00  0.00    +0.076 A 
ATOM      6  C   UNL     1      -5.592  -2.813   0.406  0.00  0.00    +0.155 A 
ATOM      7  N   UNL     1      -5.752  -2.349  -0.815  0.00  0.00    -0.203 NA
ATOM      8  S   UNL     1      -4.266  -2.229  -1.442  0.00  0.00    +0.019 S 
BRANCH   6   9
ATOM      9  C   UNL     1      -6.762  -3.039   1.274  0.00  0.00    +0.262 C 
ATOM     10  O   UNL     1      -6.604  -3.371   2.434  0.00  0.00    -0.269 OA
ATOM     11  N   UNL     1      -8.006  -2.878   0.783  0.00  0.00    -0.324 N 
ATOM     12  H   UNL     1      -8.132  -2.614  -0.142  0.00  0.00    +0.145 HD
ATOM     13  H   UNL     1      -8.776  -3.027   1.354  0.00  0.00    +0.145 HD
ENDBRANCH   6   9
BRANCH   5  14
ATOM     14  N   UNL     1      -4.050  -3.583   2.145  0.00  0.00    -0.355 N 
ATOM     15  H   UNL     1      -3.135  -3.651   2.462  0.00  0.00    +0.142 HD
ATOM     16  H   UNL     1      -4.783  -3.858   2.717  0.00  0.00    +0.142 HD
ENDBRANCH   5  14
ENDBRANCH   2   4
BRANCH   1  17
ATOM     17  C   UNL     1       0.396  -2.804  -0.851  0.00  0.00    +0.162 C 
BRANCH  17  18
ATOM     18  C   UNL     1       0.971  -2.027   0.305  0.00  0.00    +0.234 C 
ATOM     19  O   UNL     1       0.240  -1.381   1.026  0.00  0.00    -0.274 OA
ATOM     20  N   UNL     1       2.298  -2.051   0.539  0.00  0.00    -0.309 N 
ATOM     21  H   UNL     1       2.892  -2.506  -0.078  0.00  0.00    +0.149 HD
BRANCH  20  22
ATOM     22  C   UNL     1       2.844  -1.389   1.727  0.00  0.00    +0.026 C 
ATOM     23  C   UNL     1       2.215  -1.995   2.983  0.00  0.00    +0.031 C 
ATOM     24  C   UNL     1       4.361  -1.588   1.769  0.00  0.00    +0.031 C 
ATOM     25  C   UNL     1       2.528   0.106   1.668  0.00  0.00    +0.031 C 
ENDBRANCH  20  22
ENDBRANCH  17  18
BRANCH  17  26
ATOM     26  C   UNL     1       0.653  -4.297  -0.641  0.00  0.00    +0.032 C 
BRANCH  26  28
ATOM     27  C   UNL     1       0.437  -6.568  -1.661  0.00  0.00    +0.004 C 
ATOM     28  C   UNL     1       0.181  -5.074  -1.872  0.00  0.00    -0.001 C 
ENDBRANCH  26  28
ENDBRANCH  17  26
ENDBRANCH   1  17
BRANCH   1  29
ATOM     29  C   UNL     1      -1.609  -1.858  -2.087  0.00  0.00    +0.140 C 
BRANCH  29  30
ATOM     30  C   UNL     1      -1.792  -0.379  -1.742  0.00  0.00    +0.136 C 
ATOM     31  C   UNL     1      -2.519   0.356  -2.897  0.00  0.00    +0.035 C 
ATOM     32  C   UNL     1      -3.155   1.549  -2.132  0.00  0.00    +0.031 C 
ATOM     33  C   UNL     1      -3.486   0.921  -0.762  0.00  0.00    +0.160 C 
ATOM     34  O   UNL     1      -2.655  -0.236  -0.602  0.00  0.00    -0.375 OA
ENDBRANCH  29  30
ENDBRANCH   1  29
TORSDOF 10
