REMARK  Name = ZINC47144862
REMARK  5 active torsions:
REMARK  status: ('A' for Active; 'I' for Inactive)
REMARK    1  A    between atoms: C_1  and  C_2
REMARK    2  A    between atoms: C_7  and  N_8
REMARK    3  A    between atoms: C_9  and  C_11
REMARK    4  A    between atoms: C_11  and  N_12
REMARK    5  A    between atoms: C_30  and  C_40
REMARK                            x       y       z     vdW  Elec       q    Type
REMARK                         _______ _______ _______ _____ _____    ______ ____
ROOT
ATOM      1  N   UNL     1      -0.241  -0.905   5.988  0.00  0.00    -0.233 N 
ATOM      2  C   UNL     1      -1.399  -1.397   6.444  0.00  0.00    +0.226 C 
ATOM      3  O   UNL     1      -2.494  -1.142   5.990  0.00  0.00    -0.275 OA
ATOM      4  C   UNL     1      -1.130  -2.321   7.613  0.00  0.00    +0.091 C 
ATOM      5  C   UNL     1      -1.516  -1.519   8.917  0.00  0.00    +0.007 C 
ATOM      6  C   UNL     1      -0.496  -2.220   9.897  0.00  0.00    +0.010 C 
ATOM      7  C   UNL     1       0.814  -1.832   9.095  0.00  0.00    +0.015 C 
ATOM      8  C   UNL     1       0.426  -2.358   7.676  0.00  0.00    +0.092 C 
ATOM      9  C   UNL     1       0.845  -1.364   6.622  0.00  0.00    +0.226 C 
ATOM     10  O   UNL     1       1.986  -1.030   6.387  0.00  0.00    -0.275 OA
ATOM     11  C   UNL     1       0.609  -0.302   9.141  0.00  0.00    +0.061 C 
ATOM     12  C   UNL     1      -0.865  -0.172   8.615  0.00  0.00    +0.022 C 
ATOM     13  C   UNL     1      -1.482   1.140   8.947  0.00  0.00    +0.099 C 
ATOM     14  C   UNL     1      -0.650   2.222   8.308  0.00  0.00    +0.035 A 
ATOM     15  C   UNL     1       0.614   2.167   7.833  0.00  0.00    +0.087 A 
ATOM     16  N   UNL     1       1.077   3.341   7.289  0.00  0.00    -0.311 N 
ATOM     17  H   UNL     1       1.972   3.381   6.916  0.00  0.00    +0.170 HD
ATOM     18  C   UNL     1       0.292   4.434   7.274  0.00  0.00    +0.289 A 
ATOM     19  O   UNL     1       0.548   5.543   6.839  0.00  0.00    -0.260 OA
ATOM     20  S   UNL     1      -1.129   3.901   8.001  0.00  0.00    -0.030 S 
ATOM     21  S   UNL     1       1.645   0.632   7.987  0.00  0.00    -0.103 S 
ENDROOT
BRANCH  13  22
ATOM     22  C   UNL     1      -1.502   1.328  10.442  0.00  0.00    +0.113 A 
ATOM     23  C   UNL     1      -2.602   1.499  11.198  0.00  0.00    +0.045 A 
ATOM     24  C   UNL     1      -2.163   1.636  12.535  0.00  0.00    +0.041 A 
ATOM     25  C   UNL     1      -0.821   1.541  12.516  0.00  0.00    +0.195 A 
ATOM     26  O   UNL     1      -0.427   1.349  11.246  0.00  0.00    -0.467 OA
ENDBRANCH  13  22
BRANCH   1  27
ATOM     27  C   UNL     1      -0.168   0.052   4.882  0.00  0.00    +0.212 C 
BRANCH  27  29
ATOM     28  N   UNL     1       0.025  -0.015   2.417  0.00  0.00    -0.284 N 
ATOM     29  C   UNL     1      -0.056  -0.694   3.578  0.00  0.00    +0.235 C 
ATOM     30  O   UNL     1      -0.040  -1.907   3.573  0.00  0.00    -0.274 OA
ATOM     31  H   UNL     1       0.078   0.954   2.425  0.00  0.00    +0.155 HD
BRANCH  28  38
ATOM     32  C   UNL     1      -1.264   1.184   0.181  0.00  0.00    +0.045 C 
ATOM     33  C   UNL     1      -0.584  -0.158   0.084  0.00  0.00    -0.029 A 
ATOM     34  C   UNL     1      -0.568  -0.840  -1.117  0.00  0.00    +0.005 A 
ATOM     35  C   UNL     1       0.055  -2.071  -1.206  0.00  0.00    +0.000 A 
ATOM     36  C   UNL     1       0.666  -2.622  -0.095  0.00  0.00    +0.002 A 
ATOM     37  C   UNL     1       0.655  -1.945   1.108  0.00  0.00    +0.023 A 
ATOM     38  C   UNL     1       0.034  -0.706   1.201  0.00  0.00    +0.036 A 
ENDBRANCH  28  38
ENDBRANCH  27  29
ENDBRANCH   1  27
TORSDOF 4
