REMARK  Name = ZINC36000204
REMARK  10 active torsions:
REMARK  status: ('A' for Active; 'I' for Inactive)
REMARK    1  A    between atoms: C_1  and  C_2
REMARK    2  A    between atoms: C_2  and  N_3
REMARK    3  A    between atoms: N_10  and  C_13
REMARK    4  A    between atoms: C_13  and  C_14
REMARK    5  A    between atoms: C_15  and  C_30
REMARK    6  A    between atoms: C_16  and  C_23
REMARK    7  A    between atoms: N_21  and  C_22
REMARK    8  A    between atoms: C_30  and  O_32
REMARK    9  A    between atoms: O_32  and  C_33
REMARK   10  A    between atoms: C_33  and  C_34
REMARK                            x       y       z     vdW  Elec       q    Type
REMARK                         _______ _______ _______ _____ _____    ______ ____
ROOT
ATOM      1  C   UNL     1       4.901  -5.842  -2.212  0.00  0.00    +0.010 C 
ATOM      2  C   UNL     1       5.829  -6.279  -3.091  0.00  0.00    +0.076 C 
ATOM      3  C   UNL     1       6.033  -7.775  -3.216  0.00  0.00    +0.144 C 
ATOM      4  N   UNL     1       5.197  -8.636  -2.363  0.00  0.00    -0.288 N 
ATOM      5  C   UNL     1       4.311  -8.050  -1.532  0.00  0.00    +0.307 C 
ATOM      6  O   UNL     1       3.617  -8.752  -0.823  0.00  0.00    -0.252 OA
ATOM      7  N   UNL     1       4.176  -6.720  -1.458  0.00  0.00    -0.264 N 
ATOM      8  C   UNL     1       3.191  -6.177  -0.520  0.00  0.00    +0.139 C 
ATOM      9  H   UNL     1       5.281  -9.602  -2.398  0.00  0.00    +0.151 HD
ENDROOT
BRANCH   3  10
ATOM     10  C   UNL     1       7.476  -8.075  -2.905  0.00  0.00    -0.020 A 
ATOM     11  C   UNL     1       7.899  -8.148  -1.590  0.00  0.00    +0.006 A 
ATOM     12  C   UNL     1       9.223  -8.422  -1.303  0.00  0.00    +0.003 A 
ATOM     13  C   UNL     1      10.126  -8.624  -2.330  0.00  0.00    +0.038 A 
ATOM     14  C   UNL     1       9.704  -8.551  -3.646  0.00  0.00    +0.124 A 
ATOM     15  C   UNL     1       8.376  -8.282  -3.933  0.00  0.00    +0.044 A 
ATOM     16  F   UNL     1      10.586  -8.748  -4.651  0.00  0.00    -0.205 F 
ENDBRANCH   3  10
BRANCH   2  17
ATOM     17  C   UNL     1       6.584  -5.370  -3.869  0.00  0.00    +0.339 C 
ATOM     18  O   UNL     1       6.438  -4.172  -3.717  0.00  0.00    -0.245 OA
BRANCH  17  19
ATOM     19  O   UNL     1       7.466  -5.832  -4.779  0.00  0.00    -0.462 OA
BRANCH  19  20
ATOM     20  C   UNL     1       8.194  -4.858  -5.530  0.00  0.00    +0.229 C 
ATOM     21  C   UNL     1       9.138  -5.566  -6.504  0.00  0.00    +0.048 C 
ENDBRANCH  19  20
ENDBRANCH  17  19
ENDBRANCH   2  17
BRANCH   1  22
ATOM     22  C   UNL     1       4.666  -4.362  -2.056  0.00  0.00    -0.026 C 
BRANCH  22  30
ATOM     23  N   UNL     1      -0.608  -3.599  -2.925  0.00  0.00    -0.300 N 
ATOM     24  C   UNL     1       0.062  -2.586  -3.510  0.00  0.00    +0.302 C 
ATOM     25  O   UNL     1      -0.382  -1.455  -3.461  0.00  0.00    -0.253 OA
ATOM     26  N   UNL     1       1.223  -2.828  -4.150  0.00  0.00    -0.287 N 
ATOM     27  C   UNL     1       1.986  -1.687  -4.695  0.00  0.00    +0.107 C 
ATOM     28  C   UNL     1       3.495  -1.857  -4.441  0.00  0.00    +0.000 C 
ATOM     29  C   UNL     1       3.711  -2.430  -3.057  0.00  0.00    -0.077 C 
ATOM     30  N   UNL     1       3.805  -3.885  -3.147  0.00  0.00    +0.384 N 
ATOM     31  C   UNL     1       2.571  -4.568  -3.070  0.00  0.00    -0.059 C 
ATOM     32  C   UNL     1       1.681  -4.196  -4.273  0.00  0.00    +0.091 C 
ATOM     33  H   UNL     1      -0.293  -4.511  -3.026  0.00  0.00    +0.150 HD
ATOM     34  H   UNL     1       4.246  -4.122  -4.022  0.00  0.00    -0.081 HD
BRANCH  23  36
ATOM     35  C   UNL     1      -2.374  -4.634  -1.586  0.00  0.00    +0.024 C 
ATOM     36  C   UNL     1      -1.811  -3.322  -2.136  0.00  0.00    +0.102 C 
ENDBRANCH  23  36
ENDBRANCH  22  30
ENDBRANCH   1  22
TORSDOF 7
