REMARK  Name = ZINC32126859
REMARK  6 active torsions:
REMARK  status: ('A' for Active; 'I' for Inactive)
REMARK    1  A    between atoms: C_1  and  C_2
REMARK    2  A    between atoms: C_2  and  O_3
REMARK    3  A    between atoms: O_3  and  C_4
REMARK    4  A    between atoms: C_7  and  C_11
REMARK    5  A    between atoms: N_13  and  C_14
REMARK    6  A    between atoms: C_14  and  N_16
REMARK                            x       y       z     vdW  Elec       q    Type
REMARK                         _______ _______ _______ _____ _____    ______ ____
ROOT
ATOM      1  C   UNL     1      -4.853   3.840   0.070  0.00  0.00    +0.163 C 
ATOM      2  S   UNL     1      -4.873   5.552   0.078  0.00  0.00    -0.016 S 
ENDROOT
BRANCH   1   3
ATOM      3  N   UNL     1      -6.013   3.153   0.077  0.00  0.00    -0.169 NA
ATOM      4  C   UNL     1      -7.219   3.831   0.092  0.00  0.00    +0.163 A 
ATOM      5  N   UNL     1      -8.438   3.343   0.102  0.00  0.00    -0.334 N 
ATOM      6  C   UNL     1      -9.535   4.131   0.117  0.00  0.00    +0.075 A 
ATOM      7  C   UNL     1      -9.290   5.522   0.122  0.00  0.00    +0.040 A 
ATOM      8  S   UNL     1      -7.514   5.593   0.112  0.00  0.00    -0.052 S 
ATOM      9  C   UNL     1     -10.298   6.453   0.138  0.00  0.00    +0.019 A 
ATOM     10  C   UNL     1     -11.616   6.033   0.148  0.00  0.00    +0.022 A 
ATOM     11  C   UNL     1     -11.896   4.674   0.144  0.00  0.00    +0.061 A 
ATOM     12  C   UNL     1     -10.894   3.736   0.129  0.00  0.00    +0.084 A 
ATOM     13 CL   UNL     1     -11.297   2.047   0.124  0.00  0.00    -0.080 Cl
ATOM     14 CL   UNL     1     -13.550   4.148   0.157  0.00  0.00    -0.082 Cl
ATOM     15  H   UNL     1      -8.595   2.254   0.098  0.00  0.00    +0.168 HD
ENDBRANCH   1   3
BRANCH   1  18
ATOM     16  C   UNL     1      -2.519   3.867   0.047  0.00  0.00    +0.250 C 
ATOM     17  O   UNL     1      -2.533   5.083   0.053  0.00  0.00    -0.270 OA
ATOM     18  N   UNL     1      -3.678   3.180   0.055  0.00  0.00    -0.262 N 
ATOM     19  H   UNL     1      -3.666   2.080   0.049  0.00  0.00    +0.157 HD
BRANCH  16  23
ATOM     20  C   UNL     1       1.182   1.786   0.000  0.00  0.00    +0.134 A 
ATOM     21  C   UNL     1      -0.013   1.076   0.008  0.00  0.00    +0.047 A 
ATOM     22  C   UNL     1      -1.215   1.747   0.017  0.00  0.00    +0.017 A 
ATOM     23  C   UNL     1      -1.233   3.145   0.031  0.00  0.00    +0.038 A 
ATOM     24  C   UNL     1      -0.030   3.856   0.023  0.00  0.00    +0.032 A 
ATOM     25  C   UNL     1       1.169   3.177   0.007  0.00  0.00    +0.060 A 
ATOM     26 BR   UNL     1       2.798   4.137  -0.003  0.00  0.00    -0.046 Br
BRANCH  20  27
ATOM     27  O   UNL     1       2.365   1.121  -0.015  0.00  0.00    -0.491 OA
BRANCH  27  29
ATOM     28  C   UNL     1       3.726  -0.876  -0.038  0.00  0.00    +0.048 C 
ATOM     29  C   UNL     1       2.306  -0.307  -0.022  0.00  0.00    +0.226 C 
ENDBRANCH  27  29
ENDBRANCH  20  27
ENDBRANCH  16  23
ENDBRANCH   1  18
TORSDOF 5
