REMARK  Name = ZINC39606615
REMARK  10 active torsions:
REMARK  status: ('A' for Active; 'I' for Inactive)
REMARK    1  A    between atoms: C_1  and  C_2
REMARK    2  A    between atoms: C_2  and  C_3
REMARK    3  A    between atoms: C_3  and  C_5
REMARK    4  A    between atoms: C_3  and  C_6
REMARK    5  A    between atoms: C_6  and  N_7
REMARK    6  A    between atoms: C_8  and  C_10
REMARK    7  A    between atoms: C_21  and  C_23
REMARK    8  A    between atoms: C_23  and  O_24
REMARK    9  A    between atoms: O_24  and  C_25
REMARK   10  A    between atoms: C_35  and  C_36
REMARK                            x       y       z     vdW  Elec       q    Type
REMARK                         _______ _______ _______ _____ _____    ______ ____
ROOT
ATOM      1  C   UNL     1      -4.424  -4.392   0.513  0.00  0.00    +0.100 C 
ATOM      2  C   UNL     1      -5.026  -3.961   1.870  0.00  0.00    +0.121 C 
ATOM      3  N   UNL     1      -5.845  -5.119   2.300  0.00  0.00    -0.297 N 
ATOM      4  C   UNL     1      -5.041  -6.303   1.914  0.00  0.00    +0.115 C 
ATOM      5  C   UNL     1      -4.435  -5.929   0.546  0.00  0.00    -0.004 C 
ATOM      6  C   UNL     1      -3.013  -6.470   0.435  0.00  0.00    -0.010 C 
ATOM      7  C   UNL     1      -3.054  -8.001   0.411  0.00  0.00    -0.082 C 
ATOM      8  N   UNL     1      -3.862  -8.453  -0.728  0.00  0.00    +0.379 N 
ATOM      9  C   UNL     1      -5.251  -8.007  -0.565  0.00  0.00    -0.082 C 
ATOM     10  C   UNL     1      -5.303  -6.476  -0.583  0.00  0.00    -0.010 C 
ATOM     11  C   UNL     1      -7.049  -5.100   2.906  0.00  0.00    +0.253 C 
ATOM     12  O   UNL     1      -7.597  -6.141   3.199  0.00  0.00    -0.272 OA
ATOM     13  H   UNL     1      -3.484  -8.068  -1.581  0.00  0.00    -0.086 HD
ATOM     14  H   UNL     1      -3.837  -9.461  -0.777  0.00  0.00    -0.086 HD
ENDROOT
BRANCH   1  16
ATOM     15  N   UNL     1      -2.505  -3.617  -0.841  0.00  0.00    -0.315 N 
ATOM     16  C   UNL     1      -3.013  -3.880   0.379  0.00  0.00    +0.218 C 
ATOM     17  O   UNL     1      -2.335  -3.705   1.369  0.00  0.00    -0.275 OA
ATOM     18  H   UNL     1      -3.048  -3.757  -1.633  0.00  0.00    +0.149 HD
BRANCH  15  19
ATOM     19  C   UNL     1      -1.133  -3.119  -0.972  0.00  0.00    +0.107 C 
BRANCH  19  20
ATOM     20  C   UNL     1      -0.808  -2.903  -2.451  0.00  0.00    +0.003 C 
ATOM     21  C   UNL     1      -0.821  -4.250  -3.178  0.00  0.00    +0.009 C 
BRANCH  20  23
ATOM     22  C   UNL     1       0.852  -1.937  -4.049  0.00  0.00    +0.004 C 
ATOM     23  C   UNL     1       0.578  -2.267  -2.581  0.00  0.00    +0.001 C 
ENDBRANCH  20  23
ENDBRANCH  19  20
ENDBRANCH  15  19
ENDBRANCH   1  16
BRANCH  11  24
ATOM     24  C   UNL     1      -7.714  -3.784   3.219  0.00  0.00    +0.324 C 
BRANCH  24  25
ATOM     25  O   UNL     1      -8.970  -4.025   3.855  0.00  0.00    -0.479 OA
BRANCH  25  26
ATOM     26  C   UNL     1      -9.703  -2.935   4.207  0.00  0.00    +0.164 A 
ATOM     27  C   UNL     1      -9.227  -1.664   3.939  0.00  0.00    +0.049 A 
ATOM     28  C   UNL     1      -9.966  -0.544   4.293  0.00  0.00    +0.004 A 
ATOM     29  C   UNL     1     -11.185  -0.682   4.915  0.00  0.00    +0.012 A 
ATOM     30  C   UNL     1     -11.682  -1.960   5.192  0.00  0.00    +0.024 A 
ATOM     31  C   UNL     1     -10.938  -3.096   4.831  0.00  0.00    +0.181 A 
ATOM     32  O   UNL     1     -11.422  -4.329   5.095  0.00  0.00    -0.418 OA
ATOM     33  C   UNL     1     -12.610  -4.502   5.696  0.00  0.00    +0.338 A 
ATOM     34  O   UNL     1     -13.005  -5.632   5.915  0.00  0.00    -0.245 OA
ATOM     35  C   UNL     1     -13.412  -3.405   6.081  0.00  0.00    +0.096 A 
ATOM     36  C   UNL     1     -12.978  -2.140   5.854  0.00  0.00    -0.033 A 
ATOM     37  C   UNL     1     -13.813  -0.951   6.256  0.00  0.00    +0.045 C 
ENDBRANCH  25  26
ENDBRANCH  24  25
ENDBRANCH  11  24
TORSDOF 7
