REMARK  Name = ZINC21782115
REMARK  11 active torsions:
REMARK  status: ('A' for Active; 'I' for Inactive)
REMARK    1  A    between atoms: C_1  and  C_2
REMARK    2  A    between atoms: C_5  and  C_39
REMARK    3  A    between atoms: N_8  and  C_10
REMARK    4  A    between atoms: C_10  and  C_11
REMARK    5  A    between atoms: C_11  and  C_12
REMARK    6  A    between atoms: C_12  and  N_13
REMARK    7  A    between atoms: C_14  and  C_16
REMARK    8  A    between atoms: C_16  and  C_38
REMARK    9  A    between atoms: C_21  and  O_36
REMARK   10  A    between atoms: N_29  and  C_30
REMARK   11  A    between atoms: O_36  and  C_37
REMARK                            x       y       z     vdW  Elec       q    Type
REMARK                         _______ _______ _______ _____ _____    ______ ____
ROOT
ATOM      1  C   UNL     1       7.311  -2.093   4.109  0.00  0.00    +0.129 C 
ATOM      2  C   UNL     1       7.379  -0.753   4.839  0.00  0.00    +0.157 C 
ATOM      3  N   UNL     1       6.975   0.319   3.923  0.00  0.00    -0.334 N 
ATOM      4  C   UNL     1       6.378   1.509   4.176  0.00  0.00    +0.053 A 
ATOM      5  C   UNL     1       5.939   2.102   5.358  0.00  0.00    +0.072 A 
ATOM      6  C   UNL     1       5.361   3.360   5.256  0.00  0.00    +0.122 A 
ATOM      7  C   UNL     1       5.218   4.013   4.036  0.00  0.00    +0.046 A 
ATOM      8  C   UNL     1       5.640   3.454   2.858  0.00  0.00    +0.013 A 
ATOM      9  C   UNL     1       6.227   2.181   2.931  0.00  0.00    +0.001 A 
ATOM     10  C   UNL     1       6.752   1.339   1.935  0.00  0.00    +0.041 A 
ATOM     11  C   UNL     1       7.192   0.218   2.545  0.00  0.00    +0.106 A 
ATOM     12  C   UNL     1       7.805  -0.991   1.968  0.00  0.00    +0.264 C 
ATOM     13  O   UNL     1       8.164  -1.034   0.806  0.00  0.00    -0.268 OA
ATOM     14  N   UNL     1       7.949  -2.050   2.798  0.00  0.00    -0.278 N 
ATOM     15  C   UNL     1       8.008  -3.155   4.962  0.00  0.00    +0.043 C 
ENDROOT
BRANCH  14  16
ATOM     16  C   UNL     1       8.768  -3.186   2.367  0.00  0.00    +0.078 C 
ATOM     17  C   UNL     1      10.167  -2.692   1.991  0.00  0.00    +0.022 C 
ATOM     18  C   UNL     1      11.022  -3.878   1.541  0.00  0.00    +0.002 C 
ATOM     19  C   UNL     1      10.373  -4.544   0.326  0.00  0.00    +0.000 C 
ATOM     20  C   UNL     1       8.974  -5.037   0.703  0.00  0.00    +0.002 C 
ATOM     21  C   UNL     1       8.119  -3.851   1.152  0.00  0.00    +0.022 C 
ENDBRANCH  14  16
BRANCH   1  23
ATOM     22  N   UNL     1       5.182  -2.062   2.851  0.00  0.00    -0.314 N 
ATOM     23  C   UNL     1       5.866  -2.481   3.934  0.00  0.00    +0.238 C 
ATOM     24  O   UNL     1       5.317  -3.169   4.769  0.00  0.00    -0.273 OA
ATOM     25  H   UNL     1       5.620  -1.511   2.184  0.00  0.00    +0.149 HD
BRANCH  22  26
ATOM     26  C   UNL     1       3.776  -2.438   2.682  0.00  0.00    +0.102 C 
BRANCH  26  27
ATOM     27  C   UNL     1       3.240  -1.838   1.381  0.00  0.00    +0.000 C 
BRANCH  27  28
ATOM     28  C   UNL     1       1.772  -2.231   1.204  0.00  0.00    -0.077 C 
BRANCH  28  34
ATOM     29  C   UNL     1       0.817   1.943  -1.169  0.00  0.00    +0.005 C 
ATOM     30  C   UNL     1       0.809   0.417  -1.275  0.00  0.00    -0.031 C 
ATOM     31  C   UNL     1      -0.610  -0.066  -1.588  0.00  0.00    +0.003 C 
ATOM     32  C   UNL     1      -0.623  -1.597  -1.615  0.00  0.00    -0.031 C 
ATOM     33  C   UNL     1      -0.112  -2.130  -0.275  0.00  0.00    -0.076 C 
ATOM     34  N   UNL     1       1.258  -1.655  -0.046  0.00  0.00    +0.380 N 
ATOM     35  C   UNL     1       1.268  -0.190   0.052  0.00  0.00    -0.076 C 
ATOM     36  C   UNL     1      -2.051  -2.092  -1.851  0.00  0.00    +0.005 C 
ATOM     37  H   UNL     1       1.846  -1.943  -0.814  0.00  0.00    -0.082 HD
ENDBRANCH  28  34
ENDBRANCH  27  28
ENDBRANCH  26  27
ENDBRANCH  22  26
ENDBRANCH   1  23
BRANCH   6  38
ATOM     38  O   UNL     1       4.919   3.973   6.385  0.00  0.00    -0.495 OA
ATOM     39  C   UNL     1       4.331   5.267   6.233  0.00  0.00    +0.277 C 
ENDBRANCH   6  38
TORSDOF 7
