REMARK  Name = ZINC50250981
REMARK  4 active torsions:
REMARK  status: ('A' for Active; 'I' for Inactive)
REMARK    1  A    between atoms: C_3  and  C_19
REMARK    2  A    between atoms: C_4  and  N_8
REMARK    3  A    between atoms: C_14  and  C_17
REMARK    4  A    between atoms: C_17  and  N_18
REMARK                            x       y       z     vdW  Elec       q    Type
REMARK                         _______ _______ _______ _____ _____    ______ ____
ROOT
ATOM      1  N   UNL     1       3.564  -0.665  -0.025  0.00  0.00    -0.268 N 
ATOM      2  C   UNL     1       3.551  -2.010  -0.117  0.00  0.00    +0.306 C 
ATOM      3  O   UNL     1       2.500  -2.598  -0.283  0.00  0.00    -0.252 OA
ATOM      4  N   UNL     1       4.704  -2.702  -0.027  0.00  0.00    -0.285 N 
ATOM      5  C   UNL     1       6.039  -2.120   0.178  0.00  0.00    +0.109 C 
ATOM      6  C   UNL     1       7.050  -3.287   0.190  0.00  0.00    +0.022 C 
ATOM      7  C   UNL     1       6.296  -4.407  -0.574  0.00  0.00    -0.010 C 
ATOM      8  C   UNL     1       4.835  -4.168  -0.111  0.00  0.00    +0.111 C 
ATOM      9  H   UNL     1       4.408  -0.190   0.030  0.00  0.00    +0.156 HD
ENDROOT
BRANCH   1  13
ATOM     10  C   UNL     1      -0.029   1.455   0.028  0.00  0.00    +0.021 A 
ATOM     11  C   UNL     1       1.070   2.004  -0.595  0.00  0.00    +0.018 A 
ATOM     12  C   UNL     1       2.280   1.304  -0.620  0.00  0.00    +0.084 A 
ATOM     13  C   UNL     1       2.365   0.042  -0.006  0.00  0.00    +0.050 A 
ATOM     14  C   UNL     1       1.248  -0.495   0.617  0.00  0.00    +0.044 A 
ATOM     15  C   UNL     1       0.059   0.209   0.633  0.00  0.00    +0.043 A 
ATOM     16 CL   UNL     1      -1.335  -0.470   1.415  0.00  0.00    -0.083 Cl
BRANCH  12  17
ATOM     17  C   UNL     1       3.457   1.884  -1.284  0.00  0.00    +0.388 C 
ATOM     18  O   UNL     1       3.356   2.939  -1.895  0.00  0.00    -0.241 OA
ATOM     19  O   UNL     1       4.537   1.311  -1.226  0.00  0.00    -0.241 OA
ENDBRANCH  12  17
ENDBRANCH   1  13
BRANCH   7  20
ATOM     20  C   UNL     1       6.787  -5.791  -0.142  0.00  0.00    -0.081 C 
BRANCH  20  21
ATOM     21  N   UNL     1       6.140  -6.819  -0.967  0.00  0.00    +0.378 N 
ATOM     22  H   UNL     1       6.373  -6.668  -1.937  0.00  0.00    -0.090 HD
ATOM     23  H   UNL     1       6.463  -7.732  -0.682  0.00  0.00    -0.090 HD
ATOM     24  H   UNL     1       5.139  -6.765  -0.849  0.00  0.00    -0.090 HD
ENDBRANCH  20  21
ENDBRANCH   7  20
TORSDOF 4
