REMARK  Name = ZINC12885951
REMARK  2 active torsions:
REMARK  status: ('A' for Active; 'I' for Inactive)
REMARK    1  A    between atoms: C_8  and  C_26
REMARK    2  A    between atoms: C_26  and  C_28
REMARK                            x       y       z     vdW  Elec       q    Type
REMARK                         _______ _______ _______ _____ _____    ______ ____
ROOT
ATOM      1  C   UNL     1       6.055   2.154   2.818  0.00  0.00    +0.000 A 
ATOM      2  C   UNL     1       5.502   2.299   4.077  0.00  0.00    +0.002 A 
ATOM      3  C   UNL     1       4.212   1.878   4.324  0.00  0.00    +0.023 A 
ATOM      4  C   UNL     1       3.455   1.302   3.307  0.00  0.00    +0.038 A 
ATOM      5  C   UNL     1       4.023   1.160   2.044  0.00  0.00    -0.011 A 
ATOM      6  C   UNL     1       5.310   1.583   1.801  0.00  0.00    +0.006 A 
ATOM      7  C   UNL     1       2.968   0.513   1.189  0.00  0.00    +0.085 C 
ATOM      8  C   UNL     1       3.460  -0.834   0.632  0.00  0.00    +0.066 C 
ATOM      9  C   UNL     1       2.864  -0.860  -0.795  0.00  0.00    -0.055 C 
ATOM     10  C   UNL     1       3.829  -1.607  -1.732  0.00  0.00    -0.016 C 
ATOM     11  C   UNL     1       4.777  -0.529  -2.294  0.00  0.00    -0.020 C 
ATOM     12  C   UNL     1       4.333   0.787  -1.625  0.00  0.00    -0.076 C 
ATOM     13  C   UNL     1       2.618   1.363  -0.026  0.00  0.00    +0.060 C 
ATOM     14  C   UNL     1       1.170   1.778  -0.009  0.00  0.00    -0.025 A 
ATOM     15  C   UNL     1      -0.013   1.073   0.001  0.00  0.00    +0.005 A 
ATOM     16  C   UNL     1      -1.220   1.748   0.008  0.00  0.00    +0.002 A 
ATOM     17  C   UNL     1      -1.236   3.131   0.017  0.00  0.00    +0.022 A 
ATOM     18  C   UNL     1      -0.052   3.841   0.007  0.00  0.00    +0.062 A 
ATOM     19  C   UNL     1       1.169   3.168  -0.006  0.00  0.00    +0.054 A 
ATOM     20  N   UNL     1       2.479   3.652  -0.018  0.00  0.00    -0.285 N 
ATOM     21  C   UNL     1       3.387   2.660  -0.030  0.00  0.00    +0.212 C 
ATOM     22  O   UNL     1       4.594   2.784  -0.043  0.00  0.00    -0.277 OA
ATOM     23 CL   UNL     1      -0.084   5.577   0.011  0.00  0.00    -0.082 Cl
ATOM     24  C   UNL     1       1.788   0.324   2.103  0.00  0.00    +0.228 C 
ATOM     25  O   UNL     1       0.718  -0.167   1.811  0.00  0.00    -0.275 OA
ATOM     26  N   UNL     1       2.150   0.805   3.308  0.00  0.00    -0.285 N 
ATOM     27  H   UNL     1       2.707   4.595  -0.017  0.00  0.00    +0.155 HD
ATOM     28  H   UNL     1       1.572   0.806   4.087  0.00  0.00    +0.155 HD
ATOM     29  N   UNL     1       2.945   0.533  -1.195  0.00  0.00    +0.395 N 
ATOM     30  H   UNL     1       2.292   0.731  -1.962  0.00  0.00    -0.079 HD
ENDROOT
BRANCH   8  31
ATOM     31  C   UNL     1       4.966  -0.872   0.582  0.00  0.00    +0.172 C 
ATOM     32  O   UNL     1       5.551  -0.465  -0.402  0.00  0.00    -0.291 OA
BRANCH  31  33
ATOM     33  C   UNL     1       5.697  -1.379   1.678  0.00  0.00    +0.055 A 
ATOM     34  C   UNL     1       7.074  -1.507   1.831  0.00  0.00    +0.019 A 
ATOM     35  C   UNL     1       7.523  -2.034   3.013  0.00  0.00    +0.008 A 
ATOM     36  C   UNL     1       6.620  -2.412   3.958  0.00  0.00    +0.046 A 
ATOM     37  S   UNL     1       5.095  -2.032   3.226  0.00  0.00    -0.094 S 
ENDBRANCH  31  33
ENDBRANCH   8  31
TORSDOF 2
