REMARK  Name = ZINC64871162
REMARK  5 active torsions:
REMARK  status: ('A' for Active; 'I' for Inactive)
REMARK    1  A    between atoms: C_6  and  C_7
REMARK    2  A    between atoms: C_7  and  N_8
REMARK    3  A    between atoms: C_14  and  C_21
REMARK    4  A    between atoms: C_24  and  C_28
REMARK    5  A    between atoms: C_31  and  C_34
REMARK                            x       y       z     vdW  Elec       q    Type
REMARK                         _______ _______ _______ _____ _____    ______ ____
ROOT
ATOM      1  N   UNL     1      -1.625  -0.950  -1.412  0.00  0.00    -0.256 N 
ATOM      2  C   UNL     1      -2.517  -0.111  -1.983  0.00  0.00    +0.265 A 
ATOM      3  O   UNL     1      -2.958   0.842  -1.370  0.00  0.00    -0.267 OA
ATOM      4  C   UNL     1      -2.941  -0.381  -3.368  0.00  0.00    +0.063 A 
ATOM      5  C   UNL     1      -3.856   0.437  -4.027  0.00  0.00    +0.016 A 
ATOM      6  C   UNL     1      -4.221   0.142  -5.324  0.00  0.00    +0.008 A 
ATOM      7  C   UNL     1      -3.682  -0.960  -5.971  0.00  0.00    -0.000 A 
ATOM      8  C   UNL     1      -2.774  -1.778  -5.329  0.00  0.00    +0.034 A 
ATOM      9  C   UNL     1      -2.396  -1.497  -4.026  0.00  0.00    +0.056 A 
ATOM     10  N   UNL     1      -1.486  -2.294  -3.345  0.00  0.00    -0.307 N 
ATOM     11  H   UNL     1      -1.101  -3.067  -3.786  0.00  0.00    +0.170 HD
ATOM     12  C   UNL     1      -1.129  -2.001  -2.083  0.00  0.00    +0.330 A 
ATOM     13  O   UNL     1      -0.325  -2.721  -1.523  0.00  0.00    -0.246 OA
ENDROOT
BRANCH   7  14
ATOM     14  C   UNL     1      -4.093  -1.267  -7.388  0.00  0.00    +0.242 C 
ATOM     15  N   UNL     1      -4.582  -2.661  -7.479  0.00  0.00    -0.265 NA
ATOM     16  C   UNL     1      -4.080  -3.135  -8.797  0.00  0.00    +0.180 C 
ATOM     17  N   UNL     1      -2.749  -2.475  -8.882  0.00  0.00    -0.177 NA
ATOM     18  O   UNL     1      -2.959  -1.152  -8.261  0.00  0.00    -0.274 OA
ATOM     19  H   UNL     1      -4.213  -3.224  -6.728  0.00  0.00    +0.127 HD
ATOM     20  H   UNL     1      -2.050  -3.004  -8.382  0.00  0.00    +0.156 HD
BRANCH  16  21
ATOM     21  C   UNL     1      -3.941  -4.635  -8.810  0.00  0.00    -0.014 A 
ATOM     22  C   UNL     1      -4.783  -5.414  -8.038  0.00  0.00    +0.007 A 
ATOM     23  C   UNL     1      -4.655  -6.790  -8.050  0.00  0.00    +0.013 A 
ATOM     24  C   UNL     1      -3.687  -7.388  -8.835  0.00  0.00    +0.055 A 
ATOM     25  C   UNL     1      -2.846  -6.610  -9.607  0.00  0.00    +0.013 A 
ATOM     26  C   UNL     1      -2.976  -5.233  -9.598  0.00  0.00    +0.007 A 
BRANCH  24  27
ATOM     27  C   UNL     1      -3.548  -8.889  -8.847  0.00  0.00    +0.417 C 
ATOM     28  F   UNL     1      -4.360  -9.424  -9.853  0.00  0.00    -0.166 F 
ATOM     29  F   UNL     1      -2.214  -9.231  -9.093  0.00  0.00    -0.166 F 
ATOM     30  F   UNL     1      -3.940  -9.404  -7.607  0.00  0.00    -0.166 F 
ENDBRANCH  24  27
ENDBRANCH  16  21
ENDBRANCH   7  14
BRANCH   1  31
ATOM     31  C   UNL     1      -1.187  -0.704  -0.036  0.00  0.00    +0.165 C 
BRANCH  31  37
ATOM     32  C   UNL     1      -0.129   1.564   0.002  0.00  0.00    +0.008 A 
ATOM     33  C   UNL     1       0.983   2.385  -0.008  0.00  0.00    +0.038 A 
ATOM     34  C   UNL     1       2.251   1.833  -0.068  0.00  0.00    +0.123 A 
ATOM     35  C   UNL     1       2.404   0.457  -0.117  0.00  0.00    +0.038 A 
ATOM     36  C   UNL     1       1.291  -0.362  -0.106  0.00  0.00    +0.008 A 
ATOM     37  C   UNL     1       0.025   0.191  -0.047  0.00  0.00    -0.027 A 
ATOM     38  F   UNL     1       3.338   2.635  -0.078  0.00  0.00    -0.205 F 
ENDBRANCH  31  37
ENDBRANCH   1  31
TORSDOF 5
