REMARK  Name = ZINC40009020
REMARK  19 active torsions:
REMARK  status: ('A' for Active; 'I' for Inactive)
REMARK    1  A    between atoms: C_1  and  C_2
REMARK    2  A    between atoms: C_2  and  C_3
REMARK    3  A    between atoms: C_3  and  C_4
REMARK    4  A    between atoms: C_4  and  N_5
REMARK    5  A    between atoms: N_5  and  C_6
REMARK    6  A    between atoms: N_5  and  C_10
REMARK    7  A    between atoms: C_6  and  C_7
REMARK    8  A    between atoms: C_7  and  C_8
REMARK    9  A    between atoms: C_8  and  C_9
REMARK   10  A    between atoms: C_10  and  C_11
REMARK   11  A    between atoms: C_11  and  C_12
REMARK   12  A    between atoms: C_12  and  N_13
REMARK   13  A    between atoms: C_14  and  C_31
REMARK   14  A    between atoms: C_21  and  C_30
REMARK   15  A    between atoms: C_22  and  C_29
REMARK   16  A    between atoms: C_34  and  O_37
REMARK   17  A    between atoms: O_37  and  C_38
REMARK   18  A    between atoms: C_38  and  C_39
REMARK   19  A    between atoms: C_39  and  C_40
REMARK                            x       y       z     vdW  Elec       q    Type
REMARK                         _______ _______ _______ _____ _____    ______ ____
ROOT
ATOM      1  N   UNL     1       2.865  -6.561  -5.123  0.00  0.00    -0.284 N 
ATOM      2  C   UNL     1       2.398  -6.687  -6.514  0.00  0.00    +0.144 C 
ATOM      3  C   UNL     1       3.565  -7.205  -7.290  0.00  0.00    +0.072 A 
ATOM      4  C   UNL     1       3.709  -7.538  -8.711  0.00  0.00    +0.199 A 
ATOM      5  O   UNL     1       2.870  -7.262  -9.549  0.00  0.00    -0.287 OA
ATOM      6  C   UNL     1       4.976  -8.244  -9.030  0.00  0.00    +0.065 A 
ATOM      7  C   UNL     1       5.174  -8.803 -10.292  0.00  0.00    +0.019 A 
ATOM      8  C   UNL     1       6.344  -9.455 -10.568  0.00  0.00    -0.047 A 
ATOM      9  C   UNL     1       7.331  -9.560  -9.598  0.00  0.00    -0.044 A 
ATOM     10  C   UNL     1       7.153  -9.012  -8.348  0.00  0.00    +0.050 A 
ATOM     11  C   UNL     1       5.969  -8.341  -8.041  0.00  0.00    +0.140 A 
ATOM     12  O   UNL     1       5.819  -7.802  -6.810  0.00  0.00    -0.450 OA
ATOM     13  C   UNL     1       4.608  -7.356  -6.421  0.00  0.00    +0.199 A 
ATOM     14  C   UNL     1       4.156  -6.948  -5.080  0.00  0.00    +0.283 C 
ATOM     15  O   UNL     1       4.845  -6.962  -4.079  0.00  0.00    -0.267 OA
ATOM     16  C   UNL     1       8.614 -10.284  -9.918  0.00  0.00    +0.044 C 
ATOM     17  C   UNL     1       6.562 -10.060 -11.931  0.00  0.00    +0.044 C 
ENDROOT
BRANCH   2  18
ATOM     18  C   UNL     1       1.974  -5.342  -7.045  0.00  0.00    -0.022 A 
ATOM     19  C   UNL     1       2.716  -4.215  -6.739  0.00  0.00    +0.009 A 
ATOM     20  C   UNL     1       2.329  -2.981  -7.224  0.00  0.00    +0.046 A 
ATOM     21  C   UNL     1       1.197  -2.872  -8.018  0.00  0.00    +0.121 A 
ATOM     22  C   UNL     1       0.455  -4.004  -8.323  0.00  0.00    +0.046 A 
ATOM     23  C   UNL     1       0.849  -5.237  -7.840  0.00  0.00    +0.009 A 
BRANCH  21  24
ATOM     24  O   UNL     1       0.815  -1.658  -8.496  0.00  0.00    -0.492 OA
BRANCH  24  25
ATOM     25  C   UNL     1      -0.361  -1.621  -9.307  0.00  0.00    +0.229 C 
BRANCH  25  26
ATOM     26  C   UNL     1      -0.632  -0.182  -9.748  0.00  0.00    +0.038 C 
ATOM     27  C   UNL     1      -1.891  -0.142 -10.617  0.00  0.00    +0.007 C 
ENDBRANCH  25  26
ENDBRANCH  24  25
ENDBRANCH  21  24
ENDBRANCH   2  18
BRANCH   1  28
ATOM     28  C   UNL     1       2.068  -6.091  -3.988  0.00  0.00    +0.107 C 
BRANCH  28  29
ATOM     29  C   UNL     1       2.206  -4.572  -3.861  0.00  0.00    +0.000 C 
BRANCH  29  30
ATOM     30  C   UNL     1       1.374  -4.081  -2.675  0.00  0.00    -0.077 C 
BRANCH  30  31
ATOM     31  N   UNL     1       1.604  -2.644  -2.477  0.00  0.00    +0.380 N 
ATOM     32  H   UNL     1       2.594  -2.473  -2.375  0.00  0.00    -0.082 HD
BRANCH  31  33
ATOM     33  C   UNL     1       1.096  -1.902  -3.638  0.00  0.00    -0.079 C 
BRANCH  33  34
ATOM     34  C   UNL     1       1.446  -0.420  -3.490  0.00  0.00    -0.019 C 
BRANCH  34  36
ATOM     35  C   UNL     1       1.267   1.835  -4.551  0.00  0.00    +0.004 C 
ATOM     36  C   UNL     1       0.916   0.353  -4.699  0.00  0.00    -0.005 C 
ENDBRANCH  34  36
ENDBRANCH  33  34
ENDBRANCH  31  33
BRANCH  31  37
ATOM     37  C   UNL     1       0.903  -2.198  -1.265  0.00  0.00    -0.079 C 
BRANCH  37  38
ATOM     38  C   UNL     1       1.539  -2.853  -0.037  0.00  0.00    -0.019 C 
BRANCH  38  39
ATOM     39  C   UNL     1       0.762  -2.449   1.217  0.00  0.00    -0.005 C 
ATOM     40  C   UNL     1       1.398  -3.103   2.445  0.00  0.00    +0.004 C 
ENDBRANCH  38  39
ENDBRANCH  37  38
ENDBRANCH  31  37
ENDBRANCH  30  31
ENDBRANCH  29  30
ENDBRANCH  28  29
ENDBRANCH   1  28
TORSDOF 14
