REMARK  Name = ZINC14464383
REMARK  5 active torsions:
REMARK  status: ('A' for Active; 'I' for Inactive)
REMARK    1  A    between atoms: C_1  and  C_2
REMARK    2  A    between atoms: C_2  and  C_4
REMARK    3  A    between atoms: C_4  and  O_5
REMARK    4  A    between atoms: O_5  and  C_6
REMARK    5  A    between atoms: C_13  and  C_22
REMARK                            x       y       z     vdW  Elec       q    Type
REMARK                         _______ _______ _______ _____ _____    ______ ____
ROOT
ATOM      1  C   UNL     1      -3.393  -1.403  -0.290  0.00  0.00    +0.142 A 
ATOM      2  C   UNL     1      -4.695  -0.944  -0.296  0.00  0.00    +0.047 A 
ATOM      3  C   UNL     1      -5.746  -1.833  -0.168  0.00  0.00    +0.004 A 
ATOM      4  C   UNL     1      -5.487  -3.183  -0.025  0.00  0.00    +0.006 A 
ATOM      5  C   UNL     1      -4.189  -3.651  -0.013  0.00  0.00    -0.016 A 
ATOM      6  C   UNL     1      -3.116  -2.770  -0.161  0.00  0.00    +0.074 A 
ATOM      7  N   UNL     1      -1.778  -3.164  -0.194  0.00  0.00    -0.334 N 
ATOM      8  C   UNL     1      -1.503  -4.591   0.038  0.00  0.00    +0.106 C 
ATOM      9  C   UNL     1      -2.590  -5.374  -0.667  0.00  0.00    +0.029 C 
ATOM     10  C   UNL     1      -3.882  -5.088   0.160  0.00  0.00    +0.049 C 
ATOM     11  C   UNL     1      -4.798  -6.161  -0.302  0.00  0.00    -0.023 C 
ATOM     12  C   UNL     1      -4.069  -7.211  -0.664  0.00  0.00    -0.030 C 
ATOM     13  C   UNL     1      -2.580  -6.894  -0.502  0.00  0.00    +0.033 C 
ATOM     14  H   UNL     1      -1.331  -2.843  -1.040  0.00  0.00    +0.147 HD
ENDROOT
BRANCH   8  15
ATOM     15  C   UNL     1      -0.156  -4.955  -0.531  0.00  0.00    -0.019 A 
ATOM     16  C   UNL     1      -0.069  -5.585  -1.735  0.00  0.00    +0.006 A 
ATOM     17  C   UNL     1       1.167  -5.923  -2.281  0.00  0.00    +0.001 A 
ATOM     18  C   UNL     1       2.325  -5.643  -1.621  0.00  0.00    +0.008 A 
ATOM     19  C   UNL     1       2.275  -4.999  -0.373  0.00  0.00    -0.018 A 
ATOM     20  C   UNL     1       1.017  -4.649   0.179  0.00  0.00    -0.013 A 
ATOM     21  C   UNL     1       0.968  -4.005   1.427  0.00  0.00    +0.009 A 
ATOM     22  C   UNL     1       2.125  -3.727   2.087  0.00  0.00    +0.001 A 
ATOM     23  C   UNL     1       3.362  -4.071   1.544  0.00  0.00    +0.001 A 
ATOM     24  C   UNL     1       3.449  -4.695   0.338  0.00  0.00    +0.008 A 
ENDBRANCH   8  15
BRANCH   1  25
ATOM     25  O   UNL     1      -2.367  -0.519  -0.415  0.00  0.00    -0.486 OA
BRANCH  25  26
ATOM     26  C   UNL     1      -2.713   0.861  -0.549  0.00  0.00    +0.259 C 
BRANCH  26  28
ATOM     27  C   UNL     1      -1.549   3.180  -0.830  0.00  0.00    +0.042 C 
ATOM     28  C   UNL     1      -1.457   1.684  -0.676  0.00  0.00    -0.043 C 
ATOM     29  C   UNL     1      -0.285   1.099  -0.652  0.00  0.00    +0.011 C 
ENDBRANCH  26  28
ENDBRANCH  25  26
ENDBRANCH   1  25
TORSDOF 4
