REMARK  Name = ZINC64701281
REMARK  9 active torsions:
REMARK  status: ('A' for Active; 'I' for Inactive)
REMARK    1  A    between atoms: C_1  and  C_2
REMARK    2  A    between atoms: C_2  and  C_3
REMARK    3  A    between atoms: C_2  and  C_4
REMARK    4  A    between atoms: C_7  and  C_10
REMARK    5  A    between atoms: C_18  and  S_22
REMARK    6  A    between atoms: S_22  and  C_23
REMARK    7  A    between atoms: C_23  and  C_24
REMARK    8  A    between atoms: N_26  and  C_27
REMARK    9  A    between atoms: C_27  and  C_28
REMARK                            x       y       z     vdW  Elec       q    Type
REMARK                         _______ _______ _______ _____ _____    ______ ____
ROOT
ATOM      1  C   UNL     1      -5.309  -1.587   0.335  0.00  0.00    +0.047 C 
ATOM      2  C   UNL     1      -5.702  -2.479  -0.604  0.00  0.00    +0.027 C 
ATOM      3  C   UNL     1      -7.113  -2.829  -0.215  0.00  0.00    +0.193 C 
ATOM      4  C   UNL     1      -7.504  -4.270  -0.341  0.00  0.00    +0.276 C 
ATOM      5  O   UNL     1      -7.027  -4.989  -1.186  0.00  0.00    -0.270 OA
ATOM      6  N   UNL     1      -8.425  -4.722   0.549  0.00  0.00    -0.081 NA
ATOM      7  N   UNL     1      -8.851  -4.052   1.492  0.00  0.00    -0.163 NA
ATOM      8  C   UNL     1      -8.385  -2.687   1.796  0.00  0.00    +0.272 C 
ATOM      9  N   UNL     1      -7.052  -2.547   1.255  0.00  0.00    -0.178 NA
ATOM     10  N   UNL     1      -6.358  -1.390   1.264  0.00  0.00    -0.274 N 
ATOM     11  H   UNL     1      -6.540  -0.597   1.792  0.00  0.00    +0.167 HD
ENDROOT
BRANCH   1  15
ATOM     12  C   UNL     1      -1.510   0.312   0.478  0.00  0.00    -0.045 A 
ATOM     13  C   UNL     1      -2.456   0.590   1.449  0.00  0.00    +0.004 A 
ATOM     14  C   UNL     1      -3.691  -0.024   1.407  0.00  0.00    +0.010 A 
ATOM     15  C   UNL     1      -3.985  -0.925   0.384  0.00  0.00    -0.003 A 
ATOM     16  C   UNL     1      -3.027  -1.200  -0.591  0.00  0.00    +0.010 A 
ATOM     17  C   UNL     1      -1.798  -0.576  -0.542  0.00  0.00    +0.004 A 
BRANCH  12  19
ATOM     18  C   UNL     1      -0.348   2.503   0.452  0.00  0.00    +0.012 C 
ATOM     19  C   UNL     1      -0.163   0.986   0.529  0.00  0.00    +0.013 C 
ATOM     20  C   UNL     1       0.540   0.624   1.839  0.00  0.00    +0.012 C 
ENDBRANCH  12  19
ENDBRANCH   1  15
BRANCH   8  21
ATOM     21  S   UNL     1      -9.478  -1.471   1.011  0.00  0.00    -0.107 S 
BRANCH  21  22
ATOM     22  C   UNL     1     -10.966  -1.485   2.048  0.00  0.00    +0.168 C 
BRANCH  22  23
ATOM     23  C   UNL     1     -11.947  -0.464   1.533  0.00  0.00    +0.223 C 
ATOM     24  O   UNL     1     -11.670   0.207   0.562  0.00  0.00    -0.275 OA
ATOM     25  N   UNL     1     -13.133  -0.297   2.152  0.00  0.00    -0.311 N 
ATOM     26  H   UNL     1     -13.355  -0.834   2.928  0.00  0.00    +0.149 HD
BRANCH  25  27
ATOM     27  C   UNL     1     -14.087   0.696   1.651  0.00  0.00    +0.139 C 
BRANCH  27  28
ATOM     28  C   UNL     1     -15.323   0.684   2.512  0.00  0.00    -0.030 A 
ATOM     29  C   UNL     1     -16.376  -0.154   2.198  0.00  0.00    +0.008 A 
ATOM     30  C   UNL     1     -17.510  -0.167   2.988  0.00  0.00    +0.038 A 
ATOM     31  C   UNL     1     -17.592   0.662   4.094  0.00  0.00    +0.123 A 
ATOM     32  C   UNL     1     -16.536   1.502   4.408  0.00  0.00    +0.038 A 
ATOM     33  C   UNL     1     -15.401   1.508   3.620  0.00  0.00    +0.008 A 
ATOM     34  F   UNL     1     -18.700   0.651   4.867  0.00  0.00    -0.205 F 
ENDBRANCH  27  28
ENDBRANCH  25  27
ENDBRANCH  22  23
ENDBRANCH  21  22
ENDBRANCH   8  21
TORSDOF 7
