REMARK  Name = ZINC39420830
REMARK  5 active torsions:
REMARK  status: ('A' for Active; 'I' for Inactive)
REMARK    1  A    between atoms: C_7  and  C_10
REMARK    2  A    between atoms: C_10  and  C_11
REMARK    3  A    between atoms: C_11  and  N_12
REMARK    4  A    between atoms: C_25  and  N_29
REMARK    5  A    between atoms: N_29  and  C_30
REMARK                            x       y       z     vdW  Elec       q    Type
REMARK                         _______ _______ _______ _____ _____    ______ ____
ROOT
ATOM      1  N   UNL     1      -4.962   5.047  -1.362  0.00  0.00    -0.262 N 
ATOM      2  C   UNL     1      -6.323   5.271  -1.446  0.00  0.00    +0.186 C 
ATOM      3  N   UNL     1      -6.819   6.338  -2.016  0.00  0.00    -0.261 NA
ATOM      4  C   UNL     1      -5.845   7.281  -2.537  0.00  0.00    +0.184 C 
ATOM      5  C   UNL     1      -4.791   7.428  -1.391  0.00  0.00    +0.137 C 
ATOM      6  C   UNL     1      -4.106   6.117  -1.260  0.00  0.00    +0.230 C 
ATOM      7  O   UNL     1      -2.912   6.001  -1.085  0.00  0.00    -0.274 OA
ATOM      8  C   UNL     1      -4.045   8.699  -1.531  0.00  0.00    -0.046 C 
ATOM      9  C   UNL     1      -4.744   9.706  -2.085  0.00  0.00    -0.014 C 
ATOM     10  S   UNL     1      -6.381   9.035  -2.526  0.00  0.00    -0.102 S 
ATOM     11  C   UNL     1      -4.277  11.111  -2.304  0.00  0.00    +0.026 C 
ATOM     12  C   UNL     1      -2.988  11.337  -1.502  0.00  0.00    -0.066 C 
ATOM     13  C   UNL     1      -2.043  10.159  -1.761  0.00  0.00    -0.011 C 
ATOM     14  C   UNL     1      -2.600   8.901  -1.094  0.00  0.00    +0.031 C 
ENDROOT
BRANCH  12  15
ATOM     15  N   UNL     1      -2.352  12.589  -1.931  0.00  0.00    +0.383 N 
ATOM     16  H   UNL     1      -1.465  12.694  -1.462  0.00  0.00    -0.085 HD
ATOM     17  H   UNL     1      -2.204  12.567  -2.929  0.00  0.00    -0.085 HD
BRANCH  15  18
ATOM     18  C   UNL     1      -3.223  13.722  -1.590  0.00  0.00    -0.071 C 
ATOM     19  C   UNL     1      -3.260  13.936  -0.057  0.00  0.00    -0.016 C 
ATOM     20  C   UNL     1      -3.664  15.425   0.071  0.00  0.00    -0.002 C 
ATOM     21  C   UNL     1      -2.917  16.121  -1.085  0.00  0.00    -0.002 C 
ATOM     22  C   UNL     1      -2.636  15.039  -2.141  0.00  0.00    -0.016 C 
ENDBRANCH  15  18
ENDBRANCH  12  15
BRANCH   1  23
ATOM     23  C   UNL     1      -4.437   3.680  -1.374  0.00  0.00    +0.119 C 
BRANCH  23  24
ATOM     24  C   UNL     1      -4.358   3.151   0.060  0.00  0.00    +0.056 C 
BRANCH  24  31
ATOM     25  C   UNL     1      -0.017   1.384   0.010  0.00  0.00    +0.001 A 
ATOM     26  C   UNL     1       0.002  -0.004   0.002  0.00  0.00    +0.002 A 
ATOM     27  C   UNL     1      -1.173  -0.723   0.009  0.00  0.00    +0.026 A 
ATOM     28  C   UNL     1      -2.392  -0.053   0.024  0.00  0.00    +0.047 A 
ATOM     29  N   UNL     1      -3.704  -0.472   0.034  0.00  0.00    -0.360 N 
ATOM     30  C   UNL     1      -4.539   0.612   0.047  0.00  0.00    +0.087 A 
ATOM     31  C   UNL     1      -3.818   1.744   0.047  0.00  0.00    -0.021 A 
ATOM     32  C   UNL     1      -2.406   1.353   0.032  0.00  0.00    +0.003 A 
ATOM     33  C   UNL     1      -1.203   2.062   0.030  0.00  0.00    +0.010 A 
ATOM     34  H   UNL     1      -3.993  -1.398   0.030  0.00  0.00    +0.165 HD
ENDBRANCH  24  31
ENDBRANCH  23  24
ENDBRANCH   1  23
TORSDOF 5
