REMARK  Name = ZINC33708616
REMARK  8 active torsions:
REMARK  status: ('A' for Active; 'I' for Inactive)
REMARK    1  A    between atoms: C_4  and  O_40
REMARK    2  A    between atoms: C_5  and  C_7
REMARK    3  A    between atoms: N_15  and  C_18
REMARK    4  A    between atoms: C_22  and  N_24
REMARK    5  A    between atoms: C_27  and  C_29
REMARK    6  A    between atoms: C_27  and  C_37
REMARK    7  A    between atoms: C_29  and  C_30
REMARK    8  A    between atoms: C_33  and  O_36
REMARK                            x       y       z     vdW  Elec       q    Type
REMARK                         _______ _______ _______ _____ _____    ______ ____
ROOT
ATOM      1  C   UNL     1      -2.513   0.979   0.019  0.00  0.00    -0.023 C 
ATOM      2  C   UNL     1      -3.072   0.913   1.379  0.00  0.00    +0.077 C 
ATOM      3  C   UNL     1      -2.304  -0.316   2.014  0.00  0.00    +0.086 C 
ATOM      4  C   UNL     1      -3.147  -0.396   3.257  0.00  0.00    +0.229 C 
ATOM      5  O   UNL     1      -3.481  -1.397   3.852  0.00  0.00    -0.275 OA
ATOM      6  N   UNL     1      -3.456   0.896   3.577  0.00  0.00    -0.210 N 
ATOM      7  C   UNL     1      -3.245   1.766   2.535  0.00  0.00    +0.229 C 
ATOM      8  O   UNL     1      -3.210   2.977   2.576  0.00  0.00    -0.275 OA
ATOM      9  C   UNL     1      -2.573  -1.289   0.860  0.00  0.00    +0.052 C 
ATOM     10  N   UNL     1      -2.271  -0.455  -0.350  0.00  0.00    +0.396 N 
ATOM     11  H   UNL     1      -2.930  -0.736  -1.185  0.00  0.00    -0.083 HD
ATOM     12  H   UNL     1      -1.221  -0.583  -0.653  0.00  0.00    -0.083 HD
ENDROOT
BRANCH   1  17
ATOM     13  C   UNL     1       1.175   1.783   0.000  0.00  0.00    +0.000 A 
ATOM     14  C   UNL     1       1.160   3.165   0.008  0.00  0.00    +0.004 A 
ATOM     15  C   UNL     1      -0.043   3.844   0.024  0.00  0.00    +0.045 A 
ATOM     16  C   UNL     1      -1.237   3.137   0.031  0.00  0.00    +0.118 A 
ATOM     17  C   UNL     1      -1.219   1.750   0.017  0.00  0.00    -0.019 A 
ATOM     18  C   UNL     1      -0.013   1.076   0.008  0.00  0.00    +0.005 A 
BRANCH  16  19
ATOM     19  O   UNL     1      -2.422   3.802   0.047  0.00  0.00    -0.507 OA
ATOM     20  H   UNL     1      -3.368   3.240   0.053  0.00  0.00    +0.292 HD
ENDBRANCH  16  19
ENDBRANCH   1  17
BRANCH   6  21
ATOM     21  C   UNL     1      -3.937   1.292   4.833  0.00  0.00    +0.046 A 
ATOM     22  C   UNL     1      -4.122   0.349   5.835  0.00  0.00    +0.024 A 
ATOM     23  C   UNL     1      -4.596   0.741   7.071  0.00  0.00    +0.004 A 
ATOM     24  C   UNL     1      -4.886   2.072   7.312  0.00  0.00    +0.033 A 
ATOM     25  C   UNL     1      -4.702   3.013   6.316  0.00  0.00    +0.128 A 
ATOM     26  C   UNL     1      -4.223   2.627   5.079  0.00  0.00    +0.056 A 
BRANCH  25  27
ATOM     27  N   UNL     1      -5.012   4.436   6.578  0.00  0.00    +0.056 N 
ATOM     28  O   UNL     1      -5.429   4.778   7.670  0.00  0.00    -0.126 OA
ATOM     29  O   UNL     1      -4.850   5.266   5.701  0.00  0.00    -0.126 OA
ENDBRANCH  25  27
ENDBRANCH   6  21
BRANCH   9  30
ATOM     30  C   UNL     1      -4.013  -1.735   0.861  0.00  0.00    +0.347 C 
ATOM     31  O   UNL     1      -4.650  -1.716   1.887  0.00  0.00    -0.248 OA
ATOM     32  O   UNL     1      -4.587  -2.152  -0.279  0.00  0.00    -0.248 OA
ENDBRANCH   9  30
BRANCH   9  33
ATOM     33  C   UNL     1      -1.634  -2.494   0.936  0.00  0.00    +0.035 C 
BRANCH  33  34
ATOM     34  C   UNL     1      -1.838  -3.368  -0.275  0.00  0.00    -0.048 A 
ATOM     35  C   UNL     1      -2.769  -4.390  -0.240  0.00  0.00    +0.007 A 
ATOM     36  C   UNL     1      -2.962  -5.189  -1.350  0.00  0.00    +0.045 A 
ATOM     37  C   UNL     1      -2.212  -4.972  -2.498  0.00  0.00    +0.117 A 
ATOM     38  C   UNL     1      -1.275  -3.950  -2.528  0.00  0.00    +0.045 A 
ATOM     39  C   UNL     1      -1.090  -3.150  -1.417  0.00  0.00    +0.007 A 
BRANCH  37  40
ATOM     40  O   UNL     1      -2.396  -5.760  -3.589  0.00  0.00    -0.507 OA
ATOM     41  H   UNL     1      -1.801  -5.588  -4.498  0.00  0.00    +0.292 HD
ENDBRANCH  37  40
ENDBRANCH  33  34
ENDBRANCH   9  33
TORSDOF 8
