REMARK  Name = ZINC39685112
REMARK  7 active torsions:
REMARK  status: ('A' for Active; 'I' for Inactive)
REMARK    1  A    between atoms: C_1  and  C_2
REMARK    2  A    between atoms: C_4  and  C_9
REMARK    3  A    between atoms: C_13  and  C_22
REMARK    4  A    between atoms: N_24  and  C_25
REMARK    5  A    between atoms: C_25  and  C_26
REMARK    6  A    between atoms: C_26  and  O_27
REMARK    7  A    between atoms: O_27  and  C_28
REMARK                            x       y       z     vdW  Elec       q    Type
REMARK                         _______ _______ _______ _____ _____    ______ ____
ROOT
ATOM      1  C   UNL     1       0.022  -2.820  -2.500  0.00  0.00    +0.247 C 
ATOM      2  O   UNL     1       0.086  -2.210  -1.451  0.00  0.00    -0.270 OA
ATOM      3  N   UNL     1      -0.059  -4.165  -2.494  0.00  0.00    -0.296 N 
ATOM      4  C   UNL     1      -0.164  -5.063  -1.320  0.00  0.00    +0.121 C 
ATOM      5  C   UNL     1      -1.161  -6.160  -1.756  0.00  0.00    +0.100 C 
ATOM      6  C   UNL     1      -1.090  -6.167  -3.292  0.00  0.00    -0.004 C 
ATOM      7  C   UNL     1      -0.070  -5.080  -3.661  0.00  0.00    +0.115 C 
ATOM      8  C   UNL     1      -0.616  -7.529  -3.792  0.00  0.00    -0.010 C 
ATOM      9  C   UNL     1      -0.608  -7.530  -5.324  0.00  0.00    -0.082 C 
ATOM     10  N   UNL     1      -1.960  -7.247  -5.822  0.00  0.00    +0.379 N 
ATOM     11  C   UNL     1      -2.371  -5.898  -5.414  0.00  0.00    -0.082 C 
ATOM     12  C   UNL     1      -2.453  -5.828  -3.886  0.00  0.00    -0.010 C 
ATOM     13  H   UNL     1      -1.965  -7.309  -6.829  0.00  0.00    -0.086 HD
ATOM     14  H   UNL     1      -2.605  -7.923  -5.443  0.00  0.00    -0.086 HD
ENDROOT
BRANCH   1  18
ATOM     15  C   UNL     1      -1.208   1.203  -5.184  0.00  0.00    +0.045 C 
ATOM     16  C   UNL     1      -0.555  -0.151  -5.079  0.00  0.00    -0.036 A 
ATOM     17  C   UNL     1      -0.570  -0.832  -3.879  0.00  0.00    +0.017 A 
ATOM     18  C   UNL     1       0.035  -2.086  -3.783  0.00  0.00    +0.037 A 
ATOM     19  C   UNL     1       0.652  -2.644  -4.904  0.00  0.00    +0.014 A 
ATOM     20  C   UNL     1       0.661  -1.954  -6.098  0.00  0.00    +0.016 A 
ATOM     21  C   UNL     1       0.054  -0.713  -6.188  0.00  0.00    +0.021 A 
ATOM     22 BR   UNL     1       0.064   0.223  -7.832  0.00  0.00    -0.050 Br
ENDBRANCH   1  18
BRANCH   5  23
ATOM     23  C   UNL     1      -2.554  -5.815  -1.295  0.00  0.00    +0.218 C 
ATOM     24  O   UNL     1      -2.914  -4.658  -1.265  0.00  0.00    -0.275 OA
ATOM     25  N   UNL     1      -3.400  -6.794  -0.917  0.00  0.00    -0.312 N 
ATOM     26  H   UNL     1      -3.112  -7.720  -0.941  0.00  0.00    +0.149 HD
BRANCH  25  27
ATOM     27  C   UNL     1      -4.754  -6.459  -0.469  0.00  0.00    +0.145 C 
BRANCH  27  28
ATOM     28  C   UNL     1      -5.501  -7.743  -0.100  0.00  0.00    +0.248 C 
BRANCH  28  29
ATOM     29  O   UNL     1      -4.870  -8.354   1.028  0.00  0.00    -0.488 OA
BRANCH  29  30
ATOM     30  C   UNL     1      -5.414  -9.512   1.487  0.00  0.00    +0.156 A 
ATOM     31  C   UNL     1      -6.528 -10.052   0.862  0.00  0.00    +0.048 A 
ATOM     32  C   UNL     1      -7.079 -11.229   1.330  0.00  0.00    +0.004 A 
ATOM     33  C   UNL     1      -6.522 -11.870   2.421  0.00  0.00    +0.003 A 
ATOM     34  C   UNL     1      -5.412 -11.335   3.048  0.00  0.00    +0.042 A 
ATOM     35  C   UNL     1      -4.851 -10.160   2.579  0.00  0.00    +0.165 A 
ATOM     36  F   UNL     1      -3.763  -9.640   3.187  0.00  0.00    -0.202 F 
ENDBRANCH  29  30
ENDBRANCH  28  29
ENDBRANCH  27  28
ENDBRANCH  25  27
ENDBRANCH   5  23
TORSDOF 6
