REMARK  Name = ZINC13372139
REMARK  12 active torsions:
REMARK  status: ('A' for Active; 'I' for Inactive)
REMARK    1  A    between atoms: C_1  and  C_2
REMARK    2  A    between atoms: C_2  and  C_3
REMARK    3  A    between atoms: C_3  and  C_4
REMARK    4  A    between atoms: C_5  and  C_19
REMARK    5  A    between atoms: C_6  and  O_18
REMARK    6  A    between atoms: N_7  and  C_9
REMARK    7  A    between atoms: C_12  and  N_15
REMARK    8  A    between atoms: N_20  and  C_21
REMARK    9  A    between atoms: C_21  and  C_22
REMARK   10  A    between atoms: C_22  and  C_23
REMARK   11  A    between atoms: C_26  and  S_29
REMARK   12  A    between atoms: S_29  and  N_32
REMARK                            x       y       z     vdW  Elec       q    Type
REMARK                         _______ _______ _______ _____ _____    ______ ____
ROOT
ATOM      1  C   UNL     1       0.739  -2.004  -1.265  0.00  0.00    +0.076 A 
ATOM      2  C   UNL     1       1.745  -2.823  -0.701  0.00  0.00    +0.075 A 
ATOM      3  C   UNL     1       1.373  -4.142  -0.931  0.00  0.00    +0.225 A 
ATOM      4  N   UNL     1       0.200  -4.114  -1.600  0.00  0.00    -0.200 N 
ATOM      5  N   UNL     1      -0.171  -2.779  -1.788  0.00  0.00    -0.168 NA
ENDROOT
BRANCH   4   6
ATOM      6  C   UNL     1      -0.525  -5.234  -2.029  0.00  0.00    +0.069 A 
ATOM      7  C   UNL     1       0.143  -6.376  -2.451  0.00  0.00    +0.030 A 
ATOM      8  C   UNL     1      -0.574  -7.478  -2.873  0.00  0.00    +0.035 A 
ATOM      9  C   UNL     1      -1.956  -7.445  -2.877  0.00  0.00    +0.126 A 
ATOM     10  C   UNL     1      -2.625  -6.310  -2.457  0.00  0.00    +0.035 A 
ATOM     11  C   UNL     1      -1.913  -5.207  -2.027  0.00  0.00    +0.030 A 
BRANCH   9  12
ATOM     12  N   UNL     1      -2.722  -8.628  -3.330  0.00  0.00    +0.056 N 
ATOM     13  O   UNL     1      -2.139  -9.621  -3.698  0.00  0.00    -0.126 OA
ATOM     14  O   UNL     1      -3.931  -8.601  -3.334  0.00  0.00    -0.126 OA
ENDBRANCH   9  12
ENDBRANCH   4   6
BRANCH   2  15
ATOM     15  C   UNL     1       2.955  -2.365  -0.005  0.00  0.00    +0.093 C 
ATOM     16  N   UNL     1       3.798  -3.231   0.466  0.00  0.00    -0.389 N 
ATOM     17  H   UNL     1       3.631  -4.180   0.358  0.00  0.00    +0.159 HD
BRANCH  16  18
ATOM     18  C   UNL     1       5.005  -2.774   1.160  0.00  0.00    +0.117 C 
BRANCH  18  19
ATOM     19  C   UNL     1       4.945  -3.209   2.626  0.00  0.00    +0.056 C 
BRANCH  19  20
ATOM     20  C   UNL     1       6.186  -2.740   3.340  0.00  0.00    -0.046 A 
ATOM     21  C   UNL     1       7.308  -3.548   3.381  0.00  0.00    +0.005 A 
ATOM     22  C   UNL     1       8.446  -3.117   4.036  0.00  0.00    +0.029 A 
ATOM     23  C   UNL     1       8.464  -1.879   4.650  0.00  0.00    +0.105 A 
ATOM     24  C   UNL     1       7.343  -1.070   4.608  0.00  0.00    +0.029 A 
ATOM     25  C   UNL     1       6.206  -1.499   3.949  0.00  0.00    +0.005 A 
BRANCH  23  26
ATOM     26  S   UNL     1       9.915  -1.330   5.486  0.00  0.00    +0.056 S 
ATOM     27  O   UNL     1       9.493  -0.368   6.442  0.00  0.00    -0.153 OA
ATOM     28  O   UNL     1      10.640  -2.497   5.848  0.00  0.00    -0.153 OA
BRANCH  26  29
ATOM     29  N   UNL     1      10.842  -0.521   4.378  0.00  0.00    -0.204 NA
ATOM     30  H   UNL     1      10.535  -0.431   3.462  0.00  0.00    +0.144 HD
ATOM     31  H   UNL     1      11.692  -0.138   4.644  0.00  0.00    +0.144 HD
ENDBRANCH  26  29
ENDBRANCH  23  26
ENDBRANCH  19  20
ENDBRANCH  18  19
ENDBRANCH  16  18
ENDBRANCH   2  15
BRANCH   3  32
ATOM     32  O   UNL     1       2.058  -5.248  -0.554  0.00  0.00    -0.492 OA
ATOM     33  H   UNL     1       1.819  -5.579   0.322  0.00  0.00    +0.294 HD
ENDBRANCH   3  32
BRANCH   1  34
ATOM     34  C   UNL     1       0.718  -0.497  -1.257  0.00  0.00    +0.058 C 
BRANCH  34  36
ATOM     35  C   UNL     1      -0.019   1.526   0.010  0.00  0.00    +0.004 C 
ATOM     36  C   UNL     1       0.002  -0.004   0.002  0.00  0.00    +0.003 C 
ENDBRANCH  34  36
ENDBRANCH   1  34
TORSDOF 11
