REMARK  Name = ZINC38889287
REMARK  8 active torsions:
REMARK  status: ('A' for Active; 'I' for Inactive)
REMARK    1  A    between atoms: C_1  and  C_2
REMARK    2  A    between atoms: C_2  and  C_3
REMARK    3  A    between atoms: C_5  and  O_34
REMARK    4  A    between atoms: C_8  and  S_19
REMARK    5  A    between atoms: N_10  and  C_13
REMARK    6  A    between atoms: S_19  and  C_20
REMARK    7  A    between atoms: C_20  and  C_21
REMARK    8  A    between atoms: C_21  and  N_23
REMARK                            x       y       z     vdW  Elec       q    Type
REMARK                         _______ _______ _______ _____ _____    ______ ____
ROOT
ATOM      1  C   UNL     1       0.743  -0.427  -1.225  0.00  0.00    +0.118 C 
ATOM      2  C   UNL     1       0.931  -1.933  -1.424  0.00  0.00    +0.197 C 
ATOM      3  N   UNL     1       1.380  -2.167  -2.807  0.00  0.00    -0.264 NA
ATOM      4  C   UNL     1       0.301  -1.866  -3.754  0.00  0.00    +0.207 C 
ATOM      5  N   UNL     1      -0.236  -0.531  -3.513  0.00  0.00    -0.273 N 
ATOM      6  C   UNL     1      -0.062   0.133  -2.365  0.00  0.00    +0.224 C 
ATOM      7  O   UNL     1      -0.572   1.226  -2.240  0.00  0.00    -0.275 OA
ATOM      8  H   UNL     1       2.206  -1.627  -3.015  0.00  0.00    +0.127 HD
ENDROOT
BRANCH   5   9
ATOM      9  C   UNL     1      -1.003   0.113  -4.581  0.00  0.00    +0.078 C 
ATOM     10  C   UNL     1      -0.355   1.452  -4.938  0.00  0.00    +0.022 C 
ATOM     11  C   UNL     1      -1.156   2.126  -6.054  0.00  0.00    +0.002 C 
ATOM     12  C   UNL     1      -2.591   2.365  -5.578  0.00  0.00    +0.000 C 
ATOM     13  C   UNL     1      -3.239   1.026  -5.221  0.00  0.00    +0.002 C 
ATOM     14  C   UNL     1      -2.438   0.352  -4.106  0.00  0.00    +0.022 C 
ENDBRANCH   5   9
BRANCH   1  16
ATOM     15  C   UNL     1       0.880  -0.632   1.262  0.00  0.00    +0.005 C 
ATOM     16  C   UNL     1       0.006  -0.175   0.092  0.00  0.00    +0.013 C 
ENDBRANCH   1  16
BRANCH   2  17
ATOM     17  O   UNL     1      -0.309  -2.607  -1.197  0.00  0.00    -0.377 OA
ATOM     18  H   UNL     1      -0.261  -3.566  -1.307  0.00  0.00    +0.211 HD
ENDBRANCH   2  17
BRANCH   4  19
ATOM     19  S   UNL     1       0.950  -1.952  -5.446  0.00  0.00    -0.113 S 
BRANCH  19  20
ATOM     20  C   UNL     1       2.386  -0.843  -5.422  0.00  0.00    +0.170 C 
BRANCH  20  21
ATOM     21  C   UNL     1       2.947  -0.718  -6.815  0.00  0.00    +0.248 C 
ATOM     22  O   UNL     1       2.428  -1.318  -7.736  0.00  0.00    -0.273 OA
BRANCH  21  23
ATOM     23  N   UNL     1       4.009   0.049  -7.037  0.00  0.00    -0.156 NA
ATOM     24  C   UNL     1       4.505   0.160  -8.268  0.00  0.00    +0.164 A 
ATOM     25  N   UNL     1       5.577   0.888  -8.670  0.00  0.00    -0.335 N 
ATOM     26  H   UNL     1       6.080   1.410  -8.026  0.00  0.00    +0.168 HD
ATOM     27  C   UNL     1       5.950   0.884 -10.001  0.00  0.00    +0.055 A 
ATOM     28  C   UNL     1       7.010   1.555 -10.626  0.00  0.00    +0.027 A 
ATOM     29  C   UNL     1       7.223   1.424 -11.978  0.00  0.00    +0.002 A 
ATOM     30  C   UNL     1       6.400   0.630 -12.760  0.00  0.00    +0.001 A 
ATOM     31  C   UNL     1       5.346  -0.044 -12.167  0.00  0.00    +0.017 A 
ATOM     32  C   UNL     1       5.133   0.086 -10.815  0.00  0.00    +0.039 A 
ATOM     33  S   UNL     1       3.949  -0.575  -9.673  0.00  0.00    -0.052 S 
ENDBRANCH  21  23
ENDBRANCH  20  21
ENDBRANCH  19  20
ENDBRANCH   4  19
TORSDOF 7
