REMARK  Name = ZINC06443735
REMARK  10 active torsions:
REMARK  status: ('A' for Active; 'I' for Inactive)
REMARK    1  A    between atoms: C_1  and  C_2
REMARK    2  A    between atoms: C_12  and  C_14
REMARK    3  A    between atoms: C_14  and  C_16
REMARK    4  A    between atoms: C_14  and  N_68
REMARK    5  A    between atoms: N_20  and  C_21
REMARK    6  A    between atoms: C_21  and  C_22
REMARK    7  A    between atoms: C_28  and  C_29
REMARK    8  A    between atoms: C_28  and  N_68
REMARK    9  A    between atoms: C_36  and  C_37
REMARK   10  A    between atoms: C_36  and  N_68
REMARK                            x       y       z     vdW  Elec       q    Type
REMARK                         _______ _______ _______ _____ _____    ______ ____
ROOT
ATOM      1  C   UNL     1      -0.136   1.068   0.095  0.00  0.00    +0.040 C 
ENDROOT
BRANCH   1  13
ATOM      2  C   UNL     1      -3.376   1.845   5.761  0.00  0.00    +0.046 C 
ATOM      3  C   UNL     1      -1.904   1.897   5.440  0.00  0.00    -0.026 A 
ATOM      4  C   UNL     1      -0.987   2.147   6.439  0.00  0.00    +0.005 A 
ATOM      5  C   UNL     1       0.371   2.198   6.157  0.00  0.00    +0.001 A 
ATOM      6  C   UNL     1       0.825   2.003   4.883  0.00  0.00    +0.010 A 
ATOM      7  C   UNL     1      -0.088   1.748   3.854  0.00  0.00    -0.001 A 
ATOM      8  C   UNL     1      -1.466   1.696   4.136  0.00  0.00    +0.052 A 
ATOM      9  N   UNL     1      -2.361   1.445   3.118  0.00  0.00    -0.322 N 
ATOM     10  H   UNL     1      -3.310   1.409   3.314  0.00  0.00    +0.169 HD
ATOM     11  C   UNL     1      -1.938   1.255   1.856  0.00  0.00    +0.251 A 
ATOM     12  O   UNL     1      -2.757   1.041   0.980  0.00  0.00    -0.268 OA
ATOM     13  C   UNL     1      -0.567   1.292   1.521  0.00  0.00    +0.011 A 
ATOM     14  C   UNL     1       0.363   1.534   2.477  0.00  0.00    +0.017 A 
ENDBRANCH   1  13
BRANCH   1  15
ATOM     15  C   UNL     1      -0.471  -0.343  -0.315  0.00  0.00    +0.143 A 
ATOM     16  N   UNL     1      -1.627  -0.776  -0.757  0.00  0.00    -0.115 NA
ATOM     17  N   UNL     1      -1.513  -2.036  -1.001  0.00  0.00    -0.023 NA
ATOM     18  N   UNL     1      -0.317  -2.420  -0.719  0.00  0.00    -0.044 NA
ATOM     19  N   UNL     1       0.356  -1.405  -0.293  0.00  0.00    -0.228 N 
BRANCH  19  20
ATOM     20  C   UNL     1       1.757  -1.407   0.135  0.00  0.00    +0.178 C 
BRANCH  20  21
ATOM     21  C   UNL     1       1.838  -1.801   1.612  0.00  0.00    +0.140 C 
ATOM     22  C   UNL     1       3.298  -1.694   2.102  0.00  0.00    +0.035 C 
ATOM     23  C   UNL     1       3.426  -2.935   3.028  0.00  0.00    +0.031 C 
ATOM     24  C   UNL     1       2.511  -3.946   2.293  0.00  0.00    +0.160 C 
ATOM     25  O   UNL     1       1.425  -3.162   1.775  0.00  0.00    -0.375 OA
ENDBRANCH  20  21
ENDBRANCH  19  20
ENDBRANCH   1  15
BRANCH   1  26
ATOM     26  N   UNL     1      -0.867   2.007  -0.782  0.00  0.00    +0.397 N 
ATOM     27  H   UNL     1      -1.873   1.814  -0.713  0.00  0.00    -0.079 HD
BRANCH  26  28
ATOM     28  C   UNL     1      -0.439   1.826  -2.185  0.00  0.00    -0.041 C 
BRANCH  28  29
ATOM     29  C   UNL     1       1.037   2.098  -2.326  0.00  0.00    -0.064 A 
ATOM     30  C   UNL     1       1.477   3.366  -2.655  0.00  0.00    +0.004 A 
ATOM     31  C   UNL     1       2.830   3.618  -2.780  0.00  0.00    +0.038 A 
ATOM     32  C   UNL     1       3.745   2.596  -2.586  0.00  0.00    +0.123 A 
ATOM     33  C   UNL     1       3.302   1.325  -2.262  0.00  0.00    +0.038 A 
ATOM     34  C   UNL     1       1.949   1.077  -2.132  0.00  0.00    +0.004 A 
ATOM     35  F   UNL     1       5.067   2.839  -2.713  0.00  0.00    -0.205 F 
ENDBRANCH  28  29
ENDBRANCH  26  28
BRANCH  26  36
ATOM     36  C   UNL     1      -0.615   3.399  -0.352  0.00  0.00    -0.001 C 
BRANCH  36  37
ATOM     37  C   UNL     1      -1.637   4.298  -0.999  0.00  0.00    +0.089 A 
ATOM     38  C   UNL     1      -2.823   4.649  -0.471  0.00  0.00    +0.042 A 
ATOM     39  C   UNL     1      -3.454   5.498  -1.409  0.00  0.00    +0.041 A 
ATOM     40  C   UNL     1      -2.619   5.609  -2.457  0.00  0.00    +0.195 A 
ATOM     41  O   UNL     1      -1.520   4.880  -2.204  0.00  0.00    -0.470 OA
ENDBRANCH  36  37
ENDBRANCH  26  36
ENDBRANCH   1  26
TORSDOF 9
