REMARK  Name = ZINC39587588
REMARK  4 active torsions:
REMARK  status: ('A' for Active; 'I' for Inactive)
REMARK    1  A    between atoms: C_3  and  O_12
REMARK    2  A    between atoms: O_12  and  C_13
REMARK    3  A    between atoms: C_13  and  C_14
REMARK    4  A    between atoms: N_16  and  C_17
REMARK                            x       y       z     vdW  Elec       q    Type
REMARK                         _______ _______ _______ _____ _____    ______ ____
ROOT
ATOM      1  C   UNL     1       4.788   4.186  -0.022  0.00  0.00    +0.255 C 
ATOM      2  O   UNL     1       5.774   3.479  -0.026  0.00  0.00    -0.272 OA
ATOM      3  N   UNL     1       4.921   5.528  -0.019  0.00  0.00    -0.283 N 
ATOM      4  H   UNL     1       4.135   6.093  -0.083  0.00  0.00    +0.155 HD
ENDROOT
BRANCH   3   5
ATOM      5  C   UNL     1       6.194   6.105   0.077  0.00  0.00    +0.036 A 
ATOM      6  C   UNL     1       6.367   7.290   0.784  0.00  0.00    +0.025 A 
ATOM      7  C   UNL     1       7.618   7.864   0.882  0.00  0.00    +0.029 A 
ATOM      8  C   UNL     1       8.707   7.258   0.274  0.00  0.00    +0.067 A 
ATOM      9  C   UNL     1       8.537   6.068  -0.437  0.00  0.00    +0.069 A 
ATOM     10  C   UNL     1       7.280   5.491  -0.528  0.00  0.00    +0.051 A 
ATOM     11  N   UNL     1       9.790   5.707  -0.925  0.00  0.00    -0.306 N 
ATOM     12  H   UNL     1       9.987   4.921  -1.459  0.00  0.00    +0.170 HD
ATOM     13  C   UNL     1      10.683   6.634  -0.530  0.00  0.00    +0.325 A 
ATOM     14  O   UNL     1      11.872   6.617  -0.789  0.00  0.00    -0.247 OA
ATOM     15  N   UNL     1      10.061   7.583   0.195  0.00  0.00    -0.306 N 
ATOM     16  H   UNL     1      10.482   8.360   0.594  0.00  0.00    +0.170 HD
ENDBRANCH   3   5
BRANCH   1  17
ATOM     17  C   UNL     1       3.415   3.565  -0.020  0.00  0.00    +0.324 C 
BRANCH  17  18
ATOM     18  O   UNL     1       3.536   2.142  -0.024  0.00  0.00    -0.483 OA
BRANCH  18  21
ATOM     19  C   UNL     1      -0.018   1.402  -0.018  0.00  0.00    +0.012 A 
ATOM     20  C   UNL     1       1.154   2.092  -0.018  0.00  0.00    +0.046 A 
ATOM     21  C   UNL     1       2.382   1.424  -0.023  0.00  0.00    +0.122 A 
ATOM     22  C   UNL     1       2.437   0.059  -0.027  0.00  0.00    +0.054 A 
ATOM     23  C   UNL     1       1.245  -0.683  -0.027  0.00  0.00    -0.014 A 
ATOM     24  C   UNL     1       0.001  -0.003  -0.022  0.00  0.00    -0.017 A 
ATOM     25  C   UNL     1      -1.191  -0.748  -0.022  0.00  0.00    +0.023 A 
ATOM     26  C   UNL     1      -1.135  -2.108  -0.027  0.00  0.00    +0.018 A 
ATOM     27  C   UNL     1       0.088  -2.777  -0.031  0.00  0.00    +0.016 A 
ATOM     28  C   UNL     1       1.262  -2.089  -0.031  0.00  0.00    +0.010 A 
ATOM     29 BR   UNL     1      -2.742  -3.106  -0.027  0.00  0.00    -0.050 Br
ENDBRANCH  18  21
ENDBRANCH  17  18
ENDBRANCH   1  17
TORSDOF 4
