REMARK  Name = ZINC45329332
REMARK  8 active torsions:
REMARK  status: ('A' for Active; 'I' for Inactive)
REMARK    1  A    between atoms: C_4  and  C_7
REMARK    2  A    between atoms: C_7  and  C_8
REMARK    3  A    between atoms: C_8  and  C_10
REMARK    4  A    between atoms: C_8  and  N_27
REMARK    5  A    between atoms: N_12  and  C_13
REMARK    6  A    between atoms: C_16  and  C_19
REMARK    7  A    between atoms: N_21  and  C_22
REMARK    8  A    between atoms: C_22  and  C_23
REMARK                            x       y       z     vdW  Elec       q    Type
REMARK                         _______ _______ _______ _____ _____    ______ ____
ROOT
ATOM      1  C   UNL     1       4.171  -0.964   1.392  0.00  0.00    +0.175 C 
ENDROOT
BRANCH   1   2
ATOM      2  N   UNL     1       3.227  -1.866   2.057  0.00  0.00    -0.222 N 
ATOM      3  C   UNL     1       2.956  -3.119   1.648  0.00  0.00    +0.255 C 
ATOM      4  O   UNL     1       3.447  -3.672   0.685  0.00  0.00    -0.270 OA
ATOM      5  C   UNL     1       1.961  -3.709   2.568  0.00  0.00    +0.049 A 
ATOM      6  C   UNL     1       1.323  -4.937   2.645  0.00  0.00    +0.014 A 
ATOM      7  C   UNL     1       0.415  -5.176   3.665  0.00  0.00    +0.001 A 
ATOM      8  C   UNL     1       0.142  -4.200   4.604  0.00  0.00    +0.001 A 
ATOM      9  C   UNL     1       0.772  -2.967   4.539  0.00  0.00    +0.014 A 
ATOM     10  C   UNL     1       1.682  -2.713   3.526  0.00  0.00    +0.049 A 
ATOM     11  C   UNL     1       2.522  -1.553   3.158  0.00  0.00    +0.255 C 
ATOM     12  O   UNL     1       2.566  -0.494   3.751  0.00  0.00    -0.270 OA
ENDBRANCH   1   2
BRANCH   1  13
ATOM     13  C   UNL     1       5.543  -1.588   1.386  0.00  0.00    +0.239 C 
ATOM     14  O   UNL     1       5.665  -2.784   1.541  0.00  0.00    -0.273 OA
ATOM     15  N   UNL     1       6.633  -0.816   1.207  0.00  0.00    -0.284 N 
ATOM     16  H   UNL     1       6.532   0.129   1.017  0.00  0.00    +0.155 HD
BRANCH  15  17
ATOM     17  C   UNL     1       7.907  -1.378   1.297  0.00  0.00    +0.033 A 
ATOM     18  C   UNL     1       8.127  -2.674   0.843  0.00  0.00    +0.024 A 
ATOM     19  C   UNL     1       9.383  -3.232   0.930  0.00  0.00    +0.015 A 
ATOM     20  C   UNL     1      10.437  -2.493   1.474  0.00  0.00    +0.037 A 
ATOM     21  C   UNL     1      10.212  -1.190   1.928  0.00  0.00    +0.015 A 
ATOM     22  C   UNL     1       8.955  -0.637   1.833  0.00  0.00    +0.024 A 
BRANCH  20  23
ATOM     23  C   UNL     1      11.785  -3.087   1.569  0.00  0.00    +0.244 C 
ATOM     24  O   UNL     1      11.979  -4.221   1.174  0.00  0.00    -0.270 OA
ATOM     25  N   UNL     1      12.800  -2.373   2.093  0.00  0.00    -0.303 N 
ATOM     26  H   UNL     1      12.646  -1.469   2.408  0.00  0.00    +0.149 HD
BRANCH  25  27
ATOM     27  C   UNL     1      14.138  -2.963   2.188  0.00  0.00    +0.217 C 
BRANCH  27  28
ATOM     28  C   UNL     1      15.099  -1.951   2.815  0.00  0.00    +0.405 C 
ATOM     29  F   UNL     1      14.648  -1.611   4.095  0.00  0.00    -0.169 F 
ATOM     30  F   UNL     1      16.376  -2.514   2.905  0.00  0.00    -0.169 F 
ATOM     31  F   UNL     1      15.151  -0.802   2.019  0.00  0.00    -0.169 F 
ENDBRANCH  27  28
ENDBRANCH  25  27
ENDBRANCH  20  23
ENDBRANCH  15  17
ENDBRANCH   1  13
BRANCH   1  32
ATOM     32  C   UNL     1       3.715  -0.719  -0.048  0.00  0.00    +0.067 C 
BRANCH  32  36
ATOM     33  C   UNL     1      -0.015   1.364  -0.028  0.00  0.00    +0.000 A 
ATOM     34  C   UNL     1       1.173   2.072  -0.037  0.00  0.00    +0.000 A 
ATOM     35  C   UNL     1       2.379   1.398  -0.043  0.00  0.00    +0.004 A 
ATOM     36  C   UNL     1       2.399   0.016  -0.040  0.00  0.00    -0.045 A 
ATOM     37  C   UNL     1       1.212  -0.692  -0.030  0.00  0.00    +0.004 A 
ATOM     38  C   UNL     1       0.005  -0.018  -0.025  0.00  0.00    +0.000 A 
ENDBRANCH  32  36
ENDBRANCH   1  32
TORSDOF 8
