REMARK  Name = ZINC59170714
REMARK  6 active torsions:
REMARK  status: ('A' for Active; 'I' for Inactive)
REMARK    1  A    between atoms: C_3  and  N_10
REMARK    2  A    between atoms: C_5  and  N_7
REMARK    3  A    between atoms: C_11  and  C_13
REMARK    4  A    between atoms: N_23  and  C_24
REMARK    5  A    between atoms: C_27  and  S_30
REMARK    6  A    between atoms: S_30  and  N_33
REMARK                            x       y       z     vdW  Elec       q    Type
REMARK                         _______ _______ _______ _____ _____    ______ ____
ROOT
ATOM      1  C   UNL     1       4.818   4.190  -0.284  0.00  0.00    +0.098 A 
ATOM      2  C   UNL     1       4.823   5.579  -0.266  0.00  0.00    +0.030 A 
ATOM      3  C   UNL     1       6.124   6.248  -0.335  0.00  0.00    +0.020 A 
ATOM      4  C   UNL     1       6.242   7.615  -0.056  0.00  0.00    +0.031 A 
ATOM      5  C   UNL     1       7.478   8.219  -0.124  0.00  0.00    +0.042 A 
ATOM      6  C   UNL     1       8.602   7.480  -0.467  0.00  0.00    +0.023 A 
ATOM      7  C   UNL     1       8.501   6.132  -0.746  0.00  0.00    +0.048 A 
ATOM      8  C   UNL     1       7.266   5.503  -0.684  0.00  0.00    +0.138 A 
ATOM      9  O   UNL     1       7.151   4.182  -0.962  0.00  0.00    -0.439 OA
ATOM     10  C   UNL     1       6.128   3.514  -0.364  0.00  0.00    +0.212 A 
ATOM     11  N   UNL     1       6.298   2.304   0.123  0.00  0.00    -0.325 N 
ATOM     12 CL   UNL     1       7.630   9.914   0.218  0.00  0.00    -0.084 Cl
ATOM     13  H   UNL     1       5.590   1.885   0.638  0.00  0.00    +0.169 HD
ENDROOT
BRANCH  11  14
ATOM     14  C   UNL     1       7.471   1.637  -0.096  0.00  0.00    +0.042 A 
ATOM     15  C   UNL     1       8.048   1.632  -1.368  0.00  0.00    +0.027 A 
ATOM     16  C   UNL     1       9.232   0.957  -1.582  0.00  0.00    +0.030 A 
ATOM     17  C   UNL     1       9.848   0.286  -0.540  0.00  0.00    +0.105 A 
ATOM     18  C   UNL     1       9.281   0.286   0.722  0.00  0.00    +0.030 A 
ATOM     19  C   UNL     1       8.101   0.962   0.952  0.00  0.00    +0.027 A 
BRANCH  17  20
ATOM     20  S   UNL     1      11.359  -0.574  -0.823  0.00  0.00    +0.056 S 
ATOM     21  O   UNL     1      11.451  -1.576   0.181  0.00  0.00    -0.153 OA
ATOM     22  O   UNL     1      11.399  -0.880  -2.210  0.00  0.00    -0.153 OA
BRANCH  20  23
ATOM     23  N   UNL     1      12.591   0.495  -0.538  0.00  0.00    -0.204 NA
ATOM     24  H   UNL     1      13.447   0.174  -0.212  0.00  0.00    +0.144 HD
ATOM     25  H   UNL     1      12.458   1.443  -0.697  0.00  0.00    +0.144 HD
ENDBRANCH  20  23
ENDBRANCH  17  20
ENDBRANCH  11  14
BRANCH   1  27
ATOM     26  N   UNL     1       3.578   2.086  -0.375  0.00  0.00    -0.281 N 
ATOM     27  C   UNL     1       3.561   3.425  -0.219  0.00  0.00    +0.253 C 
ATOM     28  O   UNL     1       2.508   4.001  -0.024  0.00  0.00    -0.270 OA
ATOM     29  H   UNL     1       4.423   1.621  -0.478  0.00  0.00    +0.155 HD
BRANCH  26  32
ATOM     30  C   UNL     1       0.134   1.058   0.395  0.00  0.00    +0.004 A 
ATOM     31  C   UNL     1       1.318   1.769   0.413  0.00  0.00    +0.023 A 
ATOM     32  C   UNL     1       2.378   1.369  -0.390  0.00  0.00    +0.036 A 
ATOM     33  C   UNL     1       2.244   0.254  -1.208  0.00  0.00    +0.056 A 
ATOM     34  C   UNL     1       1.057  -0.452  -1.221  0.00  0.00    +0.128 A 
ATOM     35  C   UNL     1       0.003  -0.050  -0.420  0.00  0.00    +0.033 A 
BRANCH  34  36
ATOM     36  N   UNL     1       0.912  -1.639  -2.093  0.00  0.00    +0.056 N 
ATOM     37  O   UNL     1       1.833  -1.991  -2.793  0.00  0.00    -0.126 OA
ATOM     38  O   UNL     1      -0.126  -2.258  -2.104  0.00  0.00    -0.126 OA
ENDBRANCH  34  36
ENDBRANCH  26  32
ENDBRANCH   1  27
TORSDOF 6
