REMARK  Name = ZINC39685811
REMARK  12 active torsions:
REMARK  status: ('A' for Active; 'I' for Inactive)
REMARK    1  A    between atoms: C_1  and  C_2
REMARK    2  A    between atoms: C_2  and  C_3
REMARK    3  A    between atoms: C_2  and  C_4
REMARK    4  A    between atoms: C_4  and  C_6
REMARK    5  A    between atoms: C_4  and  N_13
REMARK    6  A    between atoms: N_8  and  C_9
REMARK    7  A    between atoms: C_9  and  C_10
REMARK    8  A    between atoms: C_9  and  C_11
REMARK    9  A    between atoms: C_9  and  C_12
REMARK   10  A    between atoms: C_14  and  C_16
REMARK   11  A    between atoms: C_27  and  C_29
REMARK   12  A    between atoms: C_35  and  C_37
REMARK                            x       y       z     vdW  Elec       q    Type
REMARK                         _______ _______ _______ _____ _____    ______ ____
ROOT
ATOM      1  C   UNL     1      -0.317  -4.108   1.553  0.00  0.00    +0.100 C 
ATOM      2  C   UNL     1       1.097  -4.273   0.953  0.00  0.00    +0.121 C 
ATOM      3  N   UNL     1       2.017  -3.906   2.055  0.00  0.00    -0.300 N 
ATOM      4  C   UNL     1       1.390  -4.487   3.267  0.00  0.00    +0.115 C 
ATOM      5  C   UNL     1      -0.121  -4.252   3.071  0.00  0.00    -0.004 C 
ATOM      6  C   UNL     1      -0.551  -2.973   3.784  0.00  0.00    -0.010 C 
ATOM      7  C   UNL     1      -0.400  -3.161   5.296  0.00  0.00    -0.082 C 
ATOM      8  N   UNL     1      -1.227  -4.292   5.735  0.00  0.00    +0.379 N 
ATOM      9  C   UNL     1      -0.747  -5.534   5.116  0.00  0.00    -0.082 C 
ATOM     10  C   UNL     1      -0.913  -5.446   3.596  0.00  0.00    -0.010 C 
ATOM     11  C   UNL     1       3.164  -3.204   1.974  0.00  0.00    +0.219 C 
ATOM     12  O   UNL     1       3.812  -2.984   2.975  0.00  0.00    -0.275 OA
ATOM     13  H   UNL     1      -1.173  -4.376   6.739  0.00  0.00    -0.086 HD
ATOM     14  H   UNL     1      -2.185  -4.131   5.464  0.00  0.00    -0.086 HD
ENDROOT
BRANCH  11  15
ATOM     15  C   UNL     1       3.642  -2.691   0.639  0.00  0.00    +0.078 C 
ATOM     16  C   UNL     1       3.861  -3.871  -0.311  0.00  0.00    +0.032 C 
ATOM     17  C   UNL     1       4.313  -3.344  -1.676  0.00  0.00    +0.108 C 
ATOM     18  N   UNL     1       5.496  -2.494  -1.488  0.00  0.00    -0.302 N 
ATOM     19  C   UNL     1       5.422  -1.384  -0.527  0.00  0.00    +0.108 C 
ATOM     20  C   UNL     1       4.958  -1.933   0.826  0.00  0.00    +0.032 C 
ATOM     21  C   UNL     1       6.627  -2.727  -2.181  0.00  0.00    +0.212 C 
ATOM     22  O   UNL     1       7.623  -2.072  -1.956  0.00  0.00    -0.276 OA
ATOM     23  C   UNL     1       6.655  -3.802  -3.237  0.00  0.00    +0.109 C 
ENDBRANCH  11  15
BRANCH   1  25
ATOM     24  N   UNL     1      -2.205  -2.555   1.172  0.00  0.00    -0.303 N 
ATOM     25  C   UNL     1      -0.872  -2.746   1.223  0.00  0.00    +0.219 C 
ATOM     26  O   UNL     1      -0.118  -1.821   1.002  0.00  0.00    -0.275 OA
ATOM     27  H   UNL     1      -2.808  -3.295   1.349  0.00  0.00    +0.149 HD
BRANCH  24  28
ATOM     28  C   UNL     1      -2.744  -1.231   0.851  0.00  0.00    +0.161 C 
BRANCH  28  29
ATOM     29  C   UNL     1      -4.128  -1.098   1.432  0.00  0.00    +0.234 C 
ATOM     30  O   UNL     1      -4.761  -2.091   1.724  0.00  0.00    -0.274 OA
ATOM     31  N   UNL     1      -4.663   0.124   1.627  0.00  0.00    -0.309 N 
ATOM     32  H   UNL     1      -4.131   0.918   1.461  0.00  0.00    +0.149 HD
BRANCH  31  33
ATOM     33  C   UNL     1      -6.047   0.253   2.089  0.00  0.00    +0.026 C 
ATOM     34  C   UNL     1      -6.197  -0.437   3.446  0.00  0.00    +0.031 C 
ATOM     35  C   UNL     1      -6.402   1.734   2.228  0.00  0.00    +0.031 C 
ATOM     36  C   UNL     1      -6.986  -0.404   1.076  0.00  0.00    +0.031 C 
ENDBRANCH  31  33
ENDBRANCH  28  29
BRANCH  28  38
ATOM     37  C   UNL     1      -1.394  -1.095  -1.247  0.00  0.00    +0.009 C 
ATOM     38  C   UNL     1      -2.810  -1.062  -0.668  0.00  0.00    +0.012 C 
ATOM     39  C   UNL     1      -3.635  -2.201  -1.272  0.00  0.00    +0.009 C 
ENDBRANCH  28  38
ENDBRANCH  24  28
ENDBRANCH   1  25
TORSDOF 6
