REMARK  Name = ZINC08769419
REMARK  9 active torsions:
REMARK  status: ('A' for Active; 'I' for Inactive)
REMARK    1  A    between atoms: C_1  and  C_2
REMARK    2  A    between atoms: C_5  and  C_8
REMARK    3  A    between atoms: C_8  and  C_9
REMARK    4  A    between atoms: N_15  and  C_18
REMARK    5  A    between atoms: N_25  and  C_26
REMARK    6  A    between atoms: C_26  and  C_27
REMARK    7  A    between atoms: C_27  and  C_28
REMARK    8  A    between atoms: C_35  and  O_38
REMARK    9  A    between atoms: O_38  and  C_39
REMARK                            x       y       z     vdW  Elec       q    Type
REMARK                         _______ _______ _______ _____ _____    ______ ____
ROOT
ATOM      1  C   UNL     1      -2.391   2.690   4.581  0.00  0.00    +0.064 C 
ATOM      2  N   UNL     1      -1.664   3.099   5.661  0.00  0.00    -0.286 NA
ENDROOT
BRANCH   1   3
ATOM      3  C   UNL     1      -3.772   2.900   4.548  0.00  0.00    +0.210 C 
ATOM      4  C   UNL     1      -4.498   3.408   5.721  0.00  0.00    +0.238 C 
ATOM      5  O   UNL     1      -3.912   3.662   6.757  0.00  0.00    -0.274 OA
ATOM      6  N   UNL     1      -5.831   3.591   5.617  0.00  0.00    -0.238 N 
ATOM      7  C   UNL     1      -6.489   3.311   4.484  0.00  0.00    +0.319 C 
ATOM      8  O   UNL     1      -7.691   3.493   4.455  0.00  0.00    -0.251 OA
ATOM      9  N   UNL     1      -5.891   2.841   3.380  0.00  0.00    -0.193 N 
ATOM     10  C   UNL     1      -4.562   2.615   3.341  0.00  0.00    +0.245 C 
ATOM     11  O   UNL     1      -4.030   2.188   2.333  0.00  0.00    -0.274 OA
ATOM     12  H   UNL     1      -6.324   3.929   6.381  0.00  0.00    +0.159 HD
BRANCH   9  13
ATOM     13  C   UNL     1      -6.664   2.577   2.241  0.00  0.00    +0.045 A 
ATOM     14  C   UNL     1      -6.507   3.351   1.099  0.00  0.00    +0.025 A 
ATOM     15  C   UNL     1      -7.267   3.086  -0.023  0.00  0.00    +0.017 A 
ATOM     16  C   UNL     1      -8.191   2.057  -0.007  0.00  0.00    +0.018 A 
ATOM     17  C   UNL     1      -8.353   1.287   1.131  0.00  0.00    +0.017 A 
ATOM     18  C   UNL     1      -7.592   1.544   2.254  0.00  0.00    +0.025 A 
ATOM     19 BR   UNL     1      -9.235   1.701  -1.544  0.00  0.00    -0.050 Br
ENDBRANCH   9  13
ENDBRANCH   1   3
BRANCH   1  24
ATOM     20  C   UNL     1       0.231   0.104   0.163  0.00  0.00    +0.044 C 
ATOM     21  C   UNL     1      -0.456   0.782   1.321  0.00  0.00    -0.050 A 
ATOM     22  C   UNL     1      -0.082   2.062   1.690  0.00  0.00    +0.004 A 
ATOM     23  C   UNL     1      -0.709   2.691   2.745  0.00  0.00    +0.010 A 
ATOM     24  C   UNL     1      -1.719   2.027   3.449  0.00  0.00    -0.003 A 
ATOM     25  C   UNL     1      -2.088   0.732   3.073  0.00  0.00    +0.010 A 
ATOM     26  C   UNL     1      -1.455   0.119   2.012  0.00  0.00    +0.004 A 
ENDBRANCH   1  24
BRANCH   2  27
ATOM     27  C   UNL     1      -0.216   2.879   5.696  0.00  0.00    +0.146 C 
BRANCH  27  28
ATOM     28  C   UNL     1       0.333   3.311   7.057  0.00  0.00    +0.060 C 
BRANCH  28  29
ATOM     29  C   UNL     1       1.822   3.085   7.092  0.00  0.00    -0.021 A 
ATOM     30  C   UNL     1       2.454   2.005   7.579  0.00  0.00    +0.087 A 
ATOM     31  N   UNL     1       3.807   2.155   7.441  0.00  0.00    -0.360 N 
ATOM     32  H   UNL     1       4.471   1.505   7.720  0.00  0.00    +0.165 HD
ATOM     33  C   UNL     1       4.086   3.368   6.847  0.00  0.00    +0.047 A 
ATOM     34  C   UNL     1       2.854   3.999   6.597  0.00  0.00    +0.006 A 
ATOM     35  C   UNL     1       2.825   5.262   6.002  0.00  0.00    +0.056 A 
ATOM     36  C   UNL     1       4.010   5.877   5.650  0.00  0.00    +0.121 A 
ATOM     37  C   UNL     1       5.228   5.247   5.892  0.00  0.00    +0.047 A 
ATOM     38  C   UNL     1       5.268   4.004   6.485  0.00  0.00    +0.030 A 
BRANCH  36  39
ATOM     39  O   UNL     1       3.988   7.104   5.064  0.00  0.00    -0.495 OA
ATOM     40  C   UNL     1       5.249   7.684   4.725  0.00  0.00    +0.277 C 
ENDBRANCH  36  39
ENDBRANCH  28  29
ENDBRANCH  27  28
ENDBRANCH   2  27
TORSDOF 7
