REMARK  Name = ZINC41584862
REMARK  13 active torsions:
REMARK  status: ('A' for Active; 'I' for Inactive)
REMARK    1  A    between atoms: C_1  and  C_2
REMARK    2  A    between atoms: C_4  and  O_39
REMARK    3  A    between atoms: C_5  and  C_25
REMARK    4  A    between atoms: C_11  and  C_12
REMARK    5  A    between atoms: C_15  and  O_22
REMARK    6  A    between atoms: C_16  and  O_20
REMARK    7  A    between atoms: C_17  and  O_18
REMARK    8  A    between atoms: O_18  and  C_19
REMARK    9  A    between atoms: O_20  and  C_21
REMARK   10  A    between atoms: O_22  and  C_23
REMARK   11  A    between atoms: C_25  and  N_26
REMARK   12  A    between atoms: N_29  and  C_32
REMARK   13  A    between atoms: C_32  and  C_33
REMARK                            x       y       z     vdW  Elec       q    Type
REMARK                         _______ _______ _______ _____ _____    ______ ____
ROOT
ATOM      1  C   UNL     1      -0.651   1.599   0.131  0.00  0.00    +0.045 C 
ATOM      2  C   UNL     1      -0.760   0.096   0.112  0.00  0.00    -0.033 A 
ATOM      3  C   UNL     1      -1.041  -0.555  -1.057  0.00  0.00    +0.050 A 
ATOM      4  C   UNL     1      -1.141  -1.943  -1.077  0.00  0.00    +0.122 A 
ATOM      5  C   UNL     1      -0.960  -2.680   0.081  0.00  0.00    +0.020 A 
ATOM      6  C   UNL     1      -0.674  -2.034   1.278  0.00  0.00    +0.145 A 
ATOM      7  C   UNL     1      -0.569  -0.634   1.285  0.00  0.00    +0.071 A 
ATOM      8  C   UNL     1      -0.256  -0.248   2.673  0.00  0.00    +0.232 C 
ATOM      9  O   UNL     1      -0.087   0.875   3.115  0.00  0.00    -0.283 OA
ATOM     10  C   UNL     1      -0.194  -1.520   3.404  0.00  0.00    +0.176 C 
ATOM     11  C   UNL     1       0.068  -1.672   4.729  0.00  0.00    +0.062 C 
ATOM     12  O   UNL     1      -0.457  -2.513   2.522  0.00  0.00    -0.451 OA
ENDROOT
BRANCH  11  13
ATOM     13  C   UNL     1      -0.018  -2.998   5.346  0.00  0.00    +0.024 A 
ATOM     14  C   UNL     1      -0.009  -4.149   4.545  0.00  0.00    +0.015 A 
ATOM     15  C   UNL     1      -0.090  -5.393   5.127  0.00  0.00    +0.050 A 
ATOM     16  C   UNL     1      -0.181  -5.516   6.510  0.00  0.00    +0.165 A 
ATOM     17  C   UNL     1      -0.191  -4.383   7.316  0.00  0.00    +0.204 A 
ATOM     18  C   UNL     1      -0.104  -3.123   6.743  0.00  0.00    +0.172 A 
BRANCH  18  19
ATOM     19  O   UNL     1      -0.108  -2.015   7.528  0.00  0.00    -0.491 OA
ATOM     20  C   UNL     1      -1.380  -1.438   7.829  0.00  0.00    +0.277 C 
ENDBRANCH  18  19
BRANCH  17  21
ATOM     21  O   UNL     1      -0.281  -4.511   8.668  0.00  0.00    -0.488 OA
ATOM     22  C   UNL     1       0.947  -4.618   9.393  0.00  0.00    +0.277 C 
ENDBRANCH  17  21
BRANCH  16  23
ATOM     23  O   UNL     1      -0.261  -6.749   7.074  0.00  0.00    -0.491 OA
ATOM     24  C   UNL     1      -0.246  -7.870   6.189  0.00  0.00    +0.277 C 
ENDBRANCH  16  23
ENDBRANCH  11  13
BRANCH   4  25
ATOM     25  O   UNL     1      -1.421  -2.580  -2.243  0.00  0.00    -0.506 OA
ATOM     26  H   UNL     1      -0.638  -2.825  -2.755  0.00  0.00    +0.292 HD
ENDBRANCH   4  25
BRANCH   5  27
ATOM     27  C   UNL     1      -1.073  -4.183   0.044  0.00  0.00    -0.035 C 
BRANCH  27  28
ATOM     28  N   UNL     1       0.245  -4.766  -0.241  0.00  0.00    +0.384 N 
ATOM     29  C   UNL     1       0.672  -4.373  -1.590  0.00  0.00    -0.063 C 
ATOM     30  C   UNL     1       2.053  -4.965  -1.881  0.00  0.00    +0.066 C 
ATOM     31  N   UNL     1       1.987  -6.430  -1.776  0.00  0.00    -0.302 NA
ATOM     32  C   UNL     1       1.537  -6.837  -0.437  0.00  0.00    +0.066 C 
ATOM     33  C   UNL     1       0.160  -6.230  -0.159  0.00  0.00    -0.063 C 
ATOM     34  H   UNL     1       0.915  -4.430   0.435  0.00  0.00    -0.081 HD
BRANCH  31  35
ATOM     35  C   UNL     1       3.283  -7.040  -2.103  0.00  0.00    +0.119 C 
BRANCH  35  36
ATOM     36  C   UNL     1       3.118  -8.533  -2.226  0.00  0.00    -0.033 A 
ATOM     37  C   UNL     1       3.275  -9.339  -1.114  0.00  0.00    +0.005 A 
ATOM     38  C   UNL     1       3.124 -10.708  -1.226  0.00  0.00    +0.000 A 
ATOM     39  C   UNL     1       2.816 -11.272  -2.450  0.00  0.00    +0.000 A 
ATOM     40  C   UNL     1       2.658 -10.466  -3.562  0.00  0.00    +0.000 A 
ATOM     41  C   UNL     1       2.805  -9.096  -3.449  0.00  0.00    +0.005 A 
ENDBRANCH  35  36
ENDBRANCH  31  35
ENDBRANCH  27  28
ENDBRANCH   5  27
TORSDOF 9
