REMARK  Name = ZINC11592962
REMARK  10 active torsions:
REMARK  status: ('A' for Active; 'I' for Inactive)
REMARK    1  A    between atoms: C_1  and  C_2
REMARK    2  A    between atoms: C_4  and  O_40
REMARK    3  A    between atoms: C_6  and  N_63
REMARK    4  A    between atoms: C_9  and  O_12
REMARK    5  A    between atoms: O_12  and  C_13
REMARK    6  A    between atoms: C_16  and  C_36
REMARK    7  A    between atoms: C_16  and  O_39
REMARK    8  A    between atoms: C_20  and  O_35
REMARK    9  A    between atoms: C_23  and  O_24
REMARK   10  A    between atoms: C_36  and  C_38
REMARK                            x       y       z     vdW  Elec       q    Type
REMARK                         _______ _______ _______ _____ _____    ______ ____
ROOT
ATOM      1  C   UNL     1       3.863   2.587  -2.880  0.00  0.00    +0.158 C 
ATOM      2  C   UNL     1       2.842   2.600  -4.015  0.00  0.00    +0.079 C 
ATOM      3  C   UNL     1       1.957   1.356  -3.881  0.00  0.00    +0.130 C 
ATOM      4  C   UNL     1       1.073   1.525  -2.647  0.00  0.00    +0.082 C 
ATOM      5  C   UNL     1       1.904   1.893  -1.444  0.00  0.00    +0.007 A 
ATOM      6  C   UNL     1       3.180   2.386  -1.552  0.00  0.00    +0.030 A 
ATOM      7  C   UNL     1       3.902   2.721  -0.399  0.00  0.00    +0.134 A 
ATOM      8  C   UNL     1       3.338   2.555   0.865  0.00  0.00    +0.078 A 
ATOM      9  C   UNL     1       2.026   2.051   0.975  0.00  0.00    +0.078 A 
ATOM     10  C   UNL     1       1.322   1.720  -0.181  0.00  0.00    +0.132 A 
ATOM     11  C   UNL     1       1.416   1.864   2.303  0.00  0.00    +0.198 C 
ATOM     12  O   UNL     1       0.287   1.424   2.398  0.00  0.00    -0.286 OA
ATOM     13  C   UNL     1       2.179   2.216   3.519  0.00  0.00    +0.033 A 
ATOM     14  C   UNL     1       1.609   2.048   4.778  0.00  0.00    +0.012 A 
ATOM     15  C   UNL     1       2.330   2.379   5.911  0.00  0.00    +0.001 A 
ATOM     16  C   UNL     1       3.615   2.879   5.803  0.00  0.00    +0.001 A 
ATOM     17  C   UNL     1       4.196   3.053   4.559  0.00  0.00    +0.012 A 
ATOM     18  C   UNL     1       3.485   2.724   3.409  0.00  0.00    +0.033 A 
ATOM     19  C   UNL     1       4.098   2.907   2.076  0.00  0.00    +0.198 C 
ATOM     20  O   UNL     1       5.227   3.346   1.980  0.00  0.00    -0.286 OA
ENDROOT
BRANCH   3  21
ATOM     21  C   UNL     1       2.821   0.131  -3.723  0.00  0.00    +0.162 C 
ATOM     22  O   UNL     1       3.084  -0.283  -2.619  0.00  0.00    -0.295 OA
ATOM     23  C   UNL     1       3.357  -0.575  -4.941  0.00  0.00    +0.089 C 
ENDBRANCH   3  21
BRANCH  10  24
ATOM     24  O   UNL     1       0.060   1.231  -0.084  0.00  0.00    -0.506 OA
ATOM     25  H   UNL     1       0.016   0.267  -0.020  0.00  0.00    +0.292 HD
ENDBRANCH  10  24
BRANCH   7  26
ATOM     26  O   UNL     1       5.162   3.211  -0.513  0.00  0.00    -0.506 OA
ATOM     27  H   UNL     1       5.210   4.177  -0.502  0.00  0.00    +0.292 HD
ENDBRANCH   7  26
BRANCH   3  28
ATOM     28  O   UNL     1       1.138   1.220  -5.044  0.00  0.00    -0.381 OA
ATOM     29  H   UNL     1       0.540   0.460  -5.018  0.00  0.00    +0.211 HD
ENDBRANCH   3  28
BRANCH   1  30
ATOM     30  O   UNL     1       4.566   3.831  -2.864  0.00  0.00    -0.343 OA
BRANCH  30  36
ATOM     31  C   UNL     1       7.530   2.473  -5.434  0.00  0.00    +0.040 C 
ATOM     32  C   UNL     1       7.902   2.990  -4.042  0.00  0.00    +0.145 C 
ATOM     33  C   UNL     1       8.500   4.394  -4.162  0.00  0.00    +0.129 C 
ATOM     34  C   UNL     1       7.446   5.341  -4.743  0.00  0.00    -0.039 C 
ATOM     35  C   UNL     1       6.202   5.313  -3.849  0.00  0.00    +0.048 C 
ATOM     36  C   UNL     1       5.693   3.873  -3.741  0.00  0.00    +0.250 C 
ATOM     37  O   UNL     1       6.732   3.040  -3.224  0.00  0.00    -0.346 OA
BRANCH  34  40
ATOM     38  H   UNL     1       7.305   7.351  -5.165  0.00  0.00    -0.090 HD
ATOM     39  H   UNL     1       8.302   7.003  -3.881  0.00  0.00    -0.090 HD
ATOM     40  N   UNL     1       8.005   6.703  -4.808  0.00  0.00    +0.382 N 
ATOM     41  H   UNL     1       8.816   6.706  -5.437  0.00  0.00    -0.090 HD
ENDBRANCH  34  40
BRANCH  33  42
ATOM     42  O   UNL     1       9.637   4.358  -5.027  0.00  0.00    -0.391 OA
ATOM     43  H   UNL     1      10.346   3.776  -4.720  0.00  0.00    +0.210 HD
ENDBRANCH  33  42
ENDBRANCH  30  36
ENDBRANCH   1  30
TORSDOF 8
