REMARK  Name = ZINC14328761
REMARK  5 active torsions:
REMARK  status: ('A' for Active; 'I' for Inactive)
REMARK    1  A    between atoms: C_6  and  C_7
REMARK    2  A    between atoms: C_7  and  C_9
REMARK    3  A    between atoms: C_14  and  C_15
REMARK    4  A    between atoms: C_14  and  N_53
REMARK    5  A    between atoms: N_20  and  C_21
REMARK                            x       y       z     vdW  Elec       q    Type
REMARK                         _______ _______ _______ _____ _____    ______ ____
ROOT
ATOM      1  C   UNL     1      -4.930   0.113   0.163  0.00  0.00    +0.057 C 
ATOM      2  C   UNL     1      -5.399   0.178   1.619  0.00  0.00    -0.007 C 
ATOM      3  C   UNL     1      -6.758   0.878   1.682  0.00  0.00    -0.077 C 
ATOM      4  C   UNL     1      -7.324   0.105  -0.544  0.00  0.00    -0.077 C 
ATOM      5  C   UNL     1      -5.983  -0.620  -0.673  0.00  0.00    -0.007 C 
ATOM      6  N   UNL     1      -7.732   0.111   0.877  0.00  0.00    +0.385 N 
ATOM      7  H   UNL     1      -7.758  -0.857   1.220  0.00  0.00    -0.081 HD
ENDROOT
BRANCH   1   8
ATOM      8  C   UNL     1      -3.621  -0.630   0.088  0.00  0.00    +0.166 C 
ATOM      9  O   UNL     1      -3.611  -1.818  -0.158  0.00  0.00    -0.292 OA
BRANCH   8  15
ATOM     10  C   UNL     1      -2.365   1.454   0.595  0.00  0.00    +0.015 A 
ATOM     11  C   UNL     1      -1.178   2.121   0.799  0.00  0.00    +0.050 A 
ATOM     12  C   UNL     1       0.031   1.437   0.733  0.00  0.00    +0.162 A 
ATOM     13  C   UNL     1       0.047   0.071   0.453  0.00  0.00    +0.163 A 
ATOM     14  C   UNL     1      -1.140  -0.604   0.243  0.00  0.00    +0.060 A 
ATOM     15  C   UNL     1      -2.357   0.084   0.312  0.00  0.00    +0.021 A 
ATOM     16  O   UNL     1       1.222  -0.612   0.386  0.00  0.00    -0.485 OA
ATOM     17  C   UNL     1       2.412   0.170   0.232  0.00  0.00    +0.270 C 
ATOM     18  C   UNL     1       2.353   1.335   1.230  0.00  0.00    +0.270 C 
ATOM     19  O   UNL     1       1.190   2.117   0.937  0.00  0.00    -0.485 OA
ENDBRANCH   8  15
ENDBRANCH   1   8
BRANCH   6  20
ATOM     20  C   UNL     1      -9.078   0.705   1.014  0.00  0.00    +0.019 C 
BRANCH  20  21
ATOM     21  C   UNL     1     -10.084  -0.223   0.381  0.00  0.00    +0.204 C 
ATOM     22  O   UNL     1      -9.731  -1.304  -0.039  0.00  0.00    -0.277 OA
ATOM     23  N   UNL     1     -11.375   0.150   0.282  0.00  0.00    -0.242 N 
ATOM     24  C   UNL     1     -12.274  -0.679  -0.284  0.00  0.00    +0.306 C 
ATOM     25  O   UNL     1     -11.921  -1.763  -0.705  0.00  0.00    -0.252 OA
ATOM     26  N   UNL     1     -13.566  -0.306  -0.383  0.00  0.00    -0.296 N 
ATOM     27  H   UNL     1     -11.657   1.015   0.618  0.00  0.00    +0.159 HD
ATOM     28  H   UNL     1     -13.848   0.559  -0.047  0.00  0.00    +0.151 HD
BRANCH  26  29
ATOM     29  C   UNL     1     -14.543  -1.208  -0.998  0.00  0.00    +0.075 C 
ATOM     30  C   UNL     1     -15.547  -0.598  -1.979  0.00  0.00    +0.024 C 
ATOM     31  C   UNL     1     -16.009  -1.045  -0.589  0.00  0.00    +0.024 C 
ENDBRANCH  26  29
ENDBRANCH  20  21
ENDBRANCH   6  20
TORSDOF 5
