REMARK  Name = ZINC20627471
REMARK  6 active torsions:
REMARK  status: ('A' for Active; 'I' for Inactive)
REMARK    1  A    between atoms: C_4  and  N_18
REMARK    2  A    between atoms: C_5  and  N_7
REMARK    3  A    between atoms: N_7  and  S_8
REMARK    4  A    between atoms: S_8  and  C_11
REMARK    5  A    between atoms: N_18  and  S_19
REMARK    6  A    between atoms: S_19  and  C_22
REMARK                            x       y       z     vdW  Elec       q    Type
REMARK                         _______ _______ _______ _____ _____    ______ ____
ROOT
ATOM      1  C   UNL     1      -3.812   0.008   3.485  0.00  0.00    +0.002 A 
ATOM      2  C   UNL     1      -2.801  -0.702   2.864  0.00  0.00    +0.002 A 
ATOM      3  C   UNL     1      -1.723  -0.037   2.310  0.00  0.00    +0.026 A 
ATOM      4  C   UNL     1      -1.654   1.347   2.376  0.00  0.00    +0.070 A 
ATOM      5  C   UNL     1      -2.670   2.062   3.008  0.00  0.00    +0.070 A 
ATOM      6  C   UNL     1      -3.750   1.387   3.556  0.00  0.00    +0.026 A 
ENDROOT
BRANCH   5   7
ATOM      7  N   UNL     1      -2.603   3.459   3.083  0.00  0.00    -0.214 N 
ATOM      8  H   UNL     1      -2.171   4.035   2.252  0.00  0.00    +0.174 HD
BRANCH   7   9
ATOM      9  S   UNL     1      -3.175   4.244   4.425  0.00  0.00    +0.072 S 
ATOM     10  O   UNL     1      -2.848   5.617   4.262  0.00  0.00    -0.150 OA
ATOM     11  O   UNL     1      -4.510   3.796   4.619  0.00  0.00    -0.150 OA
BRANCH   9  12
ATOM     12  C   UNL     1      -2.244   3.665   5.804  0.00  0.00    +0.109 A 
ATOM     13  C   UNL     1      -2.681   2.566   6.520  0.00  0.00    +0.031 A 
ATOM     14  C   UNL     1      -1.948   2.108   7.599  0.00  0.00    +0.040 A 
ATOM     15  C   UNL     1      -0.783   2.756   7.969  0.00  0.00    +0.124 A 
ATOM     16  C   UNL     1      -0.349   3.860   7.254  0.00  0.00    +0.040 A 
ATOM     17  C   UNL     1      -1.080   4.313   6.173  0.00  0.00    +0.031 A 
ATOM     18  F   UNL     1      -0.069   2.312   9.026  0.00  0.00    -0.205 F 
ENDBRANCH   9  12
ENDBRANCH   7   9
ENDBRANCH   5   7
BRANCH   4  19
ATOM     19  N   UNL     1      -0.563   2.022   1.815  0.00  0.00    -0.214 N 
ATOM     20  H   UNL     1      -0.228   2.978   2.245  0.00  0.00    +0.174 HD
BRANCH  19  21
ATOM     21  S   UNL     1       0.222   1.383   0.505  0.00  0.00    +0.074 S 
ATOM     22  O   UNL     1       1.237   2.311   0.148  0.00  0.00    -0.150 OA
ATOM     23  O   UNL     1      -0.784   0.966  -0.408  0.00  0.00    -0.150 OA
BRANCH  21  24
ATOM     24  C   UNL     1       1.044  -0.076   1.051  0.00  0.00    +0.135 A 
ATOM     25  C   UNL     1       0.699  -1.312   0.533  0.00  0.00    +0.058 A 
ATOM     26  C   UNL     1       1.356  -2.415   0.971  0.00  0.00    +0.081 A 
ATOM     27  S   UNL     1       2.491  -1.720   2.161  0.00  0.00    -0.063 S 
ATOM     28  C   UNL     1       2.021  -0.007   1.989  0.00  0.00    +0.106 A 
ATOM     29 CL   UNL     1       2.651   1.387   2.810  0.00  0.00    -0.074 Cl
ATOM     30 CL   UNL     1       1.142  -4.072   0.502  0.00  0.00    -0.076 Cl
ENDBRANCH  21  24
ENDBRANCH  19  21
ENDBRANCH   4  19
TORSDOF 6
