REMARK  Name = ZINC08945997
REMARK  6 active torsions:
REMARK  status: ('A' for Active; 'I' for Inactive)
REMARK    1  A    between atoms: C_4  and  N_7
REMARK    2  A    between atoms: C_16  and  S_17
REMARK    3  A    between atoms: S_17  and  C_18
REMARK    4  A    between atoms: C_18  and  C_19
REMARK    5  A    between atoms: C_19  and  C_21
REMARK    6  A    between atoms: C_21  and  C_31
REMARK                            x       y       z     vdW  Elec       q    Type
REMARK                         _______ _______ _______ _____ _____    ______ ____
ROOT
ATOM      1  S   UNL     1       2.005   4.316  -0.242  0.00  0.00    -0.079 S 
ENDROOT
BRANCH   1  11
ATOM      2  N   UNL     1       3.585   2.125  -0.022  0.00  0.00    -0.255 N 
ATOM      3  C   UNL     1       4.751   1.457   0.065  0.00  0.00    +0.267 A 
ATOM      4  O   UNL     1       4.761   0.241   0.150  0.00  0.00    -0.267 OA
ATOM      5  C   UNL     1       5.977   2.192   0.055  0.00  0.00    +0.073 A 
ATOM      6  C   UNL     1       7.343   1.704   0.135  0.00  0.00    +0.023 A 
ATOM      7  C   UNL     1       8.356   2.582   0.108  0.00  0.00    +0.048 A 
ATOM      8  S   UNL     1       7.534   4.158  -0.030  0.00  0.00    -0.077 S 
ATOM      9  C   UNL     1       5.853   3.591  -0.048  0.00  0.00    +0.116 A 
ATOM     10  N   UNL     1       4.670   4.189  -0.130  0.00  0.00    -0.216 NA
ATOM     11  C   UNL     1       3.555   3.487  -0.124  0.00  0.00    +0.178 A 
BRANCH   2  15
ATOM     12  C   UNL     1       0.003  -0.005   0.004  0.00  0.00    +0.000 A 
ATOM     13  C   UNL     1       0.639   0.261  -1.195  0.00  0.00    +0.002 A 
ATOM     14  C   UNL     1       1.826   0.967  -1.207  0.00  0.00    +0.026 A 
ATOM     15  C   UNL     1       2.381   1.409  -0.013  0.00  0.00    +0.052 A 
ATOM     16  C   UNL     1       1.740   1.140   1.188  0.00  0.00    +0.026 A 
ATOM     17  C   UNL     1       0.553   0.434   1.194  0.00  0.00    +0.002 A 
ENDBRANCH   2  15
ENDBRANCH   1  11
BRANCH   1  18
ATOM     18  C   UNL     1       2.574   6.032  -0.348  0.00  0.00    +0.157 C 
BRANCH  18  19
ATOM     19  C   UNL     1       1.383   6.949  -0.460  0.00  0.00    +0.187 C 
ATOM     20  O   UNL     1       0.259   6.488  -0.467  0.00  0.00    -0.290 OA
BRANCH  19  21
ATOM     21  C   UNL     1       1.573   8.338  -0.555  0.00  0.00    +0.131 C 
ATOM     22  C   UNL     1       0.463   9.194  -0.660  0.00  0.00    +0.114 C 
ATOM     23  N   UNL     1      -0.836   8.798  -0.684  0.00  0.00    -0.300 N 
ATOM     24  C   UNL     1      -1.635   9.931  -0.793  0.00  0.00    +0.054 A 
ATOM     25  C   UNL     1      -3.009  10.119  -0.858  0.00  0.00    +0.025 A 
ATOM     26  C   UNL     1      -3.524  11.394  -0.972  0.00  0.00    +0.002 A 
ATOM     27  C   UNL     1      -2.676  12.488  -1.021  0.00  0.00    +0.002 A 
ATOM     28  C   UNL     1      -1.308  12.312  -0.957  0.00  0.00    +0.025 A 
ATOM     29  C   UNL     1      -0.780  11.034  -0.842  0.00  0.00    +0.054 A 
ATOM     30  N   UNL     1       0.519  10.548  -0.758  0.00  0.00    -0.300 N 
ATOM     31  H   UNL     1      -1.152   7.883  -0.633  0.00  0.00    +0.153 HD
ATOM     32  H   UNL     1       1.328  11.084  -0.767  0.00  0.00    +0.153 HD
BRANCH  21  33
ATOM     33  C   UNL     1       2.898   8.882  -0.547  0.00  0.00    +0.106 C 
ATOM     34  N   UNL     1       3.949   9.313  -0.540  0.00  0.00    -0.191 NA
ENDBRANCH  21  33
ENDBRANCH  19  21
ENDBRANCH  18  19
ENDBRANCH   1  18
TORSDOF 6
