REMARK  Name = ZINC16435716
REMARK  13 active torsions:
REMARK  status: ('A' for Active; 'I' for Inactive)
REMARK    1  A    between atoms: C_1  and  C_2
REMARK    2  A    between atoms: C_5  and  N_8
REMARK    3  A    between atoms: C_9  and  N_20
REMARK    4  A    between atoms: C_10  and  C_14
REMARK    5  A    between atoms: C_11  and  C_13
REMARK    6  A    between atoms: C_21  and  C_23
REMARK    7  A    between atoms: C_23  and  N_24
REMARK    8  A    between atoms: N_24  and  C_25
REMARK    9  A    between atoms: C_25  and  C_26
REMARK   10  A    between atoms: C_25  and  C_27
REMARK   11  A    between atoms: C_28  and  C_30
REMARK   12  A    between atoms: C_30  and  O_31
REMARK   13  A    between atoms: O_31  and  C_32
REMARK                            x       y       z     vdW  Elec       q    Type
REMARK                         _______ _______ _______ _____ _____    ______ ____
ROOT
ATOM      1  N   UNL     1      -1.305   2.973   4.569  0.00  0.00    -0.268 N 
ATOM      2  C   UNL     1      -2.471   3.381   5.107  0.00  0.00    +0.236 C 
ATOM      3  O   UNL     1      -3.513   3.178   4.521  0.00  0.00    -0.274 OA
ATOM      4  H   UNL     1      -0.479   3.072   5.069  0.00  0.00    +0.156 HD
ENDROOT
BRANCH   1   6
ATOM      5  N   UNL     1      -1.794   1.199   2.943  0.00  0.00    -0.218 N 
ATOM      6  C   UNL     1      -1.284   2.409   3.298  0.00  0.00    +0.137 A 
ATOM      7  C   UNL     1      -0.743   2.974   2.157  0.00  0.00    +0.045 A 
ATOM      8  C   UNL     1      -0.944   2.062   1.102  0.00  0.00    +0.070 A 
ATOM      9  N   UNL     1      -1.571   1.017   1.573  0.00  0.00    -0.169 NA
ATOM     10  C   UNL     1      -0.514   2.261  -0.328  0.00  0.00    +0.068 C 
BRANCH   5  15
ATOM     11  C   UNL     1      -4.394  -2.467   6.408  0.00  0.00    +0.044 C 
ATOM     12  C   UNL     1      -3.704  -1.493   5.488  0.00  0.00    -0.050 A 
ATOM     13  C   UNL     1      -4.210  -1.263   4.222  0.00  0.00    +0.005 A 
ATOM     14  C   UNL     1      -3.579  -0.372   3.376  0.00  0.00    +0.028 A 
ATOM     15  C   UNL     1      -2.436   0.294   3.798  0.00  0.00    +0.067 A 
ATOM     16  C   UNL     1      -1.927   0.056   5.068  0.00  0.00    +0.028 A 
ATOM     17  C   UNL     1      -2.565  -0.832   5.911  0.00  0.00    +0.005 A 
ENDBRANCH   5  15
BRANCH   7  18
ATOM     18  C   UNL     1      -0.074   4.294   2.062  0.00  0.00    -0.013 A 
ATOM     19  C   UNL     1       1.120   4.523   2.743  0.00  0.00    +0.008 A 
ATOM     20  C   UNL     1       1.741   5.752   2.647  0.00  0.00    +0.001 A 
ATOM     21  C   UNL     1       1.175   6.759   1.886  0.00  0.00    +0.000 A 
ATOM     22  C   UNL     1      -0.014   6.538   1.212  0.00  0.00    +0.001 A 
ATOM     23  C   UNL     1      -0.640   5.312   1.297  0.00  0.00    +0.008 A 
ENDBRANCH   7  18
ENDBRANCH   1   6
BRANCH   2  24
ATOM     24  C   UNL     1      -2.481   4.090   6.437  0.00  0.00    +0.204 C 
BRANCH  24  25
ATOM     25  N   UNL     1      -3.859   4.428   6.800  0.00  0.00    -0.287 N 
ATOM     26  C   UNL     1      -4.601   3.557   7.513  0.00  0.00    +0.254 C 
ATOM     27  O   UNL     1      -4.127   2.494   7.855  0.00  0.00    -0.272 OA
BRANCH  25  28
ATOM     28  C   UNL     1      -4.432   5.712   6.388  0.00  0.00    +0.070 C 
ATOM     29  C   UNL     1      -3.603   6.853   6.981  0.00  0.00    +0.028 C 
ATOM     30  C   UNL     1      -4.417   5.810   4.862  0.00  0.00    +0.028 C 
ENDBRANCH  25  28
BRANCH  26  31
ATOM     31  C   UNL     1      -6.019   3.904   7.887  0.00  0.00    +0.324 C 
BRANCH  31  32
ATOM     32  O   UNL     1      -6.591   2.830   8.636  0.00  0.00    -0.483 OA
BRANCH  32  33
ATOM     33  C   UNL     1      -7.875   2.984   9.053  0.00  0.00    +0.121 A 
ATOM     34  C   UNL     1      -8.568   4.148   8.754  0.00  0.00    +0.047 A 
ATOM     35  C   UNL     1      -9.875   4.300   9.175  0.00  0.00    +0.023 A 
ATOM     36  C   UNL     1     -10.489   3.298   9.904  0.00  0.00    +0.041 A 
ATOM     37  C   UNL     1      -9.798   2.139  10.209  0.00  0.00    +0.023 A 
ATOM     38  C   UNL     1      -8.493   1.980   9.785  0.00  0.00    +0.047 A 
ATOM     39 CL   UNL     1     -12.129   3.495  10.438  0.00  0.00    -0.084 Cl
ENDBRANCH  32  33
ENDBRANCH  31  32
ENDBRANCH  26  31
ENDBRANCH  24  25
ENDBRANCH   2  24
TORSDOF 9
