REMARK  Name = ZINC08995622
REMARK  6 active torsions:
REMARK  status: ('A' for Active; 'I' for Inactive)
REMARK    1  A    between atoms: C_1  and  C_2
REMARK    2  A    between atoms: C_2  and  C_3
REMARK    3  A    between atoms: C_3  and  C_5
REMARK    4  A    between atoms: C_3  and  N_6
REMARK    5  A    between atoms: C_11  and  C_28
REMARK    6  A    between atoms: C_28  and  C_29
REMARK                            x       y       z     vdW  Elec       q    Type
REMARK                         _______ _______ _______ _____ _____    ______ ____
ROOT
ATOM      1  N   UNL     1      -3.095   7.280   0.106  0.00  0.00    -0.239 N 
ATOM      2  C   UNL     1      -2.406   6.272   0.744  0.00  0.00    +0.224 C 
ATOM      3  O   UNL     1      -1.696   6.361   1.723  0.00  0.00    -0.275 OA
ATOM      4  C   UNL     1      -2.722   5.090  -0.014  0.00  0.00    +0.073 C 
ATOM      5  C   UNL     1      -2.657   3.621   0.034  0.00  0.00    -0.049 C 
ATOM      6  C   UNL     1      -4.438   4.282  -1.432  0.00  0.00    +0.050 C 
ATOM      7  C   UNL     1      -4.228   5.357  -0.396  0.00  0.00    +0.088 C 
ATOM      8  C   UNL     1      -4.061   6.803  -0.738  0.00  0.00    +0.225 C 
ATOM      9  O   UNL     1      -4.659   7.426  -1.588  0.00  0.00    -0.275 OA
ATOM     10  C   UNL     1      -4.416   4.813  -2.840  0.00  0.00    -0.027 A 
ATOM     11  C   UNL     1      -3.475   5.492  -3.582  0.00  0.00    +0.019 A 
ATOM     12  C   UNL     1      -3.750   5.854  -4.889  0.00  0.00    +0.018 A 
ATOM     13  C   UNL     1      -4.973   5.531  -5.450  0.00  0.00    +0.017 A 
ATOM     14  C   UNL     1      -5.917   4.847  -4.712  0.00  0.00    +0.024 A 
ATOM     15  C   UNL     1      -5.646   4.477  -3.397  0.00  0.00    +0.036 A 
ATOM     16  N   UNL     1      -6.424   3.785  -2.466  0.00  0.00    -0.286 N 
ATOM     17  C   UNL     1      -5.788   3.623  -1.292  0.00  0.00    +0.211 C 
ATOM     18  O   UNL     1      -6.217   3.055  -0.310  0.00  0.00    -0.277 OA
ATOM     19 BR   UNL     1      -2.458   6.788  -5.906  0.00  0.00    -0.050 Br
ATOM     20  H   UNL     1      -7.320   3.459  -2.646  0.00  0.00    +0.155 HD
ATOM     21  N   UNL     1      -3.365   3.287  -1.242  0.00  0.00    +0.394 N 
ATOM     22  H   UNL     1      -3.769   2.345  -1.181  0.00  0.00    -0.083 HD
ATOM     23  H   UNL     1      -2.707   3.328  -2.028  0.00  0.00    -0.083 HD
ENDROOT
BRANCH   1  24
ATOM     24  C   UNL     1      -2.823   8.706   0.308  0.00  0.00    +0.081 C 
ATOM     25  C   UNL     1      -1.377   9.010  -0.087  0.00  0.00    +0.028 C 
BRANCH  24  27
ATOM     26  C   UNL     1      -4.509   8.875   2.144  0.00  0.00    +0.006 C 
ATOM     27  C   UNL     1      -3.034   9.061   1.781  0.00  0.00    +0.019 C 
ENDBRANCH  24  27
ENDBRANCH   1  24
BRANCH   5  28
ATOM     28  C   UNL     1      -1.208   3.131   0.025  0.00  0.00    +0.080 C 
BRANCH  28  29
ATOM     29  C   UNL     1      -1.187   1.624   0.017  0.00  0.00    +0.209 C 
ATOM     30  O   UNL     1      -2.229   1.003   0.018  0.00  0.00    -0.276 OA
ATOM     31  N   UNL     1      -0.011   0.966   0.007  0.00  0.00    -0.329 N 
ATOM     32  H   UNL     1       0.002  -0.004   0.002  0.00  0.00    +0.145 HD
ATOM     33  H   UNL     1       0.822   1.462   0.002  0.00  0.00    +0.145 HD
ENDBRANCH  28  29
ENDBRANCH   5  28
TORSDOF 4
