REMARK  Name = ZINC08299081
REMARK  9 active torsions:
REMARK  status: ('A' for Active; 'I' for Inactive)
REMARK    1  A    between atoms: C_1  and  C_2
REMARK    2  A    between atoms: N_4  and  C_5
REMARK    3  A    between atoms: C_5  and  C_6
REMARK    4  A    between atoms: C_6  and  N_7
REMARK    5  A    between atoms: C_8  and  C_10
REMARK    6  A    between atoms: C_18  and  C_20
REMARK    7  A    between atoms: C_20  and  N_21
REMARK    8  A    between atoms: C_23  and  C_26
REMARK    9  A    between atoms: C_26  and  O_32
REMARK                            x       y       z     vdW  Elec       q    Type
REMARK                         _______ _______ _______ _____ _____    ______ ____
ROOT
ATOM      1  C   UNL     1      -0.714   3.008   3.784  0.00  0.00    +0.061 C 
ATOM      2  C   UNL     1      -1.362   3.559   2.510  0.00  0.00    -0.065 C 
ATOM      3  C   UNL     1       0.756   3.492   1.338  0.00  0.00    -0.078 C 
ATOM      4  C   UNL     1       1.465   2.938   2.578  0.00  0.00    -0.015 C 
ATOM      5  C   UNL     1       0.464   2.107   3.391  0.00  0.00    -0.004 C 
ATOM      6  C   UNL     1      -0.063   0.972   2.505  0.00  0.00    -0.010 C 
ATOM      7  C   UNL     1      -0.729   1.579   1.267  0.00  0.00    -0.046 C 
ATOM      8  N   UNL     1      -0.656   3.055   1.313  0.00  0.00    +0.383 N 
ATOM      9  H   UNL     1      -1.109   3.438   0.474  0.00  0.00    -0.081 HD
ENDROOT
BRANCH   1  11
ATOM     10  N   UNL     1      -1.082   5.072   5.096  0.00  0.00    -0.314 N 
ATOM     11  C   UNL     1      -0.216   4.149   4.633  0.00  0.00    +0.215 C 
ATOM     12  O   UNL     1       0.964   4.237   4.898  0.00  0.00    -0.276 OA
ATOM     13  H   UNL     1      -2.026   5.002   4.883  0.00  0.00    +0.149 HD
BRANCH  10  14
ATOM     14  C   UNL     1      -0.598   6.182   5.920  0.00  0.00    +0.123 C 
BRANCH  14  15
ATOM     15  C   UNL     1      -1.774   7.079   6.311  0.00  0.00    +0.123 C 
BRANCH  15  19
ATOM     16  C   UNL     1      -1.658  10.253   8.447  0.00  0.00    +0.109 C 
ATOM     17  C   UNL     1      -2.156   9.112   7.599  0.00  0.00    +0.210 C 
ATOM     18  O   UNL     1      -3.336   9.024   7.333  0.00  0.00    -0.276 OA
ATOM     19  N   UNL     1      -1.290   8.188   7.136  0.00  0.00    -0.314 N 
ATOM     20  H   UNL     1      -0.346   8.259   7.349  0.00  0.00    +0.149 HD
ENDBRANCH  15  19
ENDBRANCH  14  15
ENDBRANCH  10  14
ENDBRANCH   1  11
BRANCH   7  21
ATOM     21  C   UNL     1      -0.013   1.086   0.008  0.00  0.00    +0.130 C 
BRANCH  21  22
ATOM     22  N   UNL     1      -0.721   1.571  -1.179  0.00  0.00    -0.253 N 
ATOM     23  C   UNL     1      -0.178   2.290  -2.188  0.00  0.00    +0.136 A 
ATOM     24  C   UNL     1      -1.179   2.521  -3.069  0.00  0.00    +0.114 A 
ATOM     25  N   UNL     1      -2.274   1.946  -2.558  0.00  0.00    -0.132 NA
ATOM     26  N   UNL     1      -1.969   1.392  -1.438  0.00  0.00    -0.065 NA
BRANCH  24  27
ATOM     27  C   UNL     1      -1.081   3.280  -4.367  0.00  0.00    +0.111 C 
ATOM     28  C   UNL     1      -2.027   4.482  -4.327  0.00  0.00    +0.041 C 
ATOM     29  C   UNL     1      -1.928   5.253  -5.645  0.00  0.00    +0.003 C 
ATOM     30  C   UNL     1      -2.319   4.334  -6.804  0.00  0.00    +0.000 C 
ATOM     31  C   UNL     1      -1.373   3.133  -6.844  0.00  0.00    +0.003 C 
ATOM     32  C   UNL     1      -1.472   2.361  -5.526  0.00  0.00    +0.041 C 
BRANCH  27  33
ATOM     33  O   UNL     1       0.260   3.736  -4.552  0.00  0.00    -0.382 OA
ATOM     34  H   UNL     1       0.576   4.324  -3.853  0.00  0.00    +0.211 HD
ENDBRANCH  27  33
ENDBRANCH  24  27
ENDBRANCH  21  22
ENDBRANCH   7  21
TORSDOF 8
