REMARK  Name = ZINC39668923
REMARK  4 active torsions:
REMARK  status: ('A' for Active; 'I' for Inactive)
REMARK    1  A    between atoms: C_10  and  C_12
REMARK    2  A    between atoms: C_12  and  N_13
REMARK    3  A    between atoms: C_14  and  C_16
REMARK    4  A    between atoms: C_27  and  C_29
REMARK                            x       y       z     vdW  Elec       q    Type
REMARK                         _______ _______ _______ _____ _____    ______ ____
ROOT
ATOM      1  C   UNL     1       8.762  -1.401  -1.665  0.00  0.00    +0.100 C 
ATOM      2  C   UNL     1       8.265  -2.777  -2.165  0.00  0.00    +0.121 C 
ATOM      3  N   UNL     1       8.480  -2.742  -3.631  0.00  0.00    -0.296 N 
ATOM      4  C   UNL     1       9.779  -2.047  -3.797  0.00  0.00    +0.115 C 
ATOM      5  C   UNL     1       9.758  -0.927  -2.736  0.00  0.00    -0.004 C 
ATOM      6  C   UNL     1      11.145  -0.751  -2.127  0.00  0.00    -0.010 C 
ATOM      7  C   UNL     1      12.104  -0.223  -3.198  0.00  0.00    -0.082 C 
ATOM      8  N   UNL     1      11.607   1.058  -3.715  0.00  0.00    +0.379 N 
ATOM      9  C   UNL     1      10.315   0.862  -4.381  0.00  0.00    -0.082 C 
ATOM     10  C   UNL     1       9.280   0.380  -3.360  0.00  0.00    -0.010 C 
ATOM     11  C   UNL     1       7.676  -3.232  -4.595  0.00  0.00    +0.247 C 
ATOM     12  O   UNL     1       6.577  -3.666  -4.308  0.00  0.00    -0.270 OA
ATOM     13  H   UNL     1      11.495   1.706  -2.950  0.00  0.00    -0.086 HD
ATOM     14  H   UNL     1      12.272   1.433  -4.375  0.00  0.00    -0.086 HD
ENDROOT
BRANCH  11  15
ATOM     15  C   UNL     1       8.130  -3.241  -6.002  0.00  0.00    +0.038 A 
ATOM     16  C   UNL     1       9.492  -3.166  -6.299  0.00  0.00    +0.013 A 
ATOM     17  C   UNL     1       9.909  -3.175  -7.614  0.00  0.00    +0.002 A 
ATOM     18  C   UNL     1       8.982  -3.258  -8.637  0.00  0.00    +0.015 A 
ATOM     19  C   UNL     1       7.630  -3.332  -8.350  0.00  0.00    +0.019 A 
ATOM     20  C   UNL     1       7.199  -3.330  -7.038  0.00  0.00    +0.028 A 
ATOM     21 BR   UNL     1       6.371  -3.443  -9.756  0.00  0.00    -0.050 Br
ENDBRANCH  11  15
BRANCH   1  23
ATOM     22  N   UNL     1       7.694   0.622  -0.724  0.00  0.00    -0.312 N 
ATOM     23  C   UNL     1       7.610  -0.436  -1.555  0.00  0.00    +0.218 C 
ATOM     24  O   UNL     1       6.607  -0.610  -2.215  0.00  0.00    -0.275 OA
ATOM     25  H   UNL     1       8.495   0.761  -0.196  0.00  0.00    +0.149 HD
BRANCH  22  26
ATOM     26  C   UNL     1       6.574   1.560  -0.617  0.00  0.00    +0.140 C 
BRANCH  26  36
ATOM     27  C   UNL     1       3.652   5.402   0.616  0.00  0.00    +0.000 A 
ATOM     28  C   UNL     1       4.082   4.924  -0.608  0.00  0.00    +0.000 A 
ATOM     29  C   UNL     1       5.139   4.038  -0.668  0.00  0.00    +0.006 A 
ATOM     30  C   UNL     1       5.771   3.624   0.494  0.00  0.00    -0.014 A 
ATOM     31  C   UNL     1       5.339   4.098   1.715  0.00  0.00    -0.040 A 
ATOM     32  C   UNL     1       4.281   4.990   1.774  0.00  0.00    +0.004 A 
ATOM     33  C   UNL     1       5.992   3.661   3.002  0.00  0.00    +0.063 C 
ATOM     34  C   UNL     1       7.357   3.036   2.704  0.00  0.00    +0.165 C 
ATOM     35  O   UNL     1       7.196   2.071   1.658  0.00  0.00    -0.370 OA
ATOM     36  C   UNL     1       6.924   2.660   0.387  0.00  0.00    +0.165 C 
ENDBRANCH  26  36
ENDBRANCH  22  26
ENDBRANCH   1  23
TORSDOF 4
