REMARK  Name = ZINC17173917
REMARK  12 active torsions:
REMARK  status: ('A' for Active; 'I' for Inactive)
REMARK    1  A    between atoms: C_4  and  C_7
REMARK    2  A    between atoms: C_7  and  C_8
REMARK    3  A    between atoms: C_8  and  C_10
REMARK    4  A    between atoms: C_8  and  N_32
REMARK    5  A    between atoms: N_12  and  N_13
REMARK    6  A    between atoms: C_14  and  C_16
REMARK    7  A    between atoms: C_16  and  N_17
REMARK    8  A    between atoms: C_18  and  C_20
REMARK    9  A    between atoms: C_20  and  N_21
REMARK   10  A    between atoms: C_22  and  O_24
REMARK   11  A    between atoms: O_24  and  C_25
REMARK   12  A    between atoms: C_25  and  C_26
REMARK                            x       y       z     vdW  Elec       q    Type
REMARK                         _______ _______ _______ _____ _____    ______ ____
ROOT
ATOM      1  N   UNL     1       1.193   1.683  -0.000  0.00  0.00    -0.233 N 
ATOM      2  C   UNL     1       2.369   1.025  -0.015  0.00  0.00    +0.246 C 
ATOM      3  O   UNL     1       2.385  -0.188  -0.022  0.00  0.00    -0.273 OA
ATOM      4  H   UNL     1       1.178   2.783   0.006  0.00  0.00    +0.173 HD
ENDROOT
BRANCH   1   7
ATOM      5  C   UNL     1      -1.187   1.624   0.017  0.00  0.00    +0.215 C 
ATOM      6  O   UNL     1      -1.204   2.837   0.023  0.00  0.00    -0.276 OA
ATOM      7  N   UNL     1      -0.011   0.966   0.007  0.00  0.00    -0.236 N 
ATOM      8  H   UNL     1       0.004  -0.134   0.006  0.00  0.00    +0.173 HD
BRANCH   5   9
ATOM      9  C   UNL     1      -2.482   0.853   0.018  0.00  0.00    +0.019 C 
BRANCH   9  10
ATOM     10  N   UNL     1      -3.571   1.723  -0.445  0.00  0.00    +0.386 N 
ATOM     11  H   UNL     1      -3.353   2.071  -1.466  0.00  0.00    -0.089 HD
ATOM     12  H   UNL     1      -3.659   2.589   0.226  0.00  0.00    -0.089 HD
ATOM     13  H   UNL     1      -4.516   1.160  -0.444  0.00  0.00    -0.089 HD
ENDBRANCH   9  10
BRANCH   9  14
ATOM     14  C   UNL     1      -2.785   0.369   1.438  0.00  0.00    +0.028 C 
BRANCH  14  18
ATOM     15  C   UNL     1      -6.266  -2.107   1.386  0.00  0.00    +0.000 A 
ATOM     16  C   UNL     1      -5.015  -2.670   1.213  0.00  0.00    +0.000 A 
ATOM     17  C   UNL     1      -3.889  -1.868   1.229  0.00  0.00    +0.003 A 
ATOM     18  C   UNL     1      -4.013  -0.505   1.419  0.00  0.00    -0.048 A 
ATOM     19  C   UNL     1      -5.264   0.057   1.598  0.00  0.00    +0.003 A 
ATOM     20  C   UNL     1      -6.390  -0.744   1.576  0.00  0.00    +0.000 A 
ENDBRANCH  14  18
ENDBRANCH   9  14
ENDBRANCH   5   9
ENDBRANCH   1   7
BRANCH   2  21
ATOM     21  C   UNL     1       3.663   1.796  -0.023  0.00  0.00    +0.201 C 
BRANCH  21  22
ATOM     22  N   UNL     1       4.790   0.859  -0.039  0.00  0.00    -0.305 N 
ATOM     23  C   UNL     1       6.054   1.326  -0.049  0.00  0.00    +0.231 C 
ATOM     24  O   UNL     1       6.260   2.521  -0.044  0.00  0.00    -0.274 OA
ATOM     25  H   UNL     1       4.603  -0.225  -0.043  0.00  0.00    +0.149 HD
BRANCH  23  26
ATOM     26  C   UNL     1       7.213   0.362  -0.065  0.00  0.00    +0.203 C 
BRANCH  26  27
ATOM     27  N   UNL     1       8.471   1.112  -0.073  0.00  0.00    -0.273 N 
ATOM     28  C   UNL     1       9.648   0.454  -0.088  0.00  0.00    +0.401 C 
ATOM     29  O   UNL     1       9.664  -0.761  -0.094  0.00  0.00    -0.226 OA
ATOM     30  H   UNL     1       8.456   2.212  -0.067  0.00  0.00    +0.153 HD
BRANCH  28  31
ATOM     31  O   UNL     1      10.804   1.143  -0.095  0.00  0.00    -0.446 OA
BRANCH  31  32
ATOM     32  C   UNL     1      12.033   0.369  -0.111  0.00  0.00    +0.269 C 
BRANCH  32  33
ATOM     33  C   UNL     1      13.215   1.303  -0.117  0.00  0.00    -0.010 A 
ATOM     34  C   UNL     1      13.749   1.733  -1.317  0.00  0.00    +0.007 A 
ATOM     35  C   UNL     1      14.831   2.594  -1.323  0.00  0.00    +0.000 A 
ATOM     36  C   UNL     1      15.385   3.017  -0.129  0.00  0.00    +0.000 A 
ATOM     37  C   UNL     1      14.854   2.582   1.071  0.00  0.00    +0.000 A 
ATOM     38  C   UNL     1      13.769   1.725   1.077  0.00  0.00    +0.007 A 
ENDBRANCH  32  33
ENDBRANCH  31  32
ENDBRANCH  28  31
ENDBRANCH  26  27
ENDBRANCH  23  26
ENDBRANCH  21  22
ENDBRANCH   2  21
TORSDOF 12
