REMARK  Name = ZINC59110142
REMARK  7 active torsions:
REMARK  status: ('A' for Active; 'I' for Inactive)
REMARK    1  A    between atoms: C_4  and  N_6
REMARK    2  A    between atoms: N_6  and  C_7
REMARK    3  A    between atoms: C_7  and  N_9
REMARK    4  A    between atoms: N_9  and  N_10
REMARK    5  A    between atoms: N_10  and  C_11
REMARK    6  A    between atoms: C_11  and  N_13
REMARK    7  A    between atoms: N_13  and  C_14
REMARK                            x       y       z     vdW  Elec       q    Type
REMARK                         _______ _______ _______ _____ _____    ______ ____
ROOT
ATOM      1  N   UNL     1       1.776  -3.936   1.038  0.00  0.00    -0.247 N 
ATOM      2  H   UNL     1       1.701  -4.820   0.646  0.00  0.00    +0.172 HD
ENDROOT
BRANCH   1   3
ATOM      3  C   UNL     1       1.587  -2.842   0.273  0.00  0.00    +0.147 C 
ATOM      4  S   UNL     1       1.214  -3.014  -1.389  0.00  0.00    -0.017 S 
BRANCH   3   5
ATOM      5  N   UNL     1       1.692  -1.613   0.817  0.00  0.00    -0.323 N 
ATOM      6  H   UNL     1       1.903  -1.516   1.758  0.00  0.00    +0.148 HD
BRANCH   5  10
ATOM      7  C   UNL     1      -0.019   1.534   0.011  0.00  0.00    +0.002 C 
ATOM      8  C   UNL     1       1.453   1.995  -0.001  0.00  0.00    +0.002 C 
ATOM      9  C   UNL     1       2.232   0.792   0.586  0.00  0.00    +0.022 C 
ATOM     10  C   UNL     1       1.486  -0.425  -0.014  0.00  0.00    +0.072 C 
ATOM     11  C   UNL     1       0.002  -0.004   0.002  0.00  0.00    +0.022 C 
ENDBRANCH   5  10
ENDBRANCH   3   5
ENDBRANCH   1   3
BRANCH   1  12
ATOM     12  N   UNL     1       2.081  -3.795   2.398  0.00  0.00    -0.247 N 
ATOM     13  H   UNL     1       2.156  -2.911   2.789  0.00  0.00    +0.172 HD
BRANCH  12  14
ATOM     14  C   UNL     1       2.270  -4.889   3.162  0.00  0.00    +0.147 C 
ATOM     15  S   UNL     1       2.643  -4.718   4.824  0.00  0.00    -0.017 S 
BRANCH  14  16
ATOM     16  N   UNL     1       2.165  -6.118   2.619  0.00  0.00    -0.323 N 
ATOM     17  H   UNL     1       1.954  -6.215   1.677  0.00  0.00    +0.148 HD
BRANCH  16  18
ATOM     18  C   UNL     1       2.370  -7.307   3.450  0.00  0.00    +0.072 C 
ATOM     19  C   UNL     1       3.866  -7.682   3.474  0.00  0.00    +0.022 C 
ATOM     20  C   UNL     1       3.869  -9.231   3.470  0.00  0.00    +0.002 C 
ATOM     21  C   UNL     1       2.694  -9.573   2.521  0.00  0.00    +0.002 C 
ATOM     22  C   UNL     1       1.625  -8.509   2.844  0.00  0.00    +0.022 C 
ENDBRANCH  16  18
ENDBRANCH  14  16
ENDBRANCH  12  14
ENDBRANCH   1  12
TORSDOF 7
