REMARK  Name = ZINC09441612
REMARK  8 active torsions:
REMARK  status: ('A' for Active; 'I' for Inactive)
REMARK    1  A    between atoms: C_1  and  C_2
REMARK    2  A    between atoms: C_2  and  N_56
REMARK    3  A    between atoms: C_3  and  C_4
REMARK    4  A    between atoms: C_3  and  N_56
REMARK    5  A    between atoms: N_6  and  C_7
REMARK    6  A    between atoms: C_7  and  C_8
REMARK    7  A    between atoms: C_13  and  N_14
REMARK    8  A    between atoms: C_13  and  N_56
REMARK                            x       y       z     vdW  Elec       q    Type
REMARK                         _______ _______ _______ _____ _____    ______ ____
ROOT
ATOM      1  N   UNL     1       5.261   0.546  -1.167  0.00  0.00    -0.241 N 
ATOM      2  C   UNL     1       3.962   0.199  -1.285  0.00  0.00    +0.249 C 
ATOM      3  O   UNL     1       3.387  -0.158  -2.291  0.00  0.00    -0.272 OA
ATOM      4  C   UNL     1       3.375   0.350   0.100  0.00  0.00    +0.138 C 
ATOM      5  C   UNL     1       2.862  -0.993   0.605  0.00  0.00    +0.040 C 
ATOM      6  C   UNL     1       1.581  -1.342  -0.163  0.00  0.00    +0.008 C 
ATOM      7  C   UNL     1       0.480  -0.375   0.268  0.00  0.00    +0.035 C 
ATOM      8  C   UNL     1       0.951   1.052   0.161  0.00  0.00    -0.042 A 
ATOM      9  C   UNL     1       2.287   1.386   0.092  0.00  0.00    -0.012 A 
ATOM     10  C   UNL     1       2.657   2.721   0.010  0.00  0.00    +0.006 A 
ATOM     11  C   UNL     1       1.700   3.715  -0.008  0.00  0.00    +0.000 A 
ATOM     12  C   UNL     1       0.360   3.379   0.056  0.00  0.00    +0.000 A 
ATOM     13  C   UNL     1      -0.010   2.053   0.140  0.00  0.00    +0.004 A 
ATOM     14  N   UNL     1       4.508   0.806   0.918  0.00  0.00    -0.281 N 
ATOM     15  C   UNL     1       5.566   0.891   0.090  0.00  0.00    +0.308 C 
ATOM     16  O   UNL     1       6.675   1.242   0.444  0.00  0.00    -0.252 OA
ATOM     17  H   UNL     1       4.495   1.006   1.867  0.00  0.00    +0.152 HD
ENDROOT
BRANCH   1  18
ATOM     18  C   UNL     1       6.217   0.545  -2.276  0.00  0.00    +0.043 C 
BRANCH  18  19
ATOM     19  N   UNL     1       6.184   1.871  -2.928  0.00  0.00    +0.396 N 
ATOM     20  H   UNL     1       5.229   2.245  -2.876  0.00  0.00    -0.079 HD
BRANCH  19  22
ATOM     21  C   UNL     1       8.539   2.280  -2.294  0.00  0.00    -0.017 C 
ATOM     22  C   UNL     1       7.101   2.799  -2.232  0.00  0.00    -0.079 C 
ENDBRANCH  19  22
BRANCH  19  23
ATOM     23  C   UNL     1       6.575   1.746  -4.348  0.00  0.00    +0.021 C 
BRANCH  23  24
ATOM     24  C   UNL     1       6.181   3.009  -5.071  0.00  0.00    +0.197 C 
ATOM     25  O   UNL     1       5.554   3.869  -4.491  0.00  0.00    -0.278 OA
ATOM     26  N   UNL     1       6.526   3.181  -6.363  0.00  0.00    -0.312 N 
ATOM     27  H   UNL     1       7.028   2.493  -6.827  0.00  0.00    +0.149 HD
BRANCH  26  28
ATOM     28  C   UNL     1       6.144   4.408  -7.066  0.00  0.00    +0.146 C 
BRANCH  28  29
ATOM     29  C   UNL     1       6.647   4.351  -8.485  0.00  0.00    +0.007 A 
ATOM     30  C   UNL     1       6.030   3.866  -9.590  0.00  0.00    +0.013 A 
ATOM     31  C   UNL     1       6.690   3.919 -10.804  0.00  0.00    +0.008 A 
ATOM     32  C   UNL     1       7.934   4.455 -10.852  0.00  0.00    +0.045 A 
ATOM     33  S   UNL     1       8.206   4.914  -9.149  0.00  0.00    -0.100 S 
ENDBRANCH  28  29
ENDBRANCH  26  28
ENDBRANCH  23  24
ENDBRANCH  19  23
ENDBRANCH  18  19
ENDBRANCH   1  18
TORSDOF 7
