REMARK  Name = ZINC63626014
REMARK  9 active torsions:
REMARK  status: ('A' for Active; 'I' for Inactive)
REMARK    1  A    between atoms: C_1  and  O_2
REMARK    2  A    between atoms: O_2  and  C_3
REMARK    3  A    between atoms: C_8  and  S_13
REMARK    4  A    between atoms: S_13  and  C_14
REMARK    5  A    between atoms: C_14  and  C_16
REMARK    6  A    between atoms: C_14  and  C_22
REMARK    7  A    between atoms: N_24  and  C_25
REMARK    8  A    between atoms: C_28  and  S_31
REMARK    9  A    between atoms: S_31  and  N_34
REMARK                            x       y       z     vdW  Elec       q    Type
REMARK                         _______ _______ _______ _____ _____    ______ ____
ROOT
ATOM      1  C   UNL     1       4.689  -3.800   2.198  0.00  0.00    +0.166 C 
ENDROOT
BRANCH   1   2
ATOM      2  C   UNL     1       3.920  -3.887   0.906  0.00  0.00    -0.026 A 
ATOM      3  C   UNL     1       3.731  -5.113   0.295  0.00  0.00    +0.005 A 
ATOM      4  C   UNL     1       3.025  -5.193  -0.890  0.00  0.00    +0.000 A 
ATOM      5  C   UNL     1       2.507  -4.048  -1.465  0.00  0.00    +0.000 A 
ATOM      6  C   UNL     1       2.695  -2.822  -0.854  0.00  0.00    +0.000 A 
ATOM      7  C   UNL     1       3.397  -2.742   0.334  0.00  0.00    +0.005 A 
ENDBRANCH   1   2
BRANCH   1   8
ATOM      8  C   UNL     1       6.090  -4.313   1.985  0.00  0.00    +0.235 C 
ATOM      9  O   UNL     1       6.358  -5.469   2.240  0.00  0.00    -0.274 OA
ATOM     10  N   UNL     1       7.045  -3.489   1.510  0.00  0.00    -0.284 N 
ATOM     11  H   UNL     1       6.817  -2.585   1.243  0.00  0.00    +0.155 HD
BRANCH  10  12
ATOM     12  C   UNL     1       8.366  -3.938   1.403  0.00  0.00    +0.034 A 
ATOM     13  C   UNL     1       9.419  -3.064   1.641  0.00  0.00    +0.025 A 
ATOM     14  C   UNL     1      10.722  -3.510   1.534  0.00  0.00    +0.030 A 
ATOM     15  C   UNL     1      10.979  -4.825   1.191  0.00  0.00    +0.105 A 
ATOM     16  C   UNL     1       9.932  -5.697   0.953  0.00  0.00    +0.030 A 
ATOM     17  C   UNL     1       8.627  -5.259   1.064  0.00  0.00    +0.025 A 
BRANCH  15  18
ATOM     18  S   UNL     1      12.642  -5.389   1.056  0.00  0.00    +0.056 S 
ATOM     19  O   UNL     1      12.619  -6.516   0.191  0.00  0.00    -0.153 OA
ATOM     20  O   UNL     1      13.440  -4.243   0.793  0.00  0.00    -0.153 OA
BRANCH  18  21
ATOM     21  N   UNL     1      13.092  -5.948   2.549  0.00  0.00    -0.204 NA
ATOM     22  H   UNL     1      13.743  -6.663   2.623  0.00  0.00    +0.144 HD
ATOM     23  H   UNL     1      12.705  -5.560   3.349  0.00  0.00    +0.144 HD
ENDBRANCH  18  21
ENDBRANCH  15  18
ENDBRANCH  10  12
ENDBRANCH   1   8
BRANCH   1  24
ATOM     24  S   UNL     1       3.864  -4.804   3.463  0.00  0.00    -0.097 S 
BRANCH  24  30
ATOM     25  C   UNL     1       0.619  -0.636   0.999  0.00  0.00    +0.122 A 
ATOM     26  C   UNL     1       1.212   0.188   2.045  0.00  0.00    +0.048 A 
ATOM     27  C   UNL     1       1.841  -0.353   3.105  0.00  0.00    +0.031 A 
ATOM     28  C   UNL     1       1.942  -1.815   3.227  0.00  0.00    +0.061 A 
ATOM     29  N   UNL     1       2.484  -2.584   4.128  0.00  0.00    -0.355 N 
ATOM     30  C   UNL     1       2.269  -3.975   3.710  0.00  0.00    +0.236 C 
ATOM     31  N   UNL     1       1.529  -3.917   2.443  0.00  0.00    -0.355 N 
ATOM     32  C   UNL     1       1.337  -2.658   2.160  0.00  0.00    +0.064 A 
ATOM     33  C   UNL     1       0.666  -1.990   1.043  0.00  0.00    +0.073 A 
ATOM     34  H   UNL     1       2.946  -2.291   4.929  0.00  0.00    +0.162 HD
ATOM     35  H   UNL     1       1.236  -4.676   1.915  0.00  0.00    +0.162 HD
BRANCH  25  37
ATOM     36  C   UNL     1      -0.024   1.398  -0.045  0.00  0.00    +0.277 C 
ATOM     37  O   UNL     1      -0.001  -0.030  -0.044  0.00  0.00    -0.495 OA
ENDBRANCH  25  37
ENDBRANCH  24  30
ENDBRANCH   1  24
TORSDOF 8
