REMARK  Name = ZINC43213762
REMARK  14 active torsions:
REMARK  status: ('A' for Active; 'I' for Inactive)
REMARK    1  A    between atoms: C_1  and  C_2
REMARK    2  A    between atoms: C_2  and  C_3
REMARK    3  A    between atoms: C_2  and  C_4
REMARK    4  A    between atoms: C_4  and  C_5
REMARK    5  A    between atoms: C_5  and  C_7
REMARK    6  A    between atoms: C_5  and  N_19
REMARK    7  A    between atoms: N_9  and  C_10
REMARK    8  A    between atoms: C_13  and  N_16
REMARK    9  A    between atoms: C_20  and  C_22
REMARK   10  A    between atoms: C_25  and  C_27
REMARK   11  A    between atoms: C_27  and  C_29
REMARK   12  A    between atoms: C_27  and  N_32
REMARK   13  A    between atoms: C_29  and  C_30
REMARK   14  A    between atoms: C_29  and  C_31
REMARK                            x       y       z     vdW  Elec       q    Type
REMARK                         _______ _______ _______ _____ _____    ______ ____
ROOT
ATOM      1  C   UNL     1      -0.026  -0.002   2.674  0.00  0.00    +0.160 C 
ENDROOT
BRANCH   1   2
ATOM      2  C   UNL     1       0.833  -0.457   3.826  0.00  0.00    +0.238 C 
ATOM      3  O   UNL     1       1.255   0.353   4.625  0.00  0.00    -0.273 OA
ATOM      4  N   UNL     1       1.131  -1.763   3.970  0.00  0.00    -0.284 N 
ATOM      5  H   UNL     1       0.857  -2.401   3.292  0.00  0.00    +0.155 HD
BRANCH   4   6
ATOM      6  C   UNL     1       1.837  -2.200   5.096  0.00  0.00    +0.034 A 
ATOM      7  C   UNL     1       1.561  -3.442   5.652  0.00  0.00    +0.025 A 
ATOM      8  C   UNL     1       2.259  -3.870   6.764  0.00  0.00    +0.034 A 
ATOM      9  C   UNL     1       3.232  -3.063   7.324  0.00  0.00    +0.126 A 
ATOM     10  C   UNL     1       3.510  -1.826   6.773  0.00  0.00    +0.034 A 
ATOM     11  C   UNL     1       2.819  -1.394   5.658  0.00  0.00    +0.025 A 
BRANCH   9  12
ATOM     12  N   UNL     1       3.979  -3.526   8.516  0.00  0.00    +0.056 N 
ATOM     13  O   UNL     1       3.737  -4.607   8.999  0.00  0.00    -0.126 OA
ATOM     14  O   UNL     1       4.830  -2.821   9.007  0.00  0.00    -0.126 OA
ENDBRANCH   9  12
ENDBRANCH   4   6
ENDBRANCH   1   2
BRANCH   1  15
ATOM     15  N   UNL     1      -0.590   1.316   2.976  0.00  0.00    -0.299 N 
ATOM     16  C   UNL     1      -1.770   1.683   2.439  0.00  0.00    +0.266 C 
ATOM     17  O   UNL     1      -2.412   0.887   1.779  0.00  0.00    -0.268 OA
ATOM     18  H   UNL     1      -0.114   1.925   3.562  0.00  0.00    +0.150 HD
BRANCH  16  19
ATOM     19  C   UNL     1      -2.284   3.048   2.651  0.00  0.00    +0.163 A 
ATOM     20  C   UNL     1      -3.456   3.554   2.178  0.00  0.00    +0.230 A 
ATOM     21  O   UNL     1      -3.533   4.825   2.603  0.00  0.00    -0.449 OA
ATOM     22  C   UNL     1      -2.434   5.095   3.321  0.00  0.00    +0.182 A 
ATOM     23  N   UNL     1      -1.679   4.038   3.362  0.00  0.00    -0.210 NA
BRANCH  22  24
ATOM     24  C   UNL     1      -2.124   6.414   3.980  0.00  0.00    +0.015 C 
BRANCH  24  25
ATOM     25  N   UNL     1      -2.409   7.509   3.042  0.00  0.00    +0.386 N 
ATOM     26  H   UNL     1      -1.837   7.402   2.218  0.00  0.00    -0.089 HD
ATOM     27  H   UNL     1      -3.384   7.483   2.781  0.00  0.00    -0.089 HD
ATOM     28  H   UNL     1      -2.202   8.392   3.483  0.00  0.00    -0.089 HD
ENDBRANCH  24  25
BRANCH  24  29
ATOM     29  C   UNL     1      -2.991   6.576   5.230  0.00  0.00    -0.023 C 
ATOM     30  C   UNL     1      -2.677   7.915   5.899  0.00  0.00    +0.006 C 
ATOM     31  C   UNL     1      -4.469   6.537   4.835  0.00  0.00    +0.006 C 
ENDBRANCH  24  29
ENDBRANCH  22  24
ENDBRANCH  16  19
ENDBRANCH   1  15
BRANCH   1  32
ATOM     32  C   UNL     1       0.826   0.086   1.407  0.00  0.00    +0.034 C 
BRANCH  32  34
ATOM     33  C   UNL     1       0.117  -2.174   0.610  0.00  0.00    +0.007 C 
ATOM     34  C   UNL     1       1.313  -1.313   1.022  0.00  0.00    -0.015 C 
ATOM     35  C   UNL     1       2.293  -1.208  -0.149  0.00  0.00    +0.007 C 
ENDBRANCH  32  34
ENDBRANCH   1  32
TORSDOF 10
