REMARK  Name = ZINC15133485
REMARK  8 active torsions:
REMARK  status: ('A' for Active; 'I' for Inactive)
REMARK    1  A    between atoms: C_1  and  C_2
REMARK    2  A    between atoms: C_2  and  O_3
REMARK    3  A    between atoms: O_3  and  C_4
REMARK    4  A    between atoms: C_4  and  C_6
REMARK    5  A    between atoms: C_6  and  C_31
REMARK    6  A    between atoms: C_11  and  C_28
REMARK    7  A    between atoms: C_14  and  C_25
REMARK    8  A    between atoms: C_16  and  C_18
REMARK                            x       y       z     vdW  Elec       q    Type
REMARK                         _______ _______ _______ _____ _____    ______ ____
ROOT
ATOM      1  C   UNL     1       4.828   4.152   0.326  0.00  0.00    +0.184 C 
ATOM      2  C   UNL     1       3.565   3.388   0.760  0.00  0.00    +0.128 C 
ATOM      3  C   UNL     1       2.316   4.135   0.365  0.00  0.00    -0.002 C 
ATOM      4  C   UNL     1       1.237   3.441   0.009  0.00  0.00    +0.012 C 
ATOM      5  C   UNL     1       1.246   1.964   0.001  0.00  0.00    +0.050 C 
ATOM      6  C   UNL     1       2.452   1.301  -0.009  0.00  0.00    +0.084 C 
ATOM      7  N   UNL     1       3.556   2.108   0.022  0.00  0.00    -0.314 N 
ATOM      8  C   UNL     1       4.852   1.961  -0.679  0.00  0.00    +0.169 C 
ATOM      9  C   UNL     1       5.804   2.995  -0.027  0.00  0.00    +0.081 C 
ENDROOT
BRANCH   9  10
ATOM     10  C   UNL     1       6.443   2.431   1.216  0.00  0.00    -0.039 A 
ATOM     11  C   UNL     1       5.654   1.887   2.213  0.00  0.00    +0.004 A 
ATOM     12  C   UNL     1       6.239   1.365   3.351  0.00  0.00    +0.001 A 
ATOM     13  C   UNL     1       7.614   1.397   3.498  0.00  0.00    +0.014 A 
ATOM     14  C   UNL     1       8.403   1.946   2.504  0.00  0.00    +0.014 A 
ATOM     15  C   UNL     1       7.816   2.463   1.363  0.00  0.00    +0.018 A 
ATOM     16  I   UNL     1      10.485   1.994   2.727  0.00  0.00    -0.044 I 
ENDBRANCH   9  10
BRANCH   8  17
ATOM     17  C   UNL     1       4.697   2.251  -2.150  0.00  0.00    +0.232 C 
ATOM     18  O   UNL     1       3.716   2.839  -2.552  0.00  0.00    -0.274 OA
ATOM     19  N   UNL     1       5.650   1.857  -3.018  0.00  0.00    -0.328 N 
ATOM     20  H   UNL     1       6.435   1.387  -2.696  0.00  0.00    +0.145 HD
ATOM     21  H   UNL     1       5.551   2.044  -3.964  0.00  0.00    +0.145 HD
ENDBRANCH   8  17
BRANCH   5  22
ATOM     22  C   UNL     1      -0.014   1.213   0.009  0.00  0.00    +0.243 C 
ATOM     23  O   UNL     1       0.002  -0.004   0.002  0.00  0.00    -0.270 OA
ATOM     24  N   UNL     1      -1.191   1.871   0.018  0.00  0.00    -0.325 N 
ATOM     25  H   UNL     1      -2.024   1.375   0.019  0.00  0.00    +0.145 HD
ATOM     26  H   UNL     1      -1.204   2.841   0.023  0.00  0.00    +0.145 HD
ENDBRANCH   5  22
BRANCH   1  27
ATOM     27  C   UNL     1       5.368   4.984   1.461  0.00  0.00    +0.330 C 
ATOM     28  O   UNL     1       6.477   4.770   1.891  0.00  0.00    -0.249 OA
BRANCH  27  29
ATOM     29  O   UNL     1       4.618   5.961   1.993  0.00  0.00    -0.464 OA
BRANCH  29  31
ATOM     30  C   UNL     1       4.208   7.784   3.555  0.00  0.00    +0.048 C 
ATOM     31  C   UNL     1       5.203   6.722   3.083  0.00  0.00    +0.229 C 
ENDBRANCH  29  31
ENDBRANCH  27  29
ENDBRANCH   1  27
BRANCH   1  32
ATOM     32  C   UNL     1       4.554   4.991  -0.852  0.00  0.00    +0.084 C 
ATOM     33  N   UNL     1       4.343   5.638  -1.761  0.00  0.00    -0.195 NA
ENDBRANCH   1  32
TORSDOF 7
