REMARK  Name = ZINC02637265
REMARK  7 active torsions:
REMARK  status: ('A' for Active; 'I' for Inactive)
REMARK    1  A    between atoms: C_1  and  C_2
REMARK    2  A    between atoms: C_2  and  C_23
REMARK    3  A    between atoms: N_5  and  C_9
REMARK    4  A    between atoms: C_9  and  C_10
REMARK    5  A    between atoms: N_12  and  C_13
REMARK    6  A    between atoms: C_16  and  S_19
REMARK    7  A    between atoms: S_19  and  N_22
REMARK                            x       y       z     vdW  Elec       q    Type
REMARK                         _______ _______ _______ _____ _____    ______ ____
ROOT
ATOM      1  C   UNL     1      -2.566  -1.989   1.811  0.00  0.00    +0.214 C 
ENDROOT
BRANCH   1   6
ATOM      2  C   UNL     1      -0.021   1.530   0.019  0.00  0.00    +0.047 C 
ATOM      3  C   UNL     1      -0.002   0.000   0.003  0.00  0.00    +0.135 C 
ATOM      4  C   UNL     1      -1.407  -0.552   0.145  0.00  0.00    +0.251 C 
ATOM      5  O   UNL     1      -2.340  -0.382  -0.609  0.00  0.00    -0.272 OA
ATOM      6  N   UNL     1      -1.401  -1.272   1.284  0.00  0.00    -0.215 N 
ATOM      7  C   UNL     1      -0.201  -1.252   1.875  0.00  0.00    +0.310 C 
ATOM      8  O   UNL     1       0.050  -1.829   2.915  0.00  0.00    -0.252 OA
ATOM      9  N   UNL     1       0.697  -0.522   1.190  0.00  0.00    -0.281 N 
ATOM     10  H   UNL     1       1.624  -0.369   1.430  0.00  0.00    +0.152 HD
BRANCH   3  11
ATOM     11  C   UNL     1       0.645  -0.507  -1.260  0.00  0.00    -0.014 A 
ATOM     12  C   UNL     1      -0.126  -0.756  -2.380  0.00  0.00    +0.006 A 
ATOM     13  C   UNL     1       0.467  -1.222  -3.538  0.00  0.00    +0.001 A 
ATOM     14  C   UNL     1       1.832  -1.439  -3.577  0.00  0.00    +0.015 A 
ATOM     15  C   UNL     1       2.604  -1.190  -2.457  0.00  0.00    +0.018 A 
ATOM     16  C   UNL     1       2.010  -0.719  -1.299  0.00  0.00    +0.021 A 
ATOM     17 BR   UNL     1       4.471  -1.487  -2.509  0.00  0.00    -0.050 Br
ENDBRANCH   3  11
ENDBRANCH   1   6
BRANCH   1  18
ATOM     18  C   UNL     1      -2.586  -3.390   1.258  0.00  0.00    +0.235 C 
ATOM     19  O   UNL     1      -1.713  -3.756   0.500  0.00  0.00    -0.274 OA
ATOM     20  N   UNL     1      -3.573  -4.239   1.608  0.00  0.00    -0.284 N 
ATOM     21  H   UNL     1      -4.233  -3.970   2.266  0.00  0.00    +0.155 HD
BRANCH  20  22
ATOM     22  C   UNL     1      -3.646  -5.507   1.021  0.00  0.00    +0.034 A 
ATOM     23  C   UNL     1      -4.883  -6.079   0.753  0.00  0.00    +0.025 A 
ATOM     24  C   UNL     1      -4.952  -7.331   0.174  0.00  0.00    +0.030 A 
ATOM     25  C   UNL     1      -3.791  -8.015  -0.139  0.00  0.00    +0.105 A 
ATOM     26  C   UNL     1      -2.558  -7.448   0.128  0.00  0.00    +0.030 A 
ATOM     27  C   UNL     1      -2.482  -6.194   0.701  0.00  0.00    +0.025 A 
BRANCH  25  28
ATOM     28  S   UNL     1      -3.883  -9.612  -0.877  0.00  0.00    +0.056 S 
ATOM     29  O   UNL     1      -2.662 -10.271  -0.572  0.00  0.00    -0.153 OA
ATOM     30  O   UNL     1      -5.149 -10.151  -0.523  0.00  0.00    -0.153 OA
BRANCH  28  31
ATOM     31  N   UNL     1      -3.904  -9.392  -2.519  0.00  0.00    -0.204 NA
ATOM     32  H   UNL     1      -3.868  -8.496  -2.888  0.00  0.00    +0.144 HD
ATOM     33  H   UNL     1      -3.953 -10.159  -3.110  0.00  0.00    +0.144 HD
ENDBRANCH  28  31
ENDBRANCH  25  28
ENDBRANCH  20  22
ENDBRANCH   1  18
TORSDOF 6
