REMARK  Name = ZINC36545061
REMARK  11 active torsions:
REMARK  status: ('A' for Active; 'I' for Inactive)
REMARK    1  A    between atoms: C_1  and  C_2
REMARK    2  A    between atoms: C_2  and  C_3
REMARK    3  A    between atoms: C_2  and  C_4
REMARK    4  A    between atoms: C_2  and  N_5
REMARK    5  A    between atoms: C_6  and  C_8
REMARK    6  A    between atoms: C_8  and  C_10
REMARK    7  A    between atoms: C_8  and  N_19
REMARK    8  A    between atoms: C_13  and  N_16
REMARK    9  A    between atoms: N_19  and  C_20
REMARK   10  A    between atoms: C_27  and  C_29
REMARK   11  A    between atoms: C_32  and  O_35
REMARK                            x       y       z     vdW  Elec       q    Type
REMARK                         _______ _______ _______ _____ _____    ______ ____
ROOT
ATOM      1  C   UNL     1       2.961  -0.482  -2.320  0.00  0.00    +0.198 C 
ENDROOT
BRANCH   1   2
ATOM      2  C   UNL     1       3.249  -1.933  -2.032  0.00  0.00    -0.018 A 
ATOM      3  C   UNL     1       4.405  -2.289  -1.364  0.00  0.00    +0.008 A 
ATOM      4  C   UNL     1       4.670  -3.619  -1.100  0.00  0.00    +0.033 A 
ATOM      5  C   UNL     1       3.777  -4.595  -1.504  0.00  0.00    +0.126 A 
ATOM      6  C   UNL     1       2.620  -4.239  -2.171  0.00  0.00    +0.033 A 
ATOM      7  C   UNL     1       2.354  -2.908  -2.432  0.00  0.00    +0.008 A 
BRANCH   5   8
ATOM      8  N   UNL     1       4.061  -6.020  -1.222  0.00  0.00    +0.056 N 
ATOM      9  O   UNL     1       5.073  -6.331  -0.638  0.00  0.00    -0.126 OA
ATOM     10  O   UNL     1       3.280  -6.873  -1.575  0.00  0.00    -0.126 OA
ENDBRANCH   5   8
ENDBRANCH   1   2
BRANCH   1  12
ATOM     11  N   UNL     1       1.811   0.124  -0.215  0.00  0.00    -0.309 N 
ATOM     12  C   UNL     1       2.878   0.281  -1.023  0.00  0.00    +0.239 C 
ATOM     13  O   UNL     1       3.773   1.036  -0.706  0.00  0.00    -0.273 OA
ATOM     14  H   UNL     1       1.095  -0.480  -0.469  0.00  0.00    +0.149 HD
BRANCH  11  16
ATOM     15  C   UNL     1       1.758   2.368   0.756  0.00  0.00    +0.031 C 
ATOM     16  C   UNL     1       1.731   0.865   1.045  0.00  0.00    +0.026 C 
ATOM     17  C   UNL     1       2.922   0.495   1.931  0.00  0.00    +0.031 C 
ATOM     18  C   UNL     1       0.429   0.508   1.766  0.00  0.00    +0.031 C 
ENDBRANCH  11  16
ENDBRANCH   1  12
BRANCH   1  19
ATOM     19  N   UNL     1       4.034   0.074  -3.147  0.00  0.00    -0.250 N 
ATOM     20  C   UNL     1       3.934   1.330  -3.626  0.00  0.00    +0.252 C 
ATOM     21  O   UNL     1       2.983   2.023  -3.320  0.00  0.00    -0.270 OA
BRANCH  19  22
ATOM     22  C   UNL     1       5.164  -0.698  -3.439  0.00  0.00    +0.056 A 
ATOM     23  C   UNL     1       5.078  -1.737  -4.356  0.00  0.00    +0.025 A 
ATOM     24  C   UNL     1       6.195  -2.498  -4.642  0.00  0.00    +0.002 A 
ATOM     25  C   UNL     1       7.398  -2.225  -4.016  0.00  0.00    +0.002 A 
ATOM     26  C   UNL     1       7.488  -1.191  -3.103  0.00  0.00    +0.022 A 
ATOM     27  C   UNL     1       6.376  -0.423  -2.816  0.00  0.00    +0.062 A 
ATOM     28 CL   UNL     1       6.490   0.880  -1.675  0.00  0.00    -0.082 Cl
ENDBRANCH  19  22
BRANCH  20  29
ATOM     29  C   UNL     1       4.979   1.863  -4.522  0.00  0.00    +0.037 A 
ATOM     30  C   UNL     1       5.580   1.032  -5.470  0.00  0.00    +0.016 A 
ATOM     31  C   UNL     1       6.554   1.533  -6.304  0.00  0.00    +0.046 A 
ATOM     32  C   UNL     1       6.939   2.865  -6.204  0.00  0.00    +0.117 A 
ATOM     33  C   UNL     1       6.343   3.696  -5.262  0.00  0.00    +0.046 A 
ATOM     34  C   UNL     1       5.365   3.203  -4.428  0.00  0.00    +0.016 A 
BRANCH  32  35
ATOM     35  O   UNL     1       7.899   3.356  -7.029  0.00  0.00    -0.507 OA
ATOM     36  H   UNL     1       7.558   3.721  -7.856  0.00  0.00    +0.292 HD
ENDBRANCH  32  35
ENDBRANCH  20  29
ENDBRANCH   1  19
TORSDOF 8
