REMARK  Name = ZINC66854742
REMARK  6 active torsions:
REMARK  status: ('A' for Active; 'I' for Inactive)
REMARK    1  A    between atoms: C_3  and  N_14
REMARK    2  A    between atoms: C_4  and  C_10
REMARK    3  A    between atoms: C_6  and  N_7
REMARK    4  A    between atoms: N_17  and  C_20
REMARK    5  A    between atoms: C_20  and  C_21
REMARK    6  A    between atoms: C_21  and  C_22
REMARK                            x       y       z     vdW  Elec       q    Type
REMARK                         _______ _______ _______ _____ _____    ______ ____
ROOT
ATOM      1  N   UNL     1       3.582   2.122  -0.021  0.00  0.00    -0.327 N 
ATOM      2  C   UNL     1       4.216   2.519  -1.288  0.00  0.00    +0.120 C 
ATOM      3  C   UNL     1       5.681   2.072  -1.260  0.00  0.00    +0.103 C 
ATOM      4  N   UNL     1       6.328   2.598  -0.050  0.00  0.00    -0.299 NA
ATOM      5  C   UNL     1       5.711   2.050   1.165  0.00  0.00    +0.103 C 
ATOM      6  C   UNL     1       4.243   2.501   1.237  0.00  0.00    +0.120 C 
ENDROOT
BRANCH   1   9
ATOM      7  C   UNL     1      -0.017   1.378   0.010  0.00  0.00    +0.034 A 
ATOM      8  C   UNL     1       1.169   2.087   0.002  0.00  0.00    +0.026 A 
ATOM      9  C   UNL     1       2.381   1.409  -0.013  0.00  0.00    +0.042 A 
ATOM     10  C   UNL     1       2.396   0.020  -0.021  0.00  0.00    +0.078 A 
ATOM     11  C   UNL     1       1.207  -0.682  -0.013  0.00  0.00    +0.047 A 
ATOM     12  C   UNL     1       0.002  -0.004   0.002  0.00  0.00    +0.127 A 
BRANCH  10  13
ATOM     13  C   UNL     1       3.709  -0.720  -0.038  0.00  0.00    +0.419 C 
ATOM     14  F   UNL     1       3.468  -2.098  -0.043  0.00  0.00    -0.166 F 
ATOM     15  F   UNL     1       4.428  -0.369  -1.185  0.00  0.00    -0.166 F 
ATOM     16  F   UNL     1       4.450  -0.381   1.099  0.00  0.00    -0.166 F 
ENDBRANCH  10  13
BRANCH  12  17
ATOM     17  N   UNL     1      -1.270  -0.760   0.010  0.00  0.00    +0.056 N 
ATOM     18  O   UNL     1      -2.325  -0.168   0.023  0.00  0.00    -0.126 OA
ATOM     19  O   UNL     1      -1.256  -1.969   0.004  0.00  0.00    -0.126 OA
ENDBRANCH  12  17
ENDBRANCH   1   9
BRANCH   4  20
ATOM     20  C   UNL     1       7.773   2.338  -0.070  0.00  0.00    +0.093 C 
BRANCH  20  21
ATOM     21  C   UNL     1       8.446   3.108   1.067  0.00  0.00    +0.111 C 
BRANCH  21  22
ATOM     22  C   UNL     1       9.929   2.841   1.047  0.00  0.00    +0.222 C 
ATOM     23  O   UNL     1      10.401   2.107   0.205  0.00  0.00    -0.275 OA
ATOM     24  N   UNL     1      10.730   3.418   1.964  0.00  0.00    -0.240 N 
ATOM     25  C   UNL     1      12.057   3.179   1.946  0.00  0.00    +0.303 C 
ATOM     26  O   UNL     1      12.530   2.444   1.102  0.00  0.00    -0.253 OA
ATOM     27  N   UNL     1      12.858   3.756   2.863  0.00  0.00    -0.313 N 
ATOM     28  H   UNL     1      10.352   4.005   2.638  0.00  0.00    +0.159 HD
ATOM     29  H   UNL     1      12.480   4.343   3.537  0.00  0.00    +0.146 HD
ATOM     30  H   UNL     1      13.812   3.584   2.850  0.00  0.00    +0.146 HD
ENDBRANCH  21  22
ENDBRANCH  20  21
ENDBRANCH   4  20
TORSDOF 6
