REMARK  Name = ZINC44876862
REMARK  10 active torsions:
REMARK  status: ('A' for Active; 'I' for Inactive)
REMARK    1  A    between atoms: C_1  and  C_2
REMARK    2  A    between atoms: C_5  and  S_8
REMARK    3  A    between atoms: S_8  and  N_11
REMARK    4  A    between atoms: N_11  and  C_12
REMARK    5  A    between atoms: C_15  and  C_19
REMARK    6  A    between atoms: N_21  and  C_22
REMARK    7  A    between atoms: C_22  and  C_23
REMARK    8  A    between atoms: C_26  and  C_29
REMARK    9  A    between atoms: C_29  and  N_30
REMARK   10  A    between atoms: C_33  and  C_36
REMARK                            x       y       z     vdW  Elec       q    Type
REMARK                         _______ _______ _______ _____ _____    ______ ____
ROOT
ATOM      1  C   UNL     1       2.954 -10.479  -0.071  0.00  0.00    +0.246 C 
ATOM      2  O   UNL     1       4.118 -10.830  -0.075  0.00  0.00    -0.270 OA
ATOM      3  N   UNL     1       1.972 -11.402  -0.076  0.00  0.00    -0.307 N 
ATOM      4  H   UNL     1       1.043 -11.122  -0.073  0.00  0.00    +0.149 HD
ENDROOT
BRANCH   1   8
ATOM      5  C   UNL     1       1.976  -6.351  -0.043  0.00  0.00    +0.076 A 
ATOM      6  C   UNL     1       0.966  -7.309  -0.049  0.00  0.00    +0.027 A 
ATOM      7  C   UNL     1       1.278  -8.639  -0.058  0.00  0.00    +0.016 A 
ATOM      8  C   UNL     1       2.616  -9.044  -0.062  0.00  0.00    +0.055 A 
ATOM      9  C   UNL     1       3.634  -8.084  -0.057  0.00  0.00    +0.055 A 
ATOM     10  C   UNL     1       3.311  -6.744  -0.053  0.00  0.00    +0.047 A 
ATOM     11 CL   UNL     1       5.298  -8.579  -0.062  0.00  0.00    -0.083 Cl
BRANCH   5  12
ATOM     12  N   UNL     1       1.651  -4.999  -0.034  0.00  0.00    -0.098 NA
BRANCH  12  13
ATOM     13  S   UNL     1       0.063  -4.530  -0.023  0.00  0.00    +0.092 S 
ATOM     14  O   UNL     1      -0.476  -4.950   1.223  0.00  0.00    -0.148 OA
ATOM     15  O   UNL     1      -0.490  -4.937  -1.267  0.00  0.00    -0.148 OA
BRANCH  13  20
ATOM     16  C   UNL     1      -0.018   1.503   0.010  0.00  0.00    +0.044 C 
ATOM     17  C   UNL     1       0.002  -0.004   0.002  0.00  0.00    -0.050 A 
ATOM     18  C   UNL     1       0.006  -0.689  -1.199  0.00  0.00    +0.005 A 
ATOM     19  C   UNL     1       0.025  -2.071  -1.206  0.00  0.00    +0.029 A 
ATOM     20  C   UNL     1       0.040  -2.768  -0.013  0.00  0.00    +0.110 A 
ATOM     21  C   UNL     1       0.037  -2.084   1.188  0.00  0.00    +0.029 A 
ATOM     22  C   UNL     1       0.023  -0.702   1.195  0.00  0.00    +0.005 A 
ENDBRANCH  13  20
ENDBRANCH  12  13
ENDBRANCH   5  12
ENDBRANCH   1   8
BRANCH   3  23
ATOM     23  C   UNL     1       2.308 -12.828  -0.085  0.00  0.00    +0.139 C 
BRANCH  23  24
ATOM     24  C   UNL     1       1.040 -13.643  -0.088  0.00  0.00    -0.030 A 
ATOM     25  C   UNL     1       0.457 -14.019   1.108  0.00  0.00    +0.005 A 
ATOM     26  C   UNL     1      -0.707 -14.766   1.105  0.00  0.00    +0.002 A 
ATOM     27  C   UNL     1      -1.287 -15.136  -0.094  0.00  0.00    -0.064 A 
ATOM     28  C   UNL     1      -0.704 -14.759  -1.290  0.00  0.00    +0.002 A 
ATOM     29  C   UNL     1       0.457 -14.009  -1.287  0.00  0.00    +0.005 A 
BRANCH  27  30
ATOM     30  C   UNL     1      -2.554 -15.951  -0.097  0.00  0.00    -0.043 C 
BRANCH  30  31
ATOM     31  N   UNL     1      -3.715 -15.051  -0.096  0.00  0.00    +0.382 N 
ATOM     32  C   UNL     1      -3.736 -14.280  -1.345  0.00  0.00    -0.078 C 
ATOM     33  C   UNL     1      -4.897 -13.284  -1.313  0.00  0.00    -0.016 C 
ATOM     34  C   UNL     1      -6.215 -14.048  -1.161  0.00  0.00    -0.018 C 
ATOM     35  C   UNL     1      -6.153 -14.906   0.105  0.00  0.00    -0.016 C 
ATOM     36  C   UNL     1      -4.946 -15.843   0.022  0.00  0.00    -0.078 C 
ATOM     37  C   UNL     1      -7.373 -13.055  -1.050  0.00  0.00    +0.007 C 
ATOM     38  H   UNL     1      -3.648 -14.418   0.687  0.00  0.00    -0.081 HD
ENDBRANCH  30  31
ENDBRANCH  27  30
ENDBRANCH  23  24
ENDBRANCH   3  23
TORSDOF 8
