REMARK  Name = ZINC40985681
REMARK  17 active torsions:
REMARK  status: ('A' for Active; 'I' for Inactive)
REMARK    1  A    between atoms: C_1  and  C_2
REMARK    2  A    between atoms: C_2  and  C_3
REMARK    3  A    between atoms: C_3  and  C_4
REMARK    4  A    between atoms: C_4  and  S_5
REMARK    5  A    between atoms: S_5  and  C_6
REMARK    6  A    between atoms: C_9  and  C_13
REMARK    7  A    between atoms: N_15  and  C_16
REMARK    8  A    between atoms: C_16  and  C_17
REMARK    9  A    between atoms: C_17  and  C_19
REMARK   10  A    between atoms: C_17  and  N_28
REMARK   11  A    between atoms: C_22  and  C_25
REMARK   12  A    between atoms: C_25  and  C_26
REMARK   13  A    between atoms: C_25  and  C_27
REMARK   14  A    between atoms: N_28  and  C_29
REMARK   15  A    between atoms: N_28  and  C_31
REMARK   16  A    between atoms: C_29  and  C_30
REMARK   17  A    between atoms: C_31  and  C_32
REMARK                            x       y       z     vdW  Elec       q    Type
REMARK                         _______ _______ _______ _____ _____    ______ ____
ROOT
ATOM      1  C   UNL     1       0.455 -11.532  -0.619  0.00  0.00    +0.094 C 
ENDROOT
BRANCH   1   4
ATOM      2  C   UNL     1       0.639 -10.275  -2.698  0.00  0.00    +0.248 C 
ATOM      3  O   UNL     1       0.748 -11.329  -3.294  0.00  0.00    -0.270 OA
ATOM      4  N   UNL     1       0.437 -10.272  -1.366  0.00  0.00    -0.312 N 
ATOM      5  H   UNL     1       0.279  -9.435  -0.901  0.00  0.00    +0.149 HD
BRANCH   2   9
ATOM      6  C   UNL     1       0.894  -6.680  -4.771  0.00  0.00    +0.190 A 
ATOM      7  N   UNL     1       0.585  -6.660  -3.480  0.00  0.00    -0.229 NA
ATOM      8  C   UNL     1       0.494  -7.779  -2.787  0.00  0.00    +0.129 A 
ATOM      9  C   UNL     1       0.729  -9.000  -3.433  0.00  0.00    +0.092 A 
ATOM     10  C   UNL     1       1.053  -8.977  -4.799  0.00  0.00    +0.146 A 
ATOM     11  N   UNL     1       1.119  -7.814  -5.421  0.00  0.00    -0.209 NA
ATOM     12 CL   UNL     1       1.357 -10.455  -5.657  0.00  0.00    -0.061 Cl
BRANCH   6  13
ATOM     13  S   UNL     1       1.002  -5.155  -5.648  0.00  0.00    -0.086 S 
BRANCH  13  14
ATOM     14  C   UNL     1       0.628  -3.900  -4.393  0.00  0.00    +0.077 C 
BRANCH  14  15
ATOM     15  C   UNL     1       0.688  -2.510  -5.029  0.00  0.00    +0.011 C 
BRANCH  15  17
ATOM     16  C   UNL     1       0.432  -0.060  -4.606  0.00  0.00    +0.004 C 
ATOM     17  C   UNL     1       0.372  -1.451  -3.970  0.00  0.00    -0.003 C 
ENDBRANCH  15  17
ENDBRANCH  14  15
ENDBRANCH  13  14
ENDBRANCH   6  13
ENDBRANCH   2   9
ENDBRANCH   1   4
BRANCH   1  18
ATOM     18  C   UNL     1       0.069 -11.268   0.837  0.00  0.00    -0.020 C 
BRANCH  18  19
ATOM     19  C   UNL     1       0.111 -12.560   1.611  0.00  0.00    -0.059 A 
ATOM     20  C   UNL     1       1.252 -12.912   2.307  0.00  0.00    +0.002 A 
ATOM     21  C   UNL     1       1.291 -14.098   3.016  0.00  0.00    +0.004 A 
ATOM     22  C   UNL     1       0.188 -14.931   3.031  0.00  0.00    -0.045 A 
ATOM     23  C   UNL     1      -0.954 -14.579   2.336  0.00  0.00    +0.004 A 
ATOM     24  C   UNL     1      -0.994 -13.391   1.630  0.00  0.00    +0.002 A 
BRANCH  22  25
ATOM     25  C   UNL     1       0.231 -16.224   3.804  0.00  0.00    +0.013 C 
ATOM     26  C   UNL     1      -0.864 -16.216   4.872  0.00  0.00    +0.012 C 
ATOM     27  C   UNL     1       0.002 -17.397   2.848  0.00  0.00    +0.012 C 
ENDBRANCH  22  25
ENDBRANCH  18  19
BRANCH  18  28
ATOM     28  N   UNL     1       1.014 -10.312   1.429  0.00  0.00    +0.385 N 
ATOM     29  H   UNL     1       0.859  -9.396   1.034  0.00  0.00    -0.081 HD
BRANCH  28  30
ATOM     30  C   UNL     1       0.813 -10.259   2.883  0.00  0.00    -0.081 C 
ATOM     31  C   UNL     1      -0.569  -9.675   3.185  0.00  0.00    -0.017 C 
ENDBRANCH  28  30
BRANCH  28  32
ATOM     32  C   UNL     1       2.389 -10.741   1.140  0.00  0.00    -0.081 C 
ATOM     33  C   UNL     1       2.945  -9.923  -0.027  0.00  0.00    -0.017 C 
ENDBRANCH  28  32
ENDBRANCH  18  28
ENDBRANCH   1  18
TORSDOF 12
