REMARK  Name = ZINC16603657
REMARK  12 active torsions:
REMARK  status: ('A' for Active; 'I' for Inactive)
REMARK    1  A    between atoms: C_1  and  C_2
REMARK    2  A    between atoms: C_2  and  O_3
REMARK    3  A    between atoms: O_3  and  C_4
REMARK    4  A    between atoms: C_4  and  C_6
REMARK    5  A    between atoms: C_7  and  C_38
REMARK    6  A    between atoms: N_8  and  C_21
REMARK    7  A    between atoms: C_12  and  C_14
REMARK    8  A    between atoms: C_21  and  C_22
REMARK    9  A    between atoms: C_26  and  C_28
REMARK   10  A    between atoms: N_30  and  C_31
REMARK   11  A    between atoms: C_31  and  C_32
REMARK   12  A    between atoms: C_32  and  N_74
REMARK                            x       y       z     vdW  Elec       q    Type
REMARK                         _______ _______ _______ _____ _____    ______ ____
ROOT
ATOM      1  C   UNL     1      -2.481   1.252  -2.724  0.00  0.00    +0.061 C 
ATOM      2  C   UNL     1      -1.646   0.766  -1.788  0.00  0.00    +0.021 C 
ATOM      3  N   UNL     1      -0.757   1.581  -1.141  0.00  0.00    -0.271 N 
ATOM      4  C   UNL     1      -0.477   2.811  -1.608  0.00  0.00    +0.221 C 
ATOM      5  O   UNL     1       0.248   3.548  -0.975  0.00  0.00    -0.275 OA
ATOM      6  C   UNL     1      -1.062   3.276  -2.917  0.00  0.00    +0.109 C 
ATOM      7  C   UNL     1      -2.479   2.719  -3.066  0.00  0.00    +0.066 C 
ATOM      8  C   UNL     1      -1.694  -0.700  -1.441  0.00  0.00    +0.061 C 
ENDROOT
BRANCH   7   9
ATOM      9  C   UNL     1      -3.408   3.453  -2.132  0.00  0.00    -0.037 A 
ATOM     10  C   UNL     1      -3.182   3.422  -0.768  0.00  0.00    +0.004 A 
ATOM     11  C   UNL     1      -4.030   4.099   0.089  0.00  0.00    +0.003 A 
ATOM     12  C   UNL     1      -5.110   4.798  -0.416  0.00  0.00    +0.038 A 
ATOM     13  C   UNL     1      -5.340   4.825  -1.781  0.00  0.00    +0.124 A 
ATOM     14  C   UNL     1      -4.487   4.152  -2.639  0.00  0.00    +0.042 A 
ATOM     15  F   UNL     1      -6.395   5.508  -2.276  0.00  0.00    -0.205 F 
ENDBRANCH   7   9
BRANCH   1  16
ATOM     16  C   UNL     1      -3.364   0.375  -3.398  0.00  0.00    +0.337 C 
ATOM     17  O   UNL     1      -3.369  -0.811  -3.126  0.00  0.00    -0.245 OA
BRANCH  16  18
ATOM     18  O   UNL     1      -4.200   0.855  -4.342  0.00  0.00    -0.462 OA
BRANCH  18  20
ATOM     19  C   UNL     1      -5.932   0.637  -6.014  0.00  0.00    +0.048 C 
ATOM     20  C   UNL     1      -5.065  -0.087  -4.982  0.00  0.00    +0.229 C 
ENDBRANCH  18  20
ENDBRANCH  16  18
ENDBRANCH   1  16
BRANCH   3  21
ATOM     21  C   UNL     1      -0.095   1.105   0.076  0.00  0.00    +0.148 C 
BRANCH  21  22
ATOM     22  C   UNL     1      -0.990   1.351   1.264  0.00  0.00    -0.029 A 
ATOM     23  C   UNL     1      -1.899   0.383   1.655  0.00  0.00    +0.005 A 
ATOM     24  C   UNL     1      -2.723   0.600   2.745  0.00  0.00    +0.001 A 
ATOM     25  C   UNL     1      -2.644   1.785   3.448  0.00  0.00    +0.013 A 
ATOM     26  C   UNL     1      -1.731   2.765   3.058  0.00  0.00    +0.037 A 
ATOM     27  C   UNL     1      -0.898   2.537   1.961  0.00  0.00    +0.018 A 
BRANCH  26  28
ATOM     28  C   UNL     1      -1.641   4.036   3.807  0.00  0.00    +0.244 C 
ATOM     29  O   UNL     1      -0.844   4.888   3.465  0.00  0.00    -0.270 OA
ATOM     30  N   UNL     1      -2.442   4.251   4.869  0.00  0.00    -0.313 N 
ATOM     31  H   UNL     1      -3.078   3.571   5.142  0.00  0.00    +0.149 HD
BRANCH  30  32
ATOM     32  C   UNL     1      -2.353   5.511   5.612  0.00  0.00    +0.086 C 
BRANCH  32  33
ATOM     33  C   UNL     1      -3.362   5.498   6.761  0.00  0.00    -0.060 C 
BRANCH  33  39
ATOM     34  C   UNL     1      -1.973   6.886   8.177  0.00  0.00    -0.079 C 
ATOM     35  C   UNL     1      -1.859   8.270   8.819  0.00  0.00    -0.019 C 
ATOM     36  C   UNL     1      -2.996   8.455   9.828  0.00  0.00    -0.004 C 
ATOM     37  C   UNL     1      -4.337   8.273   9.113  0.00  0.00    -0.019 C 
ATOM     38  C   UNL     1      -4.379   6.888   8.462  0.00  0.00    -0.079 C 
ATOM     39  N   UNL     1      -3.275   6.783   7.485  0.00  0.00    +0.381 N 
ATOM     40  H   UNL     1      -3.355   7.553   6.809  0.00  0.00    -0.082 HD
ENDBRANCH  33  39
ENDBRANCH  32  33
ENDBRANCH  30  32
ENDBRANCH  26  28
ENDBRANCH  21  22
ENDBRANCH   3  21
TORSDOF 10
