REMARK  Name = ZINC59283311
REMARK  12 active torsions:
REMARK  status: ('A' for Active; 'I' for Inactive)
REMARK    1  A    between atoms: C_1  and  C_2
REMARK    2  A    between atoms: C_5  and  C_8
REMARK    3  A    between atoms: C_8  and  C_34
REMARK    4  A    between atoms: N_11  and  C_15
REMARK    5  A    between atoms: C_15  and  C_16
REMARK    6  A    between atoms: N_18  and  C_19
REMARK    7  A    between atoms: C_22  and  C_25
REMARK    8  A    between atoms: C_25  and  C_26
REMARK    9  A    between atoms: N_28  and  C_29
REMARK   10  A    between atoms: C_29  and  C_30
REMARK   11  A    between atoms: C_30  and  O_32
REMARK   12  A    between atoms: O_32  and  C_33
REMARK                            x       y       z     vdW  Elec       q    Type
REMARK                         _______ _______ _______ _____ _____    ______ ____
ROOT
ATOM      1  C   UNL     1      -3.916  -5.345   1.651  0.00  0.00    +0.235 C 
ATOM      2  O   UNL     1      -3.901  -4.207   1.233  0.00  0.00    -0.274 OA
ATOM      3  N   UNL     1      -4.976  -5.791   2.354  0.00  0.00    -0.284 N 
ATOM      4  H   UNL     1      -5.018  -6.720   2.631  0.00  0.00    +0.155 HD
ENDROOT
BRANCH   3   5
ATOM      5  C   UNL     1      -6.015  -4.914   2.684  0.00  0.00    +0.033 A 
ATOM      6  C   UNL     1      -6.677  -5.045   3.898  0.00  0.00    +0.023 A 
ATOM      7  C   UNL     1      -7.703  -4.179   4.220  0.00  0.00    +0.006 A 
ATOM      8  C   UNL     1      -8.071  -3.181   3.336  0.00  0.00    -0.039 A 
ATOM      9  C   UNL     1      -7.414  -3.048   2.127  0.00  0.00    +0.006 A 
ATOM     10  C   UNL     1      -6.384  -3.908   1.801  0.00  0.00    +0.023 A 
BRANCH   8  11
ATOM     11  C   UNL     1      -9.191  -2.237   3.692  0.00  0.00    +0.130 C 
BRANCH  11  12
ATOM     12  C   UNL     1      -8.629  -1.041   4.415  0.00  0.00    +0.218 C 
ATOM     13  O   UNL     1      -7.436  -0.963   4.622  0.00  0.00    -0.275 OA
ATOM     14  N   UNL     1      -9.451  -0.058   4.833  0.00  0.00    -0.305 N 
ATOM     15  H   UNL     1     -10.405  -0.121   4.667  0.00  0.00    +0.149 HD
BRANCH  14  16
ATOM     16  C   UNL     1      -8.904   1.105   5.536  0.00  0.00    +0.224 C 
BRANCH  16  17
ATOM     17  C   UNL     1     -10.024   2.049   5.891  0.00  0.00    +0.324 C 
ATOM     18  O   UNL     1     -11.162   1.778   5.588  0.00  0.00    -0.249 OA
BRANCH  17  19
ATOM     19  O   UNL     1      -9.757   3.191   6.545  0.00  0.00    -0.467 OA
ATOM     20  C   UNL     1     -10.867   4.038   6.849  0.00  0.00    +0.280 C 
ENDBRANCH  17  19
ENDBRANCH  16  17
ENDBRANCH  14  16
ENDBRANCH  11  12
ENDBRANCH   8  11
ENDBRANCH   3   5
BRANCH   1  21
ATOM     21  C   UNL     1      -2.749  -6.261   1.385  0.00  0.00    +0.214 C 
BRANCH  21  25
ATOM     22  C   UNL     1       0.062  -4.279  -0.018  0.00  0.00    +0.135 C 
ATOM     23  C   UNL     1      -0.726  -4.834   1.152  0.00  0.00    +0.251 C 
ATOM     24  O   UNL     1      -0.498  -4.671   2.331  0.00  0.00    -0.272 OA
ATOM     25  N   UNL     1      -1.734  -5.545   0.608  0.00  0.00    -0.215 N 
ATOM     26  C   UNL     1      -1.692  -5.517  -0.729  0.00  0.00    +0.310 C 
ATOM     27  O   UNL     1      -2.496  -6.085  -1.442  0.00  0.00    -0.252 OA
ATOM     28  N   UNL     1      -0.660  -4.790  -1.196  0.00  0.00    -0.281 N 
ATOM     29  C   UNL     1       1.500  -4.803   0.000  0.00  0.00    +0.047 C 
ATOM     30  H   UNL     1      -0.436  -4.633  -2.126  0.00  0.00    +0.152 HD
BRANCH  22  35
ATOM     31  C   UNL     1       0.006   1.499   0.050  0.00  0.00    +0.044 C 
ATOM     32  C   UNL     1       0.021  -0.008   0.032  0.00  0.00    -0.050 A 
ATOM     33  C   UNL     1       0.021  -0.685  -1.173  0.00  0.00    +0.004 A 
ATOM     34  C   UNL     1       0.034  -2.067  -1.189  0.00  0.00    +0.006 A 
ATOM     35  C   UNL     1       0.049  -2.773  -0.000  0.00  0.00    -0.015 A 
ATOM     36  C   UNL     1       0.050  -2.096   1.205  0.00  0.00    +0.006 A 
ATOM     37  C   UNL     1       0.041  -0.713   1.221  0.00  0.00    +0.004 A 
ENDBRANCH  22  35
ENDBRANCH  21  25
ENDBRANCH   1  21
TORSDOF 9
