REMARK  Name = ZINC44872362
REMARK  8 active torsions:
REMARK  status: ('A' for Active; 'I' for Inactive)
REMARK    1  A    between atoms: C_4  and  C_8
REMARK    2  A    between atoms: C_8  and  S_9
REMARK    3  A    between atoms: S_9  and  N_12
REMARK    4  A    between atoms: C_16  and  C_19
REMARK    5  A    between atoms: N_21  and  C_22
REMARK    6  A    between atoms: C_22  and  C_23
REMARK    7  A    between atoms: C_26  and  C_29
REMARK    8  A    between atoms: C_29  and  N_30
REMARK                            x       y       z     vdW  Elec       q    Type
REMARK                         _______ _______ _______ _____ _____    ______ ____
ROOT
ATOM      1  N   UNL     1       5.698  -1.816   1.513  0.00  0.00    -0.180 NA
ATOM      2  C   UNL     1       5.731  -3.283   1.439  0.00  0.00    +0.109 C 
ATOM      3  C   UNL     1       6.691  -3.809   2.511  0.00  0.00    +0.018 C 
ATOM      4  C   UNL     1       8.057  -3.140   2.340  0.00  0.00    +0.015 C 
ATOM      5  C   UNL     1       7.912  -1.628   2.522  0.00  0.00    +0.091 C 
ATOM      6  C   UNL     1       6.965  -1.076   1.444  0.00  0.00    +0.121 C 
ENDROOT
BRANCH   5   7
ATOM      7  C   UNL     1       9.262  -0.973   2.386  0.00  0.00    +0.218 C 
ATOM      8  O   UNL     1       9.451  -0.145   1.520  0.00  0.00    -0.275 OA
ATOM      9  N   UNL     1      10.261  -1.308   3.227  0.00  0.00    -0.311 N 
ATOM     10  H   UNL     1      10.111  -1.970   3.919  0.00  0.00    +0.149 HD
BRANCH   9  11
ATOM     11  C   UNL     1      11.574  -0.671   3.095  0.00  0.00    +0.139 C 
BRANCH  11  12
ATOM     12  C   UNL     1      12.505  -1.217   4.147  0.00  0.00    -0.030 A 
ATOM     13  C   UNL     1      12.584  -0.605   5.384  0.00  0.00    +0.005 A 
ATOM     14  C   UNL     1      13.438  -1.105   6.349  0.00  0.00    +0.002 A 
ATOM     15  C   UNL     1      14.212  -2.218   6.078  0.00  0.00    -0.064 A 
ATOM     16  C   UNL     1      14.132  -2.830   4.841  0.00  0.00    +0.002 A 
ATOM     17  C   UNL     1      13.275  -2.333   3.877  0.00  0.00    +0.005 A 
BRANCH  15  18
ATOM     18  C   UNL     1      15.143  -2.763   7.130  0.00  0.00    -0.043 C 
BRANCH  18  19
ATOM     19  N   UNL     1      14.434  -3.759   7.943  0.00  0.00    +0.382 N 
ATOM     20  C   UNL     1      14.143  -4.969   7.132  0.00  0.00    -0.078 C 
ATOM     21  C   UNL     1      13.942  -6.072   8.201  0.00  0.00    -0.020 C 
ATOM     22  C   UNL     1      14.996  -5.711   9.273  0.00  0.00    -0.020 C 
ATOM     23  C   UNL     1      15.295  -4.216   9.055  0.00  0.00    -0.078 C 
ATOM     24  H   UNL     1      13.577  -3.367   8.305  0.00  0.00    -0.081 HD
ENDBRANCH  18  19
ENDBRANCH  15  18
ENDBRANCH  11  12
ENDBRANCH   9  11
ENDBRANCH   5   7
BRANCH   1  25
ATOM     25  S   UNL     1       4.258  -1.011   1.665  0.00  0.00    +0.036 S 
ATOM     26  O   UNL     1       4.594   0.216   2.298  0.00  0.00    -0.158 OA
ATOM     27  O   UNL     1       3.389  -1.940   2.299  0.00  0.00    -0.158 OA
BRANCH  25  28
ATOM     28  C   UNL     1       3.713  -0.707  -0.038  0.00  0.00    +0.223 C 
BRANCH  28  32
ATOM     29  C   UNL     1      -0.017   1.378   0.010  0.00  0.00    +0.003 A 
ATOM     30  C   UNL     1       1.171   2.086   0.002  0.00  0.00    +0.020 A 
ATOM     31  C   UNL     1       2.378   1.411  -0.013  0.00  0.00    +0.047 A 
ATOM     32  C   UNL     1       2.398   0.028  -0.021  0.00  0.00    +0.012 A 
ATOM     33  C   UNL     1       1.209  -0.680  -0.013  0.00  0.00    +0.047 A 
ATOM     34  C   UNL     1       0.002  -0.004   0.002  0.00  0.00    +0.020 A 
ATOM     35 CL   UNL     1       1.233  -2.416  -0.023  0.00  0.00    -0.083 Cl
ATOM     36 CL   UNL     1       3.869   2.300  -0.024  0.00  0.00    -0.083 Cl
ENDBRANCH  28  32
ENDBRANCH  25  28
ENDBRANCH   1  25
TORSDOF 8
