REMARK  Name = ZINC38206921
REMARK  9 active torsions:
REMARK  status: ('A' for Active; 'I' for Inactive)
REMARK    1  A    between atoms: C_1  and  C_2
REMARK    2  A    between atoms: C_2  and  O_3
REMARK    3  A    between atoms: O_3  and  C_4
REMARK    4  A    between atoms: C_9  and  C_10
REMARK    5  A    between atoms: C_12  and  C_21
REMARK    6  A    between atoms: C_13  and  C_20
REMARK    7  A    between atoms: N_23  and  C_24
REMARK    8  A    between atoms: C_27  and  C_31
REMARK    9  A    between atoms: C_29  and  C_30
REMARK                            x       y       z     vdW  Elec       q    Type
REMARK                         _______ _______ _______ _____ _____    ______ ____
ROOT
ATOM      1  C   UNL     1      -3.435  -1.162   0.111  0.00  0.00    +0.182 C 
ATOM      2  C   UNL     1      -4.505  -1.435   1.135  0.00  0.00    +0.060 C 
ATOM      3  C   UNL     1      -5.662  -2.044   0.840  0.00  0.00    +0.018 C 
ATOM      4  N   UNL     1      -5.970  -2.459  -0.433  0.00  0.00    -0.286 N 
ATOM      5  C   UNL     1      -5.162  -2.004  -1.465  0.00  0.00    +0.240 A 
ATOM      6  N   UNL     1      -3.973  -1.390  -1.225  0.00  0.00    -0.201 N 
ATOM      7  N   UNL     1      -3.457  -1.071  -2.480  0.00  0.00    -0.042 NA
ATOM      8  N   UNL     1      -4.317  -1.494  -3.349  0.00  0.00    -0.021 NA
ATOM      9  N   UNL     1      -5.322  -2.045  -2.756  0.00  0.00    -0.092 NA
ATOM     10  C   UNL     1      -6.661  -2.281   1.944  0.00  0.00    +0.061 C 
ATOM     11  H   UNL     1      -6.722  -3.047  -0.604  0.00  0.00    +0.155 HD
ENDROOT
BRANCH   1  17
ATOM     12  C   UNL     1      -1.003  -1.560   0.575  0.00  0.00    +0.126 A 
ATOM     13  C   UNL     1       0.070  -2.412   0.797  0.00  0.00    +0.047 A 
ATOM     14  C   UNL     1      -0.122  -3.780   0.784  0.00  0.00    +0.019 A 
ATOM     15  C   UNL     1      -1.382  -4.301   0.550  0.00  0.00    +0.018 A 
ATOM     16  C   UNL     1      -2.452  -3.454   0.327  0.00  0.00    +0.025 A 
ATOM     17  C   UNL     1      -2.267  -2.085   0.346  0.00  0.00    +0.024 A 
ATOM     18 BR   UNL     1      -1.641  -6.174   0.532  0.00  0.00    -0.050 Br
BRANCH  12  19
ATOM     19  O   UNL     1      -0.817  -0.214   0.588  0.00  0.00    -0.492 OA
BRANCH  19  21
ATOM     20  C   UNL     1       0.532   1.783   0.764  0.00  0.00    +0.048 C 
ATOM     21  C   UNL     1       0.527   0.254   0.720  0.00  0.00    +0.225 C 
ENDBRANCH  19  21
ENDBRANCH  12  19
ENDBRANCH   1  17
BRANCH   2  22
ATOM     22  C   UNL     1      -4.277  -1.031   2.471  0.00  0.00    +0.248 C 
ATOM     23  O   UNL     1      -4.390   0.142   2.780  0.00  0.00    -0.270 OA
ATOM     24  N   UNL     1      -3.935  -1.943   3.402  0.00  0.00    -0.281 N 
ATOM     25  H   UNL     1      -3.776  -2.864   3.143  0.00  0.00    +0.155 HD
BRANCH  24  26
ATOM     26  C   UNL     1      -3.809  -1.562   4.742  0.00  0.00    +0.037 A 
ATOM     27  C   UNL     1      -4.397  -0.386   5.189  0.00  0.00    +0.024 A 
ATOM     28  C   UNL     1      -4.271  -0.012   6.512  0.00  0.00    +0.005 A 
ATOM     29  C   UNL     1      -3.560  -0.807   7.392  0.00  0.00    -0.050 A 
ATOM     30  C   UNL     1      -2.973  -1.979   6.950  0.00  0.00    +0.008 A 
ATOM     31  C   UNL     1      -3.100  -2.361   5.629  0.00  0.00    -0.029 A 
ATOM     32  C   UNL     1      -2.465  -3.641   5.150  0.00  0.00    +0.045 C 
ATOM     33  C   UNL     1      -3.425  -0.397   8.836  0.00  0.00    +0.044 C 
ENDBRANCH  24  26
ENDBRANCH   2  22
TORSDOF 5
