REMARK  Name = ZINC10514252
REMARK  13 active torsions:
REMARK  status: ('A' for Active; 'I' for Inactive)
REMARK    1  A    between atoms: C_1  and  C_2
REMARK    2  A    between atoms: C_2  and  C_3
REMARK    3  A    between atoms: C_3  and  N_4
REMARK    4  A    between atoms: N_4  and  C_5
REMARK    5  A    between atoms: C_8  and  S_26
REMARK    6  A    between atoms: C_10  and  N_11
REMARK    7  A    between atoms: N_11  and  S_12
REMARK    8  A    between atoms: S_12  and  C_15
REMARK    9  A    between atoms: S_26  and  N_29
REMARK   10  A    between atoms: N_29  and  C_30
REMARK   11  A    between atoms: N_29  and  C_32
REMARK   12  A    between atoms: C_30  and  C_31
REMARK   13  A    between atoms: C_32  and  C_33
REMARK                            x       y       z     vdW  Elec       q    Type
REMARK                         _______ _______ _______ _____ _____    ______ ____
ROOT
ATOM      1  C   UNL     1       1.361   1.709   0.262  0.00  0.00    +0.050 A 
ATOM      2  C   UNL     1       0.238   0.915   0.436  0.00  0.00    +0.027 A 
ATOM      3  C   UNL     1      -1.014   1.496   0.518  0.00  0.00    +0.030 A 
ATOM      4  C   UNL     1      -1.149   2.870   0.437  0.00  0.00    +0.107 A 
ATOM      5  C   UNL     1      -0.035   3.670   0.264  0.00  0.00    +0.055 A 
ATOM      6  C   UNL     1       1.224   3.095   0.176  0.00  0.00    +0.071 A 
ENDROOT
BRANCH   4   7
ATOM      7  S   UNL     1      -2.748   3.603   0.548  0.00  0.00    +0.061 S 
ATOM      8  O   UNL     1      -3.568   2.683   1.255  0.00  0.00    -0.153 OA
ATOM      9  O   UNL     1      -2.551   4.941   0.985  0.00  0.00    -0.153 OA
BRANCH   7  10
ATOM     10  N   UNL     1      -3.353   3.692  -0.990  0.00  0.00    -0.177 NA
BRANCH  10  11
ATOM     11  C   UNL     1      -4.139   2.581  -1.534  0.00  0.00    +0.106 C 
ATOM     12  C   UNL     1      -5.629   2.860  -1.323  0.00  0.00    +0.022 C 
ENDBRANCH  10  11
BRANCH  10  13
ATOM     13  C   UNL     1      -3.103   4.881  -1.808  0.00  0.00    +0.106 C 
ATOM     14  C   UNL     1      -1.880   4.642  -2.696  0.00  0.00    +0.022 C 
ENDBRANCH  10  13
ENDBRANCH   7  10
ENDBRANCH   4   7
BRANCH   1  15
ATOM     15  N   UNL     1       2.630   1.123   0.174  0.00  0.00    -0.342 N 
ATOM     16  H   UNL     1       3.414   1.679   0.053  0.00  0.00    +0.146 HD
BRANCH  15  17
ATOM     17  C   UNL     1       2.771  -0.333   0.266  0.00  0.00    +0.101 C 
BRANCH  17  19
ATOM     18  C   UNL     1       4.397  -2.230   0.237  0.00  0.00    +0.005 C 
ATOM     19  C   UNL     1       4.249  -0.710   0.141  0.00  0.00    +0.015 C 
ENDBRANCH  17  19
ENDBRANCH  15  17
ENDBRANCH   1  15
BRANCH   6  20
ATOM     20  N   UNL     1       2.354   3.902   0.001  0.00  0.00    -0.214 N 
ATOM     21  H   UNL     1       3.094   3.591  -0.545  0.00  0.00    +0.174 HD
BRANCH  20  22
ATOM     22  S   UNL     1       2.429   5.390   0.725  0.00  0.00    +0.072 S 
ATOM     23  O   UNL     1       3.732   5.899   0.472  0.00  0.00    -0.150 OA
ATOM     24  O   UNL     1       1.251   6.087   0.344  0.00  0.00    -0.150 OA
BRANCH  22  25
ATOM     25  C   UNL     1       2.319   5.128   2.464  0.00  0.00    +0.109 A 
ATOM     26  C   UNL     1       1.083   5.122   3.084  0.00  0.00    +0.030 A 
ATOM     27  C   UNL     1       0.992   4.914   4.446  0.00  0.00    +0.025 A 
ATOM     28  C   UNL     1       2.146   4.720   5.195  0.00  0.00    +0.037 A 
ATOM     29  C   UNL     1       3.386   4.731   4.570  0.00  0.00    -0.024 A 
ATOM     30  C   UNL     1       3.470   4.936   3.207  0.00  0.00    +0.034 A 
ATOM     31  C   UNL     1       4.636   4.519   5.382  0.00  0.00    +0.046 C 
ATOM     32  C   UNL     1       4.454   5.133   6.771  0.00  0.00    +0.101 C 
ATOM     33  C   UNL     1       3.141   4.691   7.358  0.00  0.00    +0.218 C 
ATOM     34  O   UNL     1       3.055   4.492   8.552  0.00  0.00    -0.275 OA
ATOM     35  N   UNL     1       2.061   4.513   6.575  0.00  0.00    -0.285 N 
ATOM     36  H   UNL     1       1.219   4.239   6.970  0.00  0.00    +0.155 HD
ENDBRANCH  22  25
ENDBRANCH  20  22
ENDBRANCH   6  20
TORSDOF 10
