REMARK  Name = ZINC44938586
REMARK  5 active torsions:
REMARK  status: ('A' for Active; 'I' for Inactive)
REMARK    1  A    between atoms: C_4  and  C_7
REMARK    2  A    between atoms: C_7  and  C_34
REMARK    3  A    between atoms: C_13  and  C_15
REMARK    4  A    between atoms: C_21  and  C_23
REMARK    5  A    between atoms: N_25  and  N_26
REMARK                            x       y       z     vdW  Elec       q    Type
REMARK                         _______ _______ _______ _____ _____    ______ ____
ROOT
ATOM      1  C   UNL     1       5.878  -4.817  -1.761  0.00  0.00    +0.091 C 
ATOM      2  C   UNL     1       6.392  -5.179  -0.366  0.00  0.00    +0.040 C 
ATOM      3  C   UNL     1       7.892  -5.155  -0.345  0.00  0.00    -0.030 C 
ATOM      4  C   UNL     1       8.633  -5.185  -1.407  0.00  0.00    -0.030 C 
ATOM      5  C   UNL     1       8.094  -5.237  -2.806  0.00  0.00    +0.040 C 
ATOM      6  C   UNL     1       6.623  -5.671  -2.794  0.00  0.00    +0.092 C 
ENDROOT
BRANCH   1  13
ATOM      7  C   UNL     1       3.178  -0.993  -3.627  0.00  0.00    +0.085 C 
ATOM      8  C   UNL     1       4.654  -0.588  -3.645  0.00  0.00    +0.045 C 
ATOM      9  C   UNL     1       5.327  -1.068  -2.356  0.00  0.00    +0.109 C 
ATOM     10  N   UNL     1       5.099  -2.513  -2.213  0.00  0.00    -0.301 N 
ATOM     11  C   UNL     1       3.722  -3.020  -2.273  0.00  0.00    +0.109 C 
ATOM     12  C   UNL     1       3.067  -2.518  -3.563  0.00  0.00    +0.045 C 
ATOM     13  C   UNL     1       6.135  -3.357  -2.032  0.00  0.00    +0.220 C 
ATOM     14  O   UNL     1       7.273  -2.941  -2.087  0.00  0.00    -0.275 OA
BRANCH   7  18
ATOM     15  C   UNL     1       1.271   0.427  -7.176  0.00  0.00    +0.000 A 
ATOM     16  C   UNL     1       1.860   1.322  -6.303  0.00  0.00    +0.000 A 
ATOM     17  C   UNL     1       2.477   0.862  -5.154  0.00  0.00    +0.005 A 
ATOM     18  C   UNL     1       2.505  -0.492  -4.879  0.00  0.00    -0.027 A 
ATOM     19  C   UNL     1       1.915  -1.387  -5.751  0.00  0.00    +0.005 A 
ATOM     20  C   UNL     1       1.299  -0.928  -6.901  0.00  0.00    +0.000 A 
ENDBRANCH   7  18
BRANCH   7  21
ATOM     21  C   UNL     1       2.522  -0.404  -2.448  0.00  0.00    +0.074 C 
ATOM     22  N   UNL     1       2.017   0.051  -1.538  0.00  0.00    -0.196 NA
ENDBRANCH   7  21
ENDBRANCH   1  13
BRANCH   6  23
ATOM     23  C   UNL     1       6.014  -5.464  -4.157  0.00  0.00    +0.233 C 
ATOM     24  O   UNL     1       5.076  -4.707  -4.293  0.00  0.00    -0.274 OA
ATOM     25  N   UNL     1       6.512  -6.119  -5.225  0.00  0.00    -0.235 N 
ATOM     26  H   UNL     1       7.263  -6.724  -5.116  0.00  0.00    +0.173 HD
BRANCH  25  27
ATOM     27  N   UNL     1       5.946  -5.926  -6.492  0.00  0.00    -0.248 N 
ATOM     28  C   UNL     1       6.460  -6.602  -7.592  0.00  0.00    +0.137 A 
ATOM     29  C   UNL     1       5.897  -6.401  -8.848  0.00  0.00    +0.045 A 
ATOM     30  C   UNL     1       6.417  -7.080  -9.936  0.00  0.00    +0.006 A 
ATOM     31  C   UNL     1       7.487  -7.940  -9.730  0.00  0.00    +0.040 A 
ATOM     32  C   UNL     1       7.998  -8.092  -8.455  0.00  0.00    +0.131 A 
ATOM     33  N   UNL     1       7.484  -7.426  -7.437  0.00  0.00    -0.219 NA
ATOM     34 CL   UNL     1       9.336  -9.165  -8.190  0.00  0.00    -0.062 Cl
ATOM     35  H   UNL     1       5.196  -5.321  -6.601  0.00  0.00    +0.172 HD
ENDBRANCH  25  27
ENDBRANCH   6  23
TORSDOF 5
