REMARK  Name = ZINC09112897
REMARK  10 active torsions:
REMARK  status: ('A' for Active; 'I' for Inactive)
REMARK    1  A    between atoms: C_1  and  N_2
REMARK    2  A    between atoms: N_2  and  S_3
REMARK    3  A    between atoms: S_3  and  C_6
REMARK    4  A    between atoms: C_6  and  C_7
REMARK    5  A    between atoms: C_12  and  C_13
REMARK    6  A    between atoms: C_13  and  N_56
REMARK    7  A    between atoms: C_14  and  C_16
REMARK    8  A    between atoms: C_14  and  C_22
REMARK    9  A    between atoms: C_14  and  N_56
REMARK   10  A    between atoms: C_22  and  C_24
REMARK                            x       y       z     vdW  Elec       q    Type
REMARK                         _______ _______ _______ _____ _____    ______ ____
ROOT
ATOM      1  C   UNL     1      -2.850  -0.685   1.229  0.00  0.00    +0.032 C 
ENDROOT
BRANCH   1   2
ATOM      2  C   UNL     1      -3.461   0.429   0.418  0.00  0.00    -0.054 A 
ATOM      3  C   UNL     1      -2.652   1.257  -0.338  0.00  0.00    +0.002 A 
ATOM      4  C   UNL     1      -3.212   2.276  -1.085  0.00  0.00    +0.000 A 
ATOM      5  C   UNL     1      -4.581   2.474  -1.068  0.00  0.00    +0.000 A 
ATOM      6  C   UNL     1      -5.389   1.649  -0.308  0.00  0.00    +0.000 A 
ATOM      7  C   UNL     1      -4.829   0.627   0.435  0.00  0.00    +0.002 A 
ENDBRANCH   1   2
BRANCH   1   8
ATOM      8  N   UNL     1      -1.682  -0.172   1.970  0.00  0.00    +0.391 N 
ATOM      9  H   UNL     1      -1.034  -0.946   2.159  0.00  0.00    -0.084 HD
ATOM     10  H   UNL     1      -1.208   0.540   1.402  0.00  0.00    -0.084 HD
BRANCH   8  11
ATOM     11  C   UNL     1      -2.109   0.429   3.248  0.00  0.00    -0.045 C 
BRANCH  11  17
ATOM     12  C   UNL     1      -0.030   0.251   4.630  0.00  0.00    -0.024 A 
ATOM     13  C   UNL     1       1.069   0.818   5.248  0.00  0.00    +0.005 A 
ATOM     14  C   UNL     1       1.281   2.181   5.166  0.00  0.00    +0.000 A 
ATOM     15  C   UNL     1       0.395   2.978   4.466  0.00  0.00    +0.000 A 
ATOM     16  C   UNL     1      -0.705   2.412   3.849  0.00  0.00    +0.002 A 
ATOM     17  C   UNL     1      -0.914   1.047   3.926  0.00  0.00    -0.060 A 
BRANCH  12  18
ATOM     18  C   UNL     1      -0.262  -1.235   4.719  0.00  0.00    +0.220 C 
BRANCH  18  19
ATOM     19  S   UNL     1      -1.124  -1.621   6.268  0.00  0.00    +0.033 S 
ATOM     20  O   UNL     1      -2.479  -1.200   6.192  0.00  0.00    -0.158 OA
ATOM     21  O   UNL     1      -0.315  -1.264   7.380  0.00  0.00    -0.158 OA
BRANCH  19  23
ATOM     22  C   UNL     1       0.036  -4.062   6.387  0.00  0.00    +0.127 C 
ATOM     23  N   UNL     1      -1.198  -3.275   6.313  0.00  0.00    -0.197 NA
ATOM     24  H   UNL     1      -2.058  -3.723   6.290  0.00  0.00    +0.147 HD
ENDBRANCH  19  23
ENDBRANCH  18  19
ENDBRANCH  12  18
ENDBRANCH  11  17
ENDBRANCH   8  11
ENDBRANCH   1   8
BRANCH   1  25
ATOM     25  C   UNL     1      -2.405  -1.791   0.308  0.00  0.00    +0.156 C 
ATOM     26  O   UNL     1      -1.225  -1.941   0.066  0.00  0.00    -0.293 OA
BRANCH  25  27
ATOM     27  C   UNL     1      -3.364  -2.656  -0.276  0.00  0.00    +0.041 A 
ATOM     28  C   UNL     1      -4.731  -2.619  -0.097  0.00  0.00    +0.095 A 
ATOM     29  N   UNL     1      -5.308  -3.599  -0.818  0.00  0.00    -0.360 N 
ATOM     30  H   UNL     1      -6.263  -3.768  -0.852  0.00  0.00    +0.165 HD
ATOM     31  C   UNL     1      -4.356  -4.331  -1.497  0.00  0.00    +0.047 A 
ATOM     32  C   UNL     1      -3.100  -3.781  -1.194  0.00  0.00    +0.010 A 
ATOM     33  C   UNL     1      -1.946  -4.327  -1.747  0.00  0.00    +0.011 A 
ATOM     34  C   UNL     1      -2.042  -5.410  -2.595  0.00  0.00    +0.001 A 
ATOM     35  C   UNL     1      -3.281  -5.955  -2.895  0.00  0.00    +0.002 A 
ATOM     36  C   UNL     1      -4.432  -5.424  -2.354  0.00  0.00    +0.026 A 
ENDBRANCH  25  27
ENDBRANCH   1  25
TORSDOF 9
