REMARK  Name = ZINC39609742
REMARK  7 active torsions:
REMARK  status: ('A' for Active; 'I' for Inactive)
REMARK    1  A    between atoms: C_1  and  C_2
REMARK    2  A    between atoms: C_2  and  C_3
REMARK    3  A    between atoms: C_3  and  C_5
REMARK    4  A    between atoms: C_3  and  C_11
REMARK    5  A    between atoms: C_15  and  C_24
REMARK    6  A    between atoms: N_26  and  C_27
REMARK    7  A    between atoms: C_27  and  C_28
REMARK                            x       y       z     vdW  Elec       q    Type
REMARK                         _______ _______ _______ _____ _____    ______ ____
ROOT
ATOM      1  C   UNL     1      -1.398  -2.196   0.093  0.00  0.00    +0.223 C 
ATOM      2  O   UNL     1      -1.936  -2.901  -0.735  0.00  0.00    -0.275 OA
ATOM      3  N   UNL     1      -0.849  -2.748   1.194  0.00  0.00    -0.300 N 
ATOM      4  C   UNL     1      -0.161  -2.057   2.309  0.00  0.00    +0.121 C 
ATOM      5  C   UNL     1      -0.626  -2.806   3.578  0.00  0.00    +0.100 C 
ATOM      6  C   UNL     1      -1.041  -4.200   3.081  0.00  0.00    -0.004 C 
ATOM      7  C   UNL     1      -0.804  -4.183   1.565  0.00  0.00    +0.115 C 
ATOM      8  C   UNL     1      -2.518  -4.448   3.375  0.00  0.00    -0.010 C 
ATOM      9  C   UNL     1      -2.893  -5.863   2.924  0.00  0.00    -0.082 C 
ATOM     10  N   UNL     1      -2.061  -6.842   3.634  0.00  0.00    +0.379 N 
ATOM     11  C   UNL     1      -0.650  -6.655   3.273  0.00  0.00    -0.082 C 
ATOM     12  C   UNL     1      -0.180  -5.274   3.740  0.00  0.00    -0.010 C 
ATOM     13  H   UNL     1      -2.171  -6.716   4.629  0.00  0.00    -0.086 HD
ATOM     14  H   UNL     1      -2.351  -7.774   3.381  0.00  0.00    -0.086 HD
ENDROOT
BRANCH   5  15
ATOM     15  C   UNL     1       0.505  -2.914   4.568  0.00  0.00    +0.218 C 
ATOM     16  O   UNL     1       1.651  -2.979   4.175  0.00  0.00    -0.275 OA
ATOM     17  N   UNL     1       0.244  -2.938   5.890  0.00  0.00    -0.311 N 
ATOM     18  H   UNL     1      -0.672  -2.886   6.205  0.00  0.00    +0.149 HD
BRANCH  17  19
ATOM     19  C   UNL     1       1.344  -3.043   6.852  0.00  0.00    +0.139 C 
BRANCH  19  20
ATOM     20  C   UNL     1       0.787  -3.050   8.252  0.00  0.00    -0.029 A 
ATOM     21  C   UNL     1       0.608  -1.859   8.931  0.00  0.00    +0.007 A 
ATOM     22  C   UNL     1       0.098  -1.863  10.215  0.00  0.00    +0.022 A 
ATOM     23  C   UNL     1      -0.234  -3.061  10.823  0.00  0.00    +0.059 A 
ATOM     24  C   UNL     1      -0.054  -4.254  10.144  0.00  0.00    +0.060 A 
ATOM     25  C   UNL     1       0.451  -4.247   8.856  0.00  0.00    +0.026 A 
ATOM     26 CL   UNL     1      -0.469  -5.758  10.906  0.00  0.00    -0.082 Cl
ATOM     27 CL   UNL     1      -0.874  -3.068  12.437  0.00  0.00    -0.082 Cl
ENDBRANCH  19  20
ENDBRANCH  17  19
ENDBRANCH   5  15
BRANCH   1  28
ATOM     28  C   UNL     1      -1.343  -0.704  -0.109  0.00  0.00    +0.105 C 
BRANCH  28  29
ATOM     29  C   UNL     1      -2.023  -0.347  -1.406  0.00  0.00    -0.036 A 
ATOM     30  C   UNL     1      -1.554  -0.868  -2.598  0.00  0.00    +0.004 A 
ATOM     31  C   UNL     1      -2.177  -0.541  -3.787  0.00  0.00    +0.000 A 
ATOM     32  C   UNL     1      -3.269   0.307  -3.785  0.00  0.00    +0.000 A 
ATOM     33  C   UNL     1      -3.739   0.826  -2.593  0.00  0.00    +0.000 A 
ATOM     34  C   UNL     1      -3.118   0.496  -1.403  0.00  0.00    +0.004 A 
ENDBRANCH  28  29
BRANCH  28  36
ATOM     35  C   UNL     1       0.173   1.278  -0.236  0.00  0.00    +0.005 C 
ATOM     36  C   UNL     1       0.117  -0.249  -0.156  0.00  0.00    +0.014 C 
ENDBRANCH  28  36
ENDBRANCH   1  28
TORSDOF 6
