REMARK  Name = ZINC03456481
REMARK  7 active torsions:
REMARK  status: ('A' for Active; 'I' for Inactive)
REMARK    1  A    between atoms: C_1  and  C_2
REMARK    2  A    between atoms: C_2  and  N_3
REMARK    3  A    between atoms: C_4  and  C_25
REMARK    4  A    between atoms: C_7  and  S_8
REMARK    5  A    between atoms: S_8  and  C_9
REMARK    6  A    between atoms: C_9  and  C_10
REMARK    7  A    between atoms: N_12  and  C_13
REMARK                            x       y       z     vdW  Elec       q    Type
REMARK                         _______ _______ _______ _____ _____    ______ ____
ROOT
ATOM      1  C   UNL     1       0.317   5.915   0.349  0.00  0.00    +0.173 C 
ENDROOT
BRANCH   1   2
ATOM      2  C   UNL     1      -0.240   7.303   0.529  0.00  0.00    +0.227 C 
ATOM      3  O   UNL     1      -1.432   7.463   0.685  0.00  0.00    -0.275 OA
ATOM      4  N   UNL     1       0.587   8.367   0.517  0.00  0.00    -0.285 N 
ATOM      5  H   UNL     1       1.530   8.247   0.325  0.00  0.00    +0.155 HD
BRANCH   4   6
ATOM      6  C   UNL     1       0.085   9.648   0.784  0.00  0.00    +0.035 A 
ATOM      7  C   UNL     1       0.626  10.754   0.138  0.00  0.00    +0.025 A 
ATOM      8  C   UNL     1       0.132  12.017   0.392  0.00  0.00    +0.029 A 
ATOM      9  C   UNL     1      -0.901  12.186   1.302  0.00  0.00    +0.067 A 
ATOM     10  C   UNL     1      -1.443  11.078   1.956  0.00  0.00    +0.069 A 
ATOM     11  C   UNL     1      -0.949   9.810   1.695  0.00  0.00    +0.051 A 
ATOM     12  N   UNL     1      -2.447  11.557   2.794  0.00  0.00    -0.306 N 
ATOM     13  H   UNL     1      -3.005  11.018   3.378  0.00  0.00    +0.170 HD
ATOM     14  C   UNL     1      -2.513  12.895   2.658  0.00  0.00    +0.325 A 
ATOM     15  O   UNL     1      -3.287  13.622   3.251  0.00  0.00    -0.247 OA
ATOM     16  N   UNL     1      -1.593  13.305   1.765  0.00  0.00    -0.306 N 
ATOM     17  H   UNL     1      -1.438  14.222   1.490  0.00  0.00    +0.170 HD
ENDBRANCH   4   6
ENDBRANCH   1   2
BRANCH   1  18
ATOM     18  S   UNL     1      -1.033   4.710   0.412  0.00  0.00    -0.077 S 
BRANCH  18  23
ATOM     19  N   UNL     1      -0.638   1.955   0.133  0.00  0.00    -0.302 N 
ATOM     20  C   UNL     1       0.439   1.122  -0.059  0.00  0.00    +0.165 A 
ATOM     21  N   UNL     1       1.507   1.882  -0.125  0.00  0.00    -0.128 NA
ATOM     22  N   UNL     1       1.177   3.116   0.016  0.00  0.00    -0.122 NA
ATOM     23  C   UNL     1      -0.123   3.219   0.181  0.00  0.00    +0.192 A 
BRANCH  20  24
ATOM     24  C   UNL     1       0.401  -0.352  -0.175  0.00  0.00    +0.019 A 
ATOM     25  C   UNL     1      -0.715  -1.061   0.271  0.00  0.00    +0.013 A 
ATOM     26  C   UNL     1      -0.746  -2.435   0.156  0.00  0.00    +0.021 A 
ATOM     27  C   UNL     1       0.330  -3.112  -0.392  0.00  0.00    +0.041 A 
ATOM     28  C   UNL     1       1.443  -2.414  -0.832  0.00  0.00    +0.021 A 
ATOM     29  C   UNL     1       1.484  -1.039  -0.726  0.00  0.00    +0.013 A 
ATOM     30 CL   UNL     1       0.286  -4.842  -0.528  0.00  0.00    -0.084 Cl
ENDBRANCH  20  24
BRANCH  19  32
ATOM     31  C   UNL     1      -2.376   1.333   1.738  0.00  0.00    +0.027 C 
ATOM     32  C   UNL     1      -2.045   1.567   0.262  0.00  0.00    +0.122 C 
ENDBRANCH  19  32
ENDBRANCH  18  23
ENDBRANCH   1  18
TORSDOF 6
