REMARK  Name = ZINC31977456
REMARK  3 active torsions:
REMARK  status: ('A' for Active; 'I' for Inactive)
REMARK    1  A    between atoms: C_5  and  N_7
REMARK    2  A    between atoms: C_8  and  C_10
REMARK    3  A    between atoms: C_17  and  C_19
REMARK                            x       y       z     vdW  Elec       q    Type
REMARK                         _______ _______ _______ _____ _____    ______ ____
ROOT
ATOM      1  N   UNL     1       2.851  -1.842   2.752  0.00  0.00    -0.284 N 
ATOM      2  C   UNL     1       2.925  -1.164   1.590  0.00  0.00    +0.222 C 
ATOM      3  O   UNL     1       3.744  -1.482   0.753  0.00  0.00    -0.275 OA
ATOM      4  H   UNL     1       2.057  -1.607   3.477  0.00  0.00    +0.155 HD
ENDROOT
BRANCH   1   9
ATOM      5  C   UNL     1       5.308  -4.542   2.291  0.00  0.00    +0.002 A 
ATOM      6  C   UNL     1       5.632  -4.835   3.603  0.00  0.00    +0.001 A 
ATOM      7  C   UNL     1       5.038  -4.139   4.638  0.00  0.00    +0.017 A 
ATOM      8  C   UNL     1       4.116  -3.138   4.362  0.00  0.00    +0.040 A 
ATOM      9  C   UNL     1       3.785  -2.847   3.038  0.00  0.00    +0.048 A 
ATOM     10  C   UNL     1       4.387  -3.551   2.006  0.00  0.00    +0.024 A 
ATOM     11  S   UNL     1       3.362  -2.243   5.679  0.00  0.00    -0.050 SA
ENDBRANCH   1   9
BRANCH   2  12
ATOM     12  C   UNL     1       1.991  -0.011   1.329  0.00  0.00    +0.096 C 
ATOM     13  C   UNL     1       2.379   0.722   0.005  0.00  0.00    +0.025 C 
ATOM     14  C   UNL     1       1.677  -0.210  -1.050  0.00  0.00    +0.016 C 
ATOM     15  C   UNL     1       0.258  -0.036  -0.396  0.00  0.00    +0.027 C 
ATOM     16  C   UNL     1       0.556  -0.523   1.058  0.00  0.00    +0.121 C 
ATOM     17  C   UNL     1       0.212   1.492  -0.275  0.00  0.00    -0.027 C 
ATOM     18  C   UNL     1       1.434   1.929  -0.044  0.00  0.00    -0.027 C 
BRANCH  16  19
ATOM     19  C   UNL     1       0.504  -2.027   1.133  0.00  0.00    +0.360 C 
ATOM     20  O   UNL     1       0.667  -2.688   0.135  0.00  0.00    -0.246 OA
ATOM     21  O   UNL     1       0.276  -2.633   2.309  0.00  0.00    -0.246 OA
ENDBRANCH  16  19
ENDBRANCH   2  12
TORSDOF 3
