REMARK  Name = ZINC22037715
REMARK  11 active torsions:
REMARK  status: ('A' for Active; 'I' for Inactive)
REMARK    1  A    between atoms: C_1  and  C_2
REMARK    2  A    between atoms: C_2  and  N_3
REMARK    3  A    between atoms: N_3  and  C_4
REMARK    4  A    between atoms: C_5  and  N_20
REMARK    5  A    between atoms: N_6  and  C_13
REMARK    6  A    between atoms: C_13  and  C_14
REMARK    7  A    between atoms: C_21  and  C_23
REMARK    8  A    between atoms: C_23  and  O_24
REMARK    9  A    between atoms: O_24  and  C_25
REMARK   10  A    between atoms: C_25  and  C_27
REMARK   11  A    between atoms: C_28  and  C_29
REMARK                            x       y       z     vdW  Elec       q    Type
REMARK                         _______ _______ _______ _____ _____    ______ ____
ROOT
ATOM      1  N   UNL     1      -3.266  13.245   0.150  0.00  0.00    -0.262 N 
ATOM      2  C   UNL     1      -3.085  11.921   0.338  0.00  0.00    +0.258 C 
ATOM      3  O   UNL     1      -4.039  11.201   0.545  0.00  0.00    -0.272 OA
ENDROOT
BRANCH   1   4
ATOM      4  C   UNL     1      -4.572  13.777   0.097  0.00  0.00    +0.140 A 
ATOM      5  C   UNL     1      -5.443  13.402  -0.905  0.00  0.00    +0.128 A 
ATOM      6  N   UNL     1      -6.711  13.934  -0.926  0.00  0.00    -0.276 N 
ATOM      7  C   UNL     1      -7.094  14.819   0.012  0.00  0.00    +0.331 A 
ATOM      8  O   UNL     1      -8.218  15.282  -0.027  0.00  0.00    -0.246 OA
ATOM      9  N   UNL     1      -6.257  15.201   0.993  0.00  0.00    -0.273 N 
ATOM     10  H   UNL     1      -6.591  15.925   1.750  0.00  0.00    +0.173 HD
ATOM     11  C   UNL     1      -5.006  14.705   1.063  0.00  0.00    +0.277 A 
ATOM     12  O   UNL     1      -4.255  15.057   1.956  0.00  0.00    -0.266 OA
BRANCH   5  13
ATOM     13  N   UNL     1      -5.050  12.503  -1.867  0.00  0.00    -0.343 N 
ATOM     14  H   UNL     1      -5.750  12.209  -2.663  0.00  0.00    +0.144 HD
ATOM     15  H   UNL     1      -4.036  12.078  -1.842  0.00  0.00    +0.144 HD
ENDBRANCH   5  13
BRANCH   6  16
ATOM     16  C   UNL     1      -7.648  13.541  -1.981  0.00  0.00    +0.163 C 
BRANCH  16  17
ATOM     17  C   UNL     1      -7.501  14.472  -3.157  0.00  0.00    -0.028 A 
ATOM     18  C   UNL     1      -8.269  15.619  -3.230  0.00  0.00    +0.005 A 
ATOM     19  C   UNL     1      -8.131  16.476  -4.306  0.00  0.00    +0.000 A 
ATOM     20  C   UNL     1      -7.232  16.180  -5.314  0.00  0.00    +0.000 A 
ATOM     21  C   UNL     1      -6.468  15.030  -5.244  0.00  0.00    +0.000 A 
ATOM     22  C   UNL     1      -6.603  14.177  -4.165  0.00  0.00    +0.005 A 
ENDBRANCH  16  17
ENDBRANCH   6  16
ENDBRANCH   1   4
BRANCH   1  24
ATOM     23  C   UNL     1      -1.759  14.265  -1.483  0.00  0.00    +0.025 C 
ATOM     24  C   UNL     1      -2.108  14.129   0.000  0.00  0.00    +0.110 C 
ENDBRANCH   1  24
BRANCH   2  25
ATOM     25  C   UNL     1      -1.697  11.336   0.291  0.00  0.00    +0.328 C 
BRANCH  25  26
ATOM     26  O   UNL     1      -1.766   9.905   0.521  0.00  0.00    -0.452 OA
BRANCH  26  27
ATOM     27  C   UNL     1      -0.601   9.225   0.511  0.00  0.00    +0.332 C 
ATOM     28  O   UNL     1       0.444   9.815   0.315  0.00  0.00    -0.246 OA
BRANCH  27  29
ATOM     29  C   UNL     1      -0.595   7.777   0.736  0.00  0.00    +0.093 C 
ATOM     30  C   UNL     1       0.569   7.099   0.726  0.00  0.00    +0.035 C 
BRANCH  30  31
ATOM     31  C   UNL     1       0.575   5.642   0.952  0.00  0.00    +0.065 A 
ATOM     32  C   UNL     1       1.799   4.949   0.939  0.00  0.00    +0.028 A 
ATOM     33  C   UNL     1       1.817   3.602   1.147  0.00  0.00    +0.012 A 
ATOM     34  C   UNL     1       0.591   2.944   1.371  0.00  0.00    +0.000 A 
ATOM     35  C   UNL     1       0.538   1.559   1.591  0.00  0.00    +0.010 A 
ATOM     36  C   UNL     1      -0.665   0.956   1.804  0.00  0.00    +0.001 A 
ATOM     37  C   UNL     1      -1.847   1.695   1.801  0.00  0.00    +0.002 A 
ATOM     38  C   UNL     1      -1.833   3.040   1.597  0.00  0.00    +0.028 A 
ATOM     39  C   UNL     1      -0.610   3.700   1.373  0.00  0.00    +0.072 A 
ATOM     40  N   UNL     1      -0.570   5.016   1.164  0.00  0.00    -0.247 NA
ENDBRANCH  30  31
ENDBRANCH  27  29
ENDBRANCH  26  27
ENDBRANCH  25  26
ENDBRANCH   2  25
TORSDOF 10
