REMARK  Name = ZINC06679084
REMARK  5 active torsions:
REMARK  status: ('A' for Active; 'I' for Inactive)
REMARK    1  A    between atoms: C_1  and  C_2
REMARK    2  A    between atoms: C_5  and  N_8
REMARK    3  A    between atoms: C_11  and  C_13
REMARK    4  A    between atoms: C_14  and  C_23
REMARK    5  A    between atoms: C_17  and  C_22
REMARK                            x       y       z     vdW  Elec       q    Type
REMARK                         _______ _______ _______ _____ _____    ______ ____
ROOT
ATOM      1  N   UNL     1      -0.265  -4.113  -0.053  0.00  0.00    -0.218 N 
ATOM      2  C   UNL     1       0.682  -4.869   0.602  0.00  0.00    +0.133 A 
ATOM      3  C   UNL     1       0.472  -6.157   0.249  0.00  0.00    +0.033 A 
ATOM      4  C   UNL     1      -0.625  -6.187  -0.638  0.00  0.00    +0.067 A 
ATOM      5  N   UNL     1      -1.062  -4.972  -0.809  0.00  0.00    -0.170 NA
ATOM      6  C   UNL     1      -1.201  -7.424  -1.278  0.00  0.00    +0.068 C 
ATOM      7  C   UNL     1       1.199  -7.400   0.654  0.00  0.00    +0.119 C 
ATOM      8  S   UNL     1       2.956  -7.143   0.914  0.00  0.00    -0.135 S 
ATOM      9  C   UNL     1       3.094  -6.094   2.368  0.00  0.00    +0.130 C 
ATOM     10  C   UNL     1       2.613  -4.716   2.133  0.00  0.00    +0.231 C 
ATOM     11  O   UNL     1       3.265  -3.849   2.675  0.00  0.00    -0.274 OA
ATOM     12  N   UNL     1       1.604  -4.286   1.437  0.00  0.00    -0.269 N 
ATOM     13  C   UNL     1       4.562  -6.034   2.795  0.00  0.00    +0.029 C 
ATOM     14  H   UNL     1       1.470  -3.330   1.528  0.00  0.00    +0.156 HD
ENDROOT
BRANCH   1  19
ATOM     15  C   UNL     1      -0.839   1.523   0.284  0.00  0.00    +0.044 C 
ATOM     16  C   UNL     1      -0.686   0.027   0.194  0.00  0.00    -0.050 A 
ATOM     17  C   UNL     1       0.572  -0.532   0.064  0.00  0.00    +0.005 A 
ATOM     18  C   UNL     1       0.715  -1.903  -0.018  0.00  0.00    +0.028 A 
ATOM     19  C   UNL     1      -0.407  -2.721   0.030  0.00  0.00    +0.067 A 
ATOM     20  C   UNL     1      -1.668  -2.157   0.162  0.00  0.00    +0.028 A 
ATOM     21  C   UNL     1      -1.804  -0.785   0.249  0.00  0.00    +0.005 A 
ENDBRANCH   1  19
BRANCH   7  22
ATOM     22  C   UNL     1       1.019  -8.438  -0.424  0.00  0.00    +0.007 A 
ATOM     23  C   UNL     1       0.318  -9.598  -0.384  0.00  0.00    +0.012 A 
ATOM     24  C   UNL     1       0.292 -10.404  -1.506  0.00  0.00    +0.008 A 
ATOM     25  C   UNL     1       0.969 -10.012  -2.613  0.00  0.00    +0.045 A 
ATOM     26  S   UNL     1       1.669  -8.457  -2.087  0.00  0.00    -0.100 S 
ENDBRANCH   7  22
TORSDOF 2
