REMARK  Name = ZINC35781346
REMARK  13 active torsions:
REMARK  status: ('A' for Active; 'I' for Inactive)
REMARK    1  A    between atoms: C_1  and  C_2
REMARK    2  A    between atoms: C_2  and  C_3
REMARK    3  A    between atoms: C_2  and  C_4
REMARK    4  A    between atoms: C_4  and  C_5
REMARK    5  A    between atoms: C_5  and  N_6
REMARK    6  A    between atoms: N_6  and  C_7
REMARK    7  A    between atoms: N_6  and  C_24
REMARK    8  A    between atoms: C_7  and  C_8
REMARK    9  A    between atoms: C_24  and  C_25
REMARK   10  A    between atoms: C_25  and  C_27
REMARK   11  A    between atoms: C_25  and  O_30
REMARK   12  A    between atoms: C_27  and  C_28
REMARK   13  A    between atoms: C_27  and  C_29
REMARK                            x       y       z     vdW  Elec       q    Type
REMARK                         _______ _______ _______ _____ _____    ______ ____
ROOT
ATOM      1  C   UNL     1       0.847  -0.647   6.038  0.00  0.00    +0.094 A 
ATOM      2  N   UNL     1       0.359  -0.405   7.282  0.00  0.00    -0.312 N 
ATOM      3  H   UNL     1      -0.508   0.018   7.378  0.00  0.00    +0.170 HD
ATOM      4  C   UNL     1       1.055  -0.740   8.384  0.00  0.00    +0.260 A 
ATOM      5  O   UNL     1       0.604  -0.516   9.495  0.00  0.00    -0.267 OA
ATOM      6  C   UNL     1       2.336  -1.365   8.230  0.00  0.00    +0.075 A 
ATOM      7  C   UNL     1       3.258  -1.811   9.279  0.00  0.00    -0.023 A 
ATOM      8  C   UNL     1       4.415  -2.371   8.871  0.00  0.00    -0.004 A 
ATOM      9  S   UNL     1       4.340  -2.349   7.098  0.00  0.00    -0.073 S 
ATOM     10  C   UNL     1       2.755  -1.575   6.909  0.00  0.00    +0.116 A 
ATOM     11  N   UNL     1       2.008  -1.221   5.866  0.00  0.00    -0.229 NA
ATOM     12  C   UNL     1       5.534  -2.891   9.720  0.00  0.00    +0.043 C 
ATOM     13  C   UNL     1       4.960  -3.810  10.806  0.00  0.00    +0.005 C 
ATOM     14  C   UNL     1       4.626  -2.961  12.028  0.00  0.00    +0.001 C 
ATOM     15  C   UNL     1       4.178  -1.568  11.590  0.00  0.00    +0.005 C 
ATOM     16  C   UNL     1       2.906  -1.652  10.756  0.00  0.00    +0.037 C 
ENDROOT
BRANCH   1  17
ATOM     17  C   UNL     1       0.031  -0.253   4.834  0.00  0.00    -0.003 C 
BRANCH  17  18
ATOM     18  N   UNL     1       0.756  -0.619   3.610  0.00  0.00    +0.386 N 
ATOM     19  H   UNL     1       1.675  -0.203   3.627  0.00  0.00    -0.081 HD
BRANCH  18  20
ATOM     20  C   UNL     1       0.018  -0.129   2.438  0.00  0.00    -0.078 C 
BRANCH  20  21
ATOM     21  C   UNL     1       0.011   1.401   2.444  0.00  0.00    -0.016 C 
BRANCH  21  23
ATOM     22  C   UNL     1      -2.110   1.501   1.126  0.00  0.00    +0.007 C 
ATOM     23  C   UNL     1      -0.637   1.913   1.155  0.00  0.00    -0.019 C 
ATOM     24  C   UNL     1      -0.532   3.438   1.103  0.00  0.00    +0.007 C 
ENDBRANCH  21  23
ENDBRANCH  20  21
ENDBRANCH  18  20
BRANCH  18  25
ATOM     25  C   UNL     1       0.881  -2.081   3.533  0.00  0.00    -0.046 C 
BRANCH  25  26
ATOM     26  C   UNL     1       1.766  -2.455   2.343  0.00  0.00    +0.101 C 
BRANCH  26  27
ATOM     27  C   UNL     1       1.884  -3.978   2.254  0.00  0.00    +0.010 C 
ATOM     28  C   UNL     1       2.769  -4.352   1.063  0.00  0.00    +0.010 C 
ATOM     29  C   UNL     1       2.508  -4.517   3.542  0.00  0.00    +0.010 C 
ENDBRANCH  26  27
BRANCH  26  30
ATOM     30  O   UNL     1       3.065  -1.886   2.517  0.00  0.00    -0.393 OA
ATOM     31  H   UNL     1       3.521  -2.184   3.316  0.00  0.00    +0.210 HD
ENDBRANCH  26  30
ENDBRANCH  25  26
ENDBRANCH  18  25
ENDBRANCH  17  18
ENDBRANCH   1  17
TORSDOF 9
