REMARK  Name = ZINC39689189
REMARK  8 active torsions:
REMARK  status: ('A' for Active; 'I' for Inactive)
REMARK    1  A    between atoms: C_1  and  S_2
REMARK    2  A    between atoms: S_2  and  C_3
REMARK    3  A    between atoms: C_3  and  C_4
REMARK    4  A    between atoms: C_4  and  C_5
REMARK    5  A    between atoms: C_9  and  C_18
REMARK    6  A    between atoms: N_20  and  C_21
REMARK    7  A    between atoms: C_21  and  C_22
REMARK    8  A    between atoms: N_25  and  C_28
REMARK                            x       y       z     vdW  Elec       q    Type
REMARK                         _______ _______ _______ _____ _____    ______ ____
ROOT
ATOM      1  C   UNL     1      -3.044  -2.434  -0.095  0.00  0.00    +0.216 C 
ATOM      2  O   UNL     1      -3.825  -1.506  -0.118  0.00  0.00    -0.276 OA
ATOM      3  N   UNL     1      -3.503  -3.700  -0.058  0.00  0.00    -0.300 N 
ATOM      4  C   UNL     1      -2.712  -4.953  -0.019  0.00  0.00    +0.121 C 
ATOM      5  C   UNL     1      -3.482  -5.872   0.955  0.00  0.00    +0.100 C 
ATOM      6  C   UNL     1      -4.927  -5.345   0.932  0.00  0.00    -0.004 C 
ATOM      7  C   UNL     1      -4.914  -4.155  -0.039  0.00  0.00    +0.115 C 
ATOM      8  C   UNL     1      -5.341  -4.877   2.324  0.00  0.00    -0.010 C 
ATOM      9  C   UNL     1      -6.799  -4.411   2.288  0.00  0.00    -0.082 C 
ATOM     10  N   UNL     1      -7.657  -5.517   1.846  0.00  0.00    +0.379 N 
ATOM     11  C   UNL     1      -7.313  -5.899   0.471  0.00  0.00    -0.082 C 
ATOM     12  C   UNL     1      -5.877  -6.428   0.430  0.00  0.00    -0.010 C 
ATOM     13  H   UNL     1      -7.524  -6.309   2.457  0.00  0.00    -0.086 HD
ATOM     14  H   UNL     1      -8.623  -5.226   1.882  0.00  0.00    -0.086 HD
ENDROOT
BRANCH   5  15
ATOM     15  C   UNL     1      -2.905  -5.766   2.343  0.00  0.00    +0.218 C 
ATOM     16  O   UNL     1      -2.392  -4.730   2.710  0.00  0.00    -0.275 OA
ATOM     17  N   UNL     1      -2.958  -6.824   3.177  0.00  0.00    -0.315 N 
ATOM     18  H   UNL     1      -3.368  -7.653   2.884  0.00  0.00    +0.149 HD
BRANCH  17  19
ATOM     19  C   UNL     1      -2.396  -6.721   4.527  0.00  0.00    +0.107 C 
BRANCH  19  20
ATOM     20  C   UNL     1      -2.586  -8.051   5.260  0.00  0.00    +0.003 C 
ATOM     21  C   UNL     1      -4.080  -8.310   5.472  0.00  0.00    -0.014 C 
ATOM     22  C   UNL     1      -4.259  -9.601   6.275  0.00  0.00    -0.078 C 
ATOM     23  N   UNL     1      -3.595  -9.467   7.577  0.00  0.00    +0.382 N 
ATOM     24  C   UNL     1      -2.151  -9.289   7.383  0.00  0.00    -0.078 C 
ATOM     25  C   UNL     1      -1.891  -7.987   6.623  0.00  0.00    -0.014 C 
ATOM     26  H   UNL     1      -3.969  -8.666   8.063  0.00  0.00    -0.081 HD
BRANCH  23  27
ATOM     27  C   UNL     1      -3.836 -10.677   8.374  0.00  0.00    -0.069 C 
ATOM     28  C   UNL     1      -5.344 -10.834   8.654  0.00  0.00    -0.015 C 
ATOM     29  C   UNL     1      -5.407 -11.395  10.097  0.00  0.00    -0.002 C 
ATOM     30  C   UNL     1      -4.258 -10.637  10.808  0.00  0.00    -0.002 C 
ATOM     31  C   UNL     1      -3.145 -10.552   9.743  0.00  0.00    -0.015 C 
ENDBRANCH  23  27
ENDBRANCH  19  20
ENDBRANCH  17  19
ENDBRANCH   5  15
BRANCH   1  32
ATOM     32  C   UNL     1      -1.560  -2.170  -0.109  0.00  0.00    +0.106 C 
BRANCH  32  33
ATOM     33  C   UNL     1      -1.311  -0.661  -0.152  0.00  0.00    +0.078 C 
BRANCH  33  35
ATOM     34  C   UNL     1       0.599   1.465  -0.221  0.00  0.00    +0.084 C 
ATOM     35  S   UNL     1       0.475  -0.344  -0.169  0.00  0.00    -0.164 S 
ENDBRANCH  33  35
ENDBRANCH  32  33
ENDBRANCH   1  32
TORSDOF 7
