REMARK  Name = ZINC36516431
REMARK  14 active torsions:
REMARK  status: ('A' for Active; 'I' for Inactive)
REMARK    1  A    between atoms: C_1  and  C_2
REMARK    2  A    between atoms: C_2  and  C_3
REMARK    3  A    between atoms: C_3  and  C_4
REMARK    4  A    between atoms: C_4  and  C_5
REMARK    5  A    between atoms: C_5  and  C_6
REMARK    6  A    between atoms: C_6  and  N_7
REMARK    7  A    between atoms: N_7  and  C_8
REMARK    8  A    between atoms: C_8  and  C_10
REMARK    9  A    between atoms: C_8  and  C_19
REMARK   10  A    between atoms: C_11  and  O_18
REMARK   11  A    between atoms: C_13  and  O_17
REMARK   12  A    between atoms: C_15  and  O_16
REMARK   13  A    between atoms: N_21  and  C_22
REMARK   14  A    between atoms: C_28  and  C_30
REMARK                            x       y       z     vdW  Elec       q    Type
REMARK                         _______ _______ _______ _____ _____    ______ ____
ROOT
ATOM      1  C   UNL     1      -4.531  -4.700  -1.471  0.00  0.00    +0.199 C 
ENDROOT
BRANCH   1   2
ATOM      2  C   UNL     1      -4.979  -3.264  -1.546  0.00  0.00    +0.065 A 
ATOM      3  C   UNL     1      -4.067  -2.241  -1.332  0.00  0.00    +0.129 A 
ATOM      4  C   UNL     1      -4.479  -0.919  -1.401  0.00  0.00    +0.091 A 
ATOM      5  C   UNL     1      -5.803  -0.619  -1.685  0.00  0.00    +0.124 A 
ATOM      6  C   UNL     1      -6.715  -1.642  -1.899  0.00  0.00    +0.091 A 
ATOM      7  C   UNL     1      -6.302  -2.964  -1.834  0.00  0.00    +0.129 A 
BRANCH   7   8
ATOM      8  O   UNL     1      -7.194  -3.966  -2.049  0.00  0.00    -0.506 OA
ATOM      9  H   UNL     1      -7.807  -4.111  -1.316  0.00  0.00    +0.292 HD
ENDBRANCH   7   8
BRANCH   5  10
ATOM     10  O   UNL     1      -6.208   0.677  -1.751  0.00  0.00    -0.507 OA
ATOM     11  H   UNL     1      -6.137   1.066  -2.634  0.00  0.00    +0.292 HD
ENDBRANCH   5  10
BRANCH   3  12
ATOM     12  O   UNL     1      -2.770  -2.534  -1.055  0.00  0.00    -0.506 OA
ATOM     13  H   UNL     1      -2.160  -2.351  -1.783  0.00  0.00    +0.292 HD
ENDBRANCH   3  12
ENDBRANCH   1   2
BRANCH   1  14
ATOM     14  C   UNL     1      -5.738  -5.603  -1.462  0.00  0.00    +0.239 C 
ATOM     15  O   UNL     1      -6.213  -5.970  -0.409  0.00  0.00    -0.273 OA
ATOM     16  N   UNL     1      -6.289  -6.003  -2.626  0.00  0.00    -0.311 N 
ATOM     17  H   UNL     1      -5.872  -5.762  -3.468  0.00  0.00    +0.149 HD
BRANCH  16  18
ATOM     18  C   UNL     1      -7.518  -6.800  -2.618  0.00  0.00    +0.073 C 
ATOM     19  C   UNL     1      -7.165  -8.279  -2.447  0.00  0.00    +0.022 C 
ATOM     20  C   UNL     1      -8.448  -9.112  -2.439  0.00  0.00    +0.002 C 
ATOM     21  C   UNL     1      -9.192  -8.915  -3.762  0.00  0.00    +0.000 C 
ATOM     22  C   UNL     1      -9.545  -7.436  -3.933  0.00  0.00    +0.002 C 
ATOM     23  C   UNL     1      -8.261  -6.603  -3.941  0.00  0.00    +0.022 C 
ENDBRANCH  16  18
ENDBRANCH   1  14
BRANCH   1  24
ATOM     24  N   UNL     1      -3.757  -4.907  -0.244  0.00  0.00    -0.282 N 
ATOM     25  C   UNL     1      -3.667  -3.921   0.670  0.00  0.00    +0.247 C 
ATOM     26  O   UNL     1      -2.626  -3.743   1.271  0.00  0.00    -0.270 OA
BRANCH  25  27
ATOM     27  C   UNL     1      -4.835  -3.055   0.942  0.00  0.00    +0.037 A 
ATOM     28  C   UNL     1      -6.050  -3.297   0.300  0.00  0.00    +0.013 A 
ATOM     29  C   UNL     1      -7.136  -2.486   0.558  0.00  0.00    +0.001 A 
ATOM     30  C   UNL     1      -7.021  -1.435   1.450  0.00  0.00    +0.000 A 
ATOM     31  C   UNL     1      -5.819  -1.190   2.090  0.00  0.00    +0.001 A 
ATOM     32  C   UNL     1      -4.727  -1.997   1.845  0.00  0.00    +0.013 A 
ENDBRANCH  25  27
BRANCH  24  33
ATOM     33  C   UNL     1      -3.082  -6.186  -0.011  0.00  0.00    +0.109 C 
BRANCH  33  34
ATOM     34  C   UNL     1      -1.665  -6.128  -0.585  0.00  0.00    +0.019 C 
BRANCH  34  35
ATOM     35  C   UNL     1      -0.905  -7.398  -0.198  0.00  0.00    +0.002 C 
BRANCH  35  36
ATOM     36  C   UNL     1       0.512  -7.339  -0.773  0.00  0.00    -0.000 C 
BRANCH  36  38
ATOM     37  C   UNL     1       2.689  -8.550  -0.960  0.00  0.00    +0.004 C 
ATOM     38  C   UNL     1       1.272  -8.609  -0.386  0.00  0.00    -0.003 C 
ENDBRANCH  36  38
ENDBRANCH  35  36
ENDBRANCH  34  35
ENDBRANCH  33  34
ENDBRANCH  24  33
ENDBRANCH   1  24
TORSDOF 13
