REMARK  Name = ZINC12506451
REMARK  8 active torsions:
REMARK  status: ('A' for Active; 'I' for Inactive)
REMARK    1  A    between atoms: C_1  and  C_2
REMARK    2  A    between atoms: C_2  and  C_3
REMARK    3  A    between atoms: C_3  and  O_4
REMARK    4  A    between atoms: O_4  and  C_5
REMARK    5  A    between atoms: C_6  and  C_14
REMARK    6  A    between atoms: C_10  and  O_11
REMARK    7  A    between atoms: O_11  and  C_12
REMARK    8  A    between atoms: C_12  and  C_13
REMARK                            x       y       z     vdW  Elec       q    Type
REMARK                         _______ _______ _______ _____ _____    ______ ____
ROOT
ATOM      1  C   UNL     1      -0.863  -2.517  -3.515  0.00  0.00    +0.212 C 
ATOM      2  N   UNL     1      -1.290  -2.389  -4.921  0.00  0.00    -0.294 N 
ATOM      3  C   UNL     1      -1.555  -3.555  -5.625  0.00  0.00    +0.159 C 
ATOM      4  N   UNL     1      -2.435  -4.458  -5.027  0.00  0.00    -0.259 N 
ATOM      5  C   UNL     1      -2.368  -4.516  -3.636  0.00  0.00    +0.205 A 
ATOM      6  N   UNL     1      -1.638  -3.604  -2.909  0.00  0.00    -0.288 N 
ATOM      7  C   UNL     1      -1.787  -3.923  -1.576  0.00  0.00    +0.076 A 
ATOM      8  C   UNL     1      -1.307  -3.379  -0.392  0.00  0.00    +0.077 A 
ATOM      9  C   UNL     1      -1.656  -3.951   0.816  0.00  0.00    +0.164 A 
ATOM     10  C   UNL     1      -2.483  -5.069   0.856  0.00  0.00    +0.164 A 
ATOM     11  C   UNL     1      -2.965  -5.624  -0.311  0.00  0.00    +0.079 A 
ATOM     12  C   UNL     1      -2.621  -5.055  -1.541  0.00  0.00    +0.095 A 
ATOM     13  N   UNL     1      -2.935  -5.367  -2.833  0.00  0.00    -0.214 NA
ATOM     14  O   UNL     1      -2.818  -5.617   2.061  0.00  0.00    -0.488 OA
ATOM     15  C   UNL     1      -1.756  -6.249   2.778  0.00  0.00    +0.232 C 
ATOM     16  C   UNL     1      -0.971  -5.230   3.587  0.00  0.00    +0.082 C 
ATOM     17  C   UNL     1      -0.252  -4.221   2.706  0.00  0.00    +0.232 C 
ATOM     18  O   UNL     1      -1.188  -3.418   1.984  0.00  0.00    -0.488 OA
ATOM     19  N   UNL     1      -1.011  -3.794  -6.785  0.00  0.00    -0.375 N 
ATOM     20  H   UNL     1      -1.384  -1.519  -5.339  0.00  0.00    +0.151 HD
ATOM     21  H   UNL     1      -0.403  -3.148  -7.177  0.00  0.00    +0.158 HD
ATOM     22  H   UNL     1      -3.049  -5.005  -5.542  0.00  0.00    +0.158 HD
ATOM     23  H   UNL     1      -1.214  -4.617  -7.255  0.00  0.00    +0.158 HD
ENDROOT
BRANCH   1  25
ATOM     24  C   UNL     1       1.547  -1.839  -3.622  0.00  0.00    +0.169 A 
ATOM     25  C   UNL     1       0.607  -2.844  -3.455  0.00  0.00    +0.039 A 
ATOM     26  C   UNL     1       1.018  -4.145  -3.235  0.00  0.00    +0.011 A 
ATOM     27  C   UNL     1       2.366  -4.448  -3.179  0.00  0.00    +0.004 A 
ATOM     28  C   UNL     1       3.309  -3.450  -3.344  0.00  0.00    +0.049 A 
ATOM     29  C   UNL     1       2.904  -2.145  -3.571  0.00  0.00    +0.162 A 
BRANCH  24  30
ATOM     30  O   UNL     1       1.145  -0.558  -3.839  0.00  0.00    -0.488 OA
BRANCH  30  31
ATOM     31  C   UNL     1       0.952  -0.161  -5.198  0.00  0.00    +0.229 C 
BRANCH  31  33
ATOM     32  C   UNL     1       0.296   1.726  -6.698  0.00  0.00    +0.007 C 
ATOM     33  C   UNL     1       0.503   1.301  -5.243  0.00  0.00    +0.038 C 
ENDBRANCH  31  33
ENDBRANCH  30  31
ENDBRANCH  24  30
BRANCH  29  34
ATOM     34  O   UNL     1       3.830  -1.164  -3.739  0.00  0.00    -0.489 OA
BRANCH  34  35
ATOM     35  C   UNL     1       5.204  -1.551  -3.675  0.00  0.00    +0.226 C 
ATOM     36  C   UNL     1       6.091  -0.321  -3.885  0.00  0.00    +0.048 C 
ENDBRANCH  34  35
ENDBRANCH  29  34
ENDBRANCH   1  25
TORSDOF 6
