REMARK  Name = ZINC36205197
REMARK  15 active torsions:
REMARK  status: ('A' for Active; 'I' for Inactive)
REMARK    1  A    between atoms: C_1  and  C_2
REMARK    2  A    between atoms: C_2  and  C_3
REMARK    3  A    between atoms: C_3  and  C_4
REMARK    4  A    between atoms: C_4  and  C_6
REMARK    5  A    between atoms: C_4  and  O_32
REMARK    6  A    between atoms: C_6  and  N_7
REMARK    7  A    between atoms: N_7  and  C_8
REMARK    8  A    between atoms: N_7  and  C_28
REMARK    9  A    between atoms: C_8  and  C_9
REMARK   10  A    between atoms: C_15  and  C_20
REMARK   11  A    between atoms: C_23  and  C_27
REMARK   12  A    between atoms: C_24  and  C_26
REMARK   13  A    between atoms: C_28  and  C_29
REMARK   14  A    between atoms: C_29  and  C_30
REMARK   15  A    between atoms: C_29  and  C_31
REMARK                            x       y       z     vdW  Elec       q    Type
REMARK                         _______ _______ _______ _____ _____    ______ ____
ROOT
ATOM      1  C   UNL     1       2.117  -5.812  -3.632  0.00  0.00    +0.094 A 
ATOM      2  N   UNL     1       2.747  -6.517  -4.607  0.00  0.00    -0.312 N 
ATOM      3  H   UNL     1       3.033  -6.061  -5.414  0.00  0.00    +0.170 HD
ATOM      4  C   UNL     1       2.983  -7.835  -4.474  0.00  0.00    +0.260 A 
ATOM      5  O   UNL     1       3.551  -8.454  -5.358  0.00  0.00    -0.267 OA
ATOM      6  C   UNL     1       2.558  -8.500  -3.280  0.00  0.00    +0.080 A 
ATOM      7  C   UNL     1       2.697  -9.902  -2.905  0.00  0.00    +0.004 A 
ATOM      8  C   UNL     1       2.211 -10.307  -1.706  0.00  0.00    +0.056 A 
ATOM      9  S   UNL     1       1.534  -8.813  -1.009  0.00  0.00    -0.076 S 
ATOM     10  C   UNL     1       1.915  -7.690  -2.329  0.00  0.00    +0.116 A 
ATOM     11  N   UNL     1       1.722  -6.389  -2.529  0.00  0.00    -0.229 NA
ENDROOT
BRANCH   7  12
ATOM     12  C   UNL     1       3.356 -10.866  -3.817  0.00  0.00    -0.016 A 
ATOM     13  C   UNL     1       2.975 -10.935  -5.157  0.00  0.00    +0.009 A 
ATOM     14  C   UNL     1       3.592 -11.835  -6.002  0.00  0.00    +0.004 A 
ATOM     15  C   UNL     1       4.588 -12.666  -5.522  0.00  0.00    -0.048 A 
ATOM     16  C   UNL     1       4.971 -12.602  -4.195  0.00  0.00    -0.047 A 
ATOM     17  C   UNL     1       4.364 -11.703  -3.341  0.00  0.00    +0.012 A 
ATOM     18  C   UNL     1       6.057 -13.512  -3.680  0.00  0.00    +0.044 C 
ATOM     19  C   UNL     1       5.259 -13.647  -6.450  0.00  0.00    +0.044 C 
ENDBRANCH   7  12
BRANCH   1  20
ATOM     20  C   UNL     1       1.874  -4.337  -3.825  0.00  0.00    -0.003 C 
BRANCH  20  21
ATOM     21  N   UNL     1       1.313  -3.769  -2.592  0.00  0.00    +0.386 N 
ATOM     22  H   UNL     1       0.502  -4.301  -2.315  0.00  0.00    -0.081 HD
BRANCH  21  23
ATOM     23  C   UNL     1       2.321  -3.821  -1.525  0.00  0.00    -0.047 C 
BRANCH  23  24
ATOM     24  C   UNL     1       1.698  -3.346  -0.211  0.00  0.00    +0.098 C 
BRANCH  24  25
ATOM     25  O   UNL     1       0.675  -4.259   0.190  0.00  0.00    -0.394 OA
ATOM     26  H   UNL     1       0.989  -5.163   0.334  0.00  0.00    +0.210 HD
ENDBRANCH  24  25
BRANCH  24  27
ATOM     27  C   UNL     1       2.777  -3.282   0.872  0.00  0.00    +0.029 C 
BRANCH  27  29
ATOM     28  C   UNL     1       3.262  -2.625   3.233  0.00  0.00    +0.004 C 
ATOM     29  C   UNL     1       2.183  -2.688   2.150  0.00  0.00    -0.001 C 
ENDBRANCH  27  29
ENDBRANCH  24  27
ENDBRANCH  23  24
ENDBRANCH  21  23
BRANCH  21  30
ATOM     30  C   UNL     1       0.924  -2.372  -2.829  0.00  0.00    -0.075 C 
BRANCH  30  31
ATOM     31  C   UNL     1      -0.215  -2.326  -3.850  0.00  0.00    -0.034 C 
ATOM     32  C   UNL     1      -1.437  -3.052  -3.284  0.00  0.00    +0.005 C 
ATOM     33  C   UNL     1      -0.578  -0.869  -4.144  0.00  0.00    +0.005 C 
ENDBRANCH  30  31
ENDBRANCH  21  30
ENDBRANCH  20  21
ENDBRANCH   1  20
TORSDOF 10
