REMARK  Name = ZINC13381924
REMARK  11 active torsions:
REMARK  status: ('A' for Active; 'I' for Inactive)
REMARK    1  A    between atoms: C_1  and  C_2
REMARK    2  A    between atoms: C_2  and  C_17
REMARK    3  A    between atoms: N_3  and  N_4
REMARK    4  A    between atoms: C_5  and  C_7
REMARK    5  A    between atoms: C_7  and  C_9
REMARK    6  A    between atoms: C_7  and  O_15
REMARK    7  A    between atoms: O_15  and  C_16
REMARK    8  A    between atoms: C_30  and  C_33
REMARK    9  A    between atoms: C_36  and  C_39
REMARK   10  A    between atoms: C_39  and  O_41
REMARK   11  A    between atoms: O_41  and  C_42
REMARK                            x       y       z     vdW  Elec       q    Type
REMARK                         _______ _______ _______ _____ _____    ______ ____
ROOT
ATOM      1  C   UNL     1      -0.801   5.245   7.686  0.00  0.00    -0.002 A 
ATOM      2  C   UNL     1      -0.855   4.025   8.366  0.00  0.00    +0.011 A 
ATOM      3  C   UNL     1      -1.940   3.196   8.190  0.00  0.00    +0.024 A 
ATOM      4  C   UNL     1      -2.977   3.571   7.341  0.00  0.00    +0.031 A 
ATOM      5  C   UNL     1      -2.935   4.781   6.661  0.00  0.00    -0.019 A 
ATOM      6  C   UNL     1      -1.844   5.615   6.837  0.00  0.00    +0.015 A 
ATOM      7  C   UNL     1      -4.030   5.220   5.741  0.00  0.00    +0.049 C 
ATOM      8  C   UNL     1      -3.610   5.069   4.298  0.00  0.00    -0.023 C 
ATOM      9  C   UNL     1      -4.629   4.688   3.567  0.00  0.00    -0.030 C 
ATOM     10  C   UNL     1      -5.872   4.539   4.423  0.00  0.00    +0.033 C 
ATOM     11  C   UNL     1      -5.299   4.354   5.859  0.00  0.00    +0.029 C 
ATOM     12  C   UNL     1      -4.913   2.880   6.009  0.00  0.00    +0.105 C 
ATOM     13  N   UNL     1      -4.075   2.727   7.203  0.00  0.00    -0.336 N 
ATOM     14  H   UNL     1      -4.271   2.044   7.864  0.00  0.00    +0.147 HD
ENDROOT
BRANCH  12  15
ATOM     15  C   UNL     1      -4.143   2.433   4.793  0.00  0.00    -0.027 A 
ATOM     16  C   UNL     1      -4.817   1.897   3.710  0.00  0.00    +0.006 A 
ATOM     17  C   UNL     1      -4.119   1.486   2.593  0.00  0.00    +0.015 A 
ATOM     18  C   UNL     1      -2.729   1.612   2.557  0.00  0.00    +0.059 A 
ATOM     19  C   UNL     1      -2.055   2.150   3.656  0.00  0.00    +0.015 A 
ATOM     20  C   UNL     1      -2.766   2.561   4.764  0.00  0.00    +0.006 A 
BRANCH  18  21
ATOM     21  C   UNL     1      -1.975   1.173   1.365  0.00  0.00    +0.339 C 
ATOM     22  O   UNL     1      -2.564   0.702   0.413  0.00  0.00    -0.245 OA
BRANCH  21  23
ATOM     23  O   UNL     1      -0.634   1.296   1.334  0.00  0.00    -0.464 OA
ATOM     24  C   UNL     1       0.042   0.845   0.131  0.00  0.00    +0.280 C 
ENDBRANCH  21  23
ENDBRANCH  18  21
ENDBRANCH  12  15
BRANCH   1  26
ATOM     25  C   UNL     1       1.483   5.739   8.783  0.00  0.00    +0.068 C 
ATOM     26  C   UNL     1       0.356   6.139   7.866  0.00  0.00    +0.063 C 
ATOM     27  N   UNL     1       0.406   7.272   7.234  0.00  0.00    -0.184 NA
BRANCH  27  28
ATOM     28  N   UNL     1       1.506   8.122   7.404  0.00  0.00    -0.204 N 
ATOM     29  C   UNL     1       1.557   9.298   6.748  0.00  0.00    +0.266 C 
ATOM     30  O   UNL     1       0.650   9.621   6.010  0.00  0.00    -0.271 OA
ATOM     31  H   UNL     1       2.231   7.864   7.995  0.00  0.00    +0.177 HD
BRANCH  29  32
ATOM     32  C   UNL     1       2.741  10.213   6.932  0.00  0.00    +0.235 C 
BRANCH  32  33
ATOM     33  C   UNL     1       3.979   9.548   6.388  0.00  0.00    -0.010 A 
ATOM     34  C   UNL     1       4.278   9.639   5.042  0.00  0.00    +0.006 A 
ATOM     35  C   UNL     1       5.416   9.033   4.543  0.00  0.00    +0.000 A 
ATOM     36  C   UNL     1       6.249   8.326   5.390  0.00  0.00    +0.000 A 
ATOM     37  C   UNL     1       5.948   8.230   6.736  0.00  0.00    +0.000 A 
ATOM     38  C   UNL     1       4.812   8.841   7.235  0.00  0.00    +0.006 A 
ENDBRANCH  32  33
BRANCH  32  39
ATOM     39  O   UNL     1       2.510  11.437   6.231  0.00  0.00    -0.366 OA
ATOM     40  C   UNL     1       3.144  12.573   6.821  0.00  0.00    +0.195 C 
ENDBRANCH  32  39
ENDBRANCH  29  32
ENDBRANCH  27  28
ENDBRANCH   1  26
TORSDOF 8
