REMARK  Name = ZINC40744505
REMARK  12 active torsions:
REMARK  status: ('A' for Active; 'I' for Inactive)
REMARK    1  A    between atoms: C_1  and  C_2
REMARK    2  A    between atoms: C_2  and  O_3
REMARK    3  A    between atoms: O_3  and  C_4
REMARK    4  A    between atoms: C_6  and  C_20
REMARK    5  A    between atoms: C_9  and  O_10
REMARK    6  A    between atoms: O_10  and  C_11
REMARK    7  A    between atoms: C_11  and  C_12
REMARK    8  A    between atoms: C_20  and  N_21
REMARK    9  A    between atoms: N_21  and  C_22
REMARK   10  A    between atoms: C_22  and  C_23
REMARK   11  A    between atoms: C_23  and  N_24
REMARK   12  A    between atoms: C_25  and  C_27
REMARK                            x       y       z     vdW  Elec       q    Type
REMARK                         _______ _______ _______ _____ _____    ______ ____
ROOT
ATOM      1  C   UNL     1       0.802  -1.825   1.306  0.00  0.00    +0.162 A 
ATOM      2  C   UNL     1       0.261  -2.673   0.353  0.00  0.00    +0.051 A 
ATOM      3  C   UNL     1       0.372  -4.043   0.502  0.00  0.00    -0.061 A 
ATOM      4  C   UNL     1       1.024  -4.570   1.602  0.00  0.00    +0.005 A 
ATOM      5  C   UNL     1       1.566  -3.730   2.557  0.00  0.00    +0.049 A 
ATOM      6  C   UNL     1       1.462  -2.356   2.410  0.00  0.00    +0.162 A 
ENDROOT
BRANCH   1   7
ATOM      7  O   UNL     1       0.693  -0.477   1.160  0.00  0.00    -0.489 OA
BRANCH   7   9
ATOM      8  C   UNL     1      -0.019   1.526   0.010  0.00  0.00    +0.048 C 
ATOM      9  C   UNL     1       0.002  -0.004   0.002  0.00  0.00    +0.226 C 
ENDBRANCH   7   9
ENDBRANCH   1   7
BRANCH   6  10
ATOM     10  O   UNL     1       2.000  -1.528   3.345  0.00  0.00    -0.484 OA
BRANCH  10  11
ATOM     11  C   UNL     1       2.664  -2.143   4.451  0.00  0.00    +0.264 C 
BRANCH  11  12
ATOM     12  C   UNL     1       3.191  -1.077   5.376  0.00  0.00    -0.009 A 
ATOM     13  C   UNL     1       4.463  -0.567   5.188  0.00  0.00    +0.008 A 
ATOM     14  C   UNL     1       4.948   0.411   6.036  0.00  0.00    +0.022 A 
ATOM     15  C   UNL     1       4.162   0.880   7.074  0.00  0.00    +0.059 A 
ATOM     16  C   UNL     1       2.889   0.369   7.261  0.00  0.00    +0.060 A 
ATOM     17  C   UNL     1       2.402  -0.606   6.409  0.00  0.00    +0.028 A 
ATOM     18 CL   UNL     1       1.901   0.956   8.563  0.00  0.00    -0.082 Cl
ATOM     19 CL   UNL     1       4.771   2.107   8.139  0.00  0.00    -0.082 Cl
ENDBRANCH  11  12
ENDBRANCH  10  11
ENDBRANCH   6  10
BRANCH   3  20
ATOM     20  C   UNL     1      -0.217  -4.963  -0.535  0.00  0.00    -0.047 C 
BRANCH  20  21
ATOM     21  N   UNL     1       0.787  -5.241  -1.571  0.00  0.00    +0.383 N 
ATOM     22  H   UNL     1       1.067  -4.376  -2.008  0.00  0.00    -0.085 HD
ATOM     23  H   UNL     1       1.592  -5.680  -1.149  0.00  0.00    -0.085 HD
BRANCH  21  24
ATOM     24  C   UNL     1       0.213  -6.138  -2.582  0.00  0.00    -0.063 C 
BRANCH  24  25
ATOM     25  C   UNL     1       1.259  -6.427  -3.660  0.00  0.00    +0.085 C 
BRANCH  25  26
ATOM     26  N   UNL     1       0.686  -7.322  -4.669  0.00  0.00    -0.312 N 
ATOM     27  C   UNL     1       1.430  -7.715  -5.721  0.00  0.00    +0.269 C 
ATOM     28  O   UNL     1       2.576  -7.328  -5.834  0.00  0.00    -0.268 OA
ATOM     29  H   UNL     1      -0.229  -7.631  -4.579  0.00  0.00    +0.149 HD
BRANCH  27  30
ATOM     30  C   UNL     1       0.851  -8.620  -6.741  0.00  0.00    +0.209 A 
ATOM     31  C   UNL     1       1.543  -9.131  -7.930  0.00  0.00    +0.192 A 
ATOM     32  N   UNL     1       0.715  -9.896  -8.589  0.00  0.00    -0.033 NA
ATOM     33  O   UNL     1      -0.513  -9.918  -7.885  0.00  0.00    -0.240 OA
ATOM     34  N   UNL     1      -0.364  -9.105  -6.734  0.00  0.00    -0.042 NA
ATOM     35  N   UNL     1       2.853  -8.850  -8.291  0.00  0.00    -0.339 N 
ATOM     36  H   UNL     1       3.395  -8.268  -7.736  0.00  0.00    +0.144 HD
ATOM     37  H   UNL     1       3.227  -9.236  -9.099  0.00  0.00    +0.144 HD
ENDBRANCH  27  30
ENDBRANCH  25  26
ENDBRANCH  24  25
ENDBRANCH  21  24
ENDBRANCH  20  21
ENDBRANCH   3  20
TORSDOF 11
