REMARK  Name = ZINC09285257
REMARK  12 active torsions:
REMARK  status: ('A' for Active; 'I' for Inactive)
REMARK    1  A    between atoms: C_1  and  C_2
REMARK    2  A    between atoms: C_2  and  O_3
REMARK    3  A    between atoms: O_3  and  C_4
REMARK    4  A    between atoms: C_7  and  N_10
REMARK    5  A    between atoms: N_10  and  C_11
REMARK    6  A    between atoms: C_11  and  N_13
REMARK    7  A    between atoms: N_13  and  N_14
REMARK    8  A    between atoms: C_15  and  C_17
REMARK    9  A    between atoms: C_17  and  N_18
REMARK   10  A    between atoms: C_19  and  C_21
REMARK   11  A    between atoms: C_21  and  N_22
REMARK   12  A    between atoms: C_23  and  C_25
REMARK                            x       y       z     vdW  Elec       q    Type
REMARK                         _______ _______ _______ _____ _____    ______ ____
ROOT
ATOM      1  N   UNL     1       2.403  -0.284   0.161  0.00  0.00    -0.234 N 
ATOM      2  C   UNL     1       3.607  -0.885   0.228  0.00  0.00    +0.246 C 
ATOM      3  O   UNL     1       4.601  -0.293  -0.137  0.00  0.00    -0.273 OA
ATOM      4  H   UNL     1       1.608  -0.758   0.452  0.00  0.00    +0.173 HD
ENDROOT
BRANCH   1   5
ATOM      5  N   UNL     1       2.298   1.024  -0.331  0.00  0.00    -0.246 N 
ATOM      6  H   UNL     1       3.093   1.497  -0.622  0.00  0.00    +0.172 HD
BRANCH   5   7
ATOM      7  C   UNL     1       1.093   1.624  -0.398  0.00  0.00    +0.151 C 
ATOM      8  S   UNL     1       0.965   3.222  -0.998  0.00  0.00    -0.017 S 
BRANCH   7   9
ATOM      9  N   UNL     1      -0.011   0.966   0.007  0.00  0.00    -0.296 N 
ATOM     10  H   UNL     1       0.052   0.040   0.289  0.00  0.00    +0.154 HD
BRANCH   9  14
ATOM     11  C   UNL     1      -3.702   2.905   0.034  0.00  0.00    +0.121 A 
ATOM     12  C   UNL     1      -2.864   3.025  -1.065  0.00  0.00    +0.047 A 
ATOM     13  C   UNL     1      -1.641   2.383  -1.074  0.00  0.00    +0.027 A 
ATOM     14  C   UNL     1      -1.251   1.618   0.017  0.00  0.00    +0.033 A 
ATOM     15  C   UNL     1      -2.093   1.494   1.114  0.00  0.00    +0.027 A 
ATOM     16  C   UNL     1      -3.313   2.140   1.124  0.00  0.00    +0.047 A 
BRANCH  11  17
ATOM     17  O   UNL     1      -4.906   3.537   0.043  0.00  0.00    -0.492 OA
BRANCH  17  19
ATOM     18  C   UNL     1      -7.024   4.149   1.033  0.00  0.00    +0.048 C 
ATOM     19  C   UNL     1      -5.719   3.370   1.206  0.00  0.00    +0.225 C 
ENDBRANCH  17  19
ENDBRANCH  11  17
ENDBRANCH   9  14
ENDBRANCH   7   9
ENDBRANCH   5   7
ENDBRANCH   1   5
BRANCH   2  20
ATOM     20  C   UNL     1       3.720  -2.292   0.756  0.00  0.00    +0.201 C 
BRANCH  20  21
ATOM     21  N   UNL     1       5.123  -2.713   0.728  0.00  0.00    -0.305 N 
ATOM     22  C   UNL     1       5.465  -3.944   1.156  0.00  0.00    +0.231 C 
ATOM     23  O   UNL     1       4.612  -4.703   1.566  0.00  0.00    -0.274 OA
ATOM     24  H   UNL     1       5.805  -2.107   0.400  0.00  0.00    +0.149 HD
BRANCH  22  25
ATOM     25  C   UNL     1       6.908  -4.378   1.127  0.00  0.00    +0.200 C 
BRANCH  25  26
ATOM     26  N   UNL     1       7.017  -5.746   1.641  0.00  0.00    -0.303 N 
ATOM     27  C   UNL     1       8.222  -6.346   1.708  0.00  0.00    +0.246 C 
ATOM     28  O   UNL     1       9.218  -5.752   1.342  0.00  0.00    -0.270 OA
ATOM     29  H   UNL     1       6.223  -6.219   1.932  0.00  0.00    +0.150 HD
BRANCH  27  30
ATOM     30  C   UNL     1       8.332  -7.725   2.226  0.00  0.00    +0.055 A 
ATOM     31  C   UNL     1       7.190  -8.409   2.646  0.00  0.00    +0.016 A 
ATOM     32  C   UNL     1       7.299  -9.696   3.128  0.00  0.00    +0.021 A 
ATOM     33  C   UNL     1       8.539 -10.312   3.196  0.00  0.00    +0.042 A 
ATOM     34  C   UNL     1       9.675  -9.640   2.781  0.00  0.00    +0.040 A 
ATOM     35  C   UNL     1       9.579  -8.352   2.291  0.00  0.00    +0.054 A 
ATOM     36 CL   UNL     1      11.005  -7.513   1.764  0.00  0.00    -0.083 Cl
ATOM     37 CL   UNL     1       8.667 -11.932   3.805  0.00  0.00    -0.083 Cl
ENDBRANCH  27  30
ENDBRANCH  25  26
ENDBRANCH  22  25
ENDBRANCH  20  21
ENDBRANCH   2  20
TORSDOF 11
