REMARK  Name = ZINC09763088
REMARK  12 active torsions:
REMARK  status: ('A' for Active; 'I' for Inactive)
REMARK    1  A    between atoms: C_1  and  C_2
REMARK    2  A    between atoms: C_5  and  N_8
REMARK    3  A    between atoms: C_9  and  C_30
REMARK    4  A    between atoms: C_12  and  S_13
REMARK    5  A    between atoms: S_13  and  C_14
REMARK    6  A    between atoms: C_14  and  C_15
REMARK    7  A    between atoms: N_17  and  N_18
REMARK    8  A    between atoms: C_19  and  C_20
REMARK    9  A    between atoms: C_33  and  C_36
REMARK   10  A    between atoms: C_36  and  C_37
REMARK   11  A    between atoms: C_36  and  C_38
REMARK   12  A    between atoms: C_36  and  C_39
REMARK                            x       y       z     vdW  Elec       q    Type
REMARK                         _______ _______ _______ _____ _____    ______ ____
ROOT
ATOM      1  N   UNL     1       2.727  -4.458   2.846  0.00  0.00    -0.270 N 
ATOM      2  C   UNL     1       2.267  -5.338   3.802  0.00  0.00    +0.169 A 
ATOM      3  N   UNL     1       2.638  -6.540   3.427  0.00  0.00    -0.128 NA
ATOM      4  N   UNL     1       3.288  -6.476   2.321  0.00  0.00    -0.122 NA
ATOM      5  C   UNL     1       3.369  -5.228   1.915  0.00  0.00    +0.197 A 
ENDROOT
BRANCH   1  10
ATOM      6  C   UNL     1       2.073   1.179   2.776  0.00  0.00    +0.044 C 
ATOM      7  C   UNL     1       2.247  -0.317   2.795  0.00  0.00    -0.050 A 
ATOM      8  C   UNL     1       1.606  -1.098   1.850  0.00  0.00    +0.005 A 
ATOM      9  C   UNL     1       1.764  -2.470   1.865  0.00  0.00    +0.026 A 
ATOM     10  C   UNL     1       2.566  -3.066   2.829  0.00  0.00    +0.051 A 
ATOM     11  C   UNL     1       3.208  -2.279   3.776  0.00  0.00    +0.026 A 
ATOM     12  C   UNL     1       3.051  -0.907   3.752  0.00  0.00    +0.005 A 
ENDBRANCH   1  10
BRANCH   2  13
ATOM     13  C   UNL     1       1.502  -4.993   5.018  0.00  0.00    +0.020 A 
ATOM     14  C   UNL     1       0.866  -3.755   5.119  0.00  0.00    +0.012 A 
ATOM     15  C   UNL     1       0.153  -3.439   6.257  0.00  0.00    +0.005 A 
ATOM     16  C   UNL     1       0.068  -4.347   7.298  0.00  0.00    -0.042 A 
ATOM     17  C   UNL     1       0.696  -5.576   7.205  0.00  0.00    +0.005 A 
ATOM     18  C   UNL     1       1.407  -5.907   6.069  0.00  0.00    +0.012 A 
BRANCH  16  19
ATOM     19  C   UNL     1      -0.711  -3.995   8.538  0.00  0.00    -0.013 C 
ATOM     20  C   UNL     1      -2.169  -3.721   8.164  0.00  0.00    +0.015 C 
ATOM     21  C   UNL     1      -0.649  -5.160   9.528  0.00  0.00    +0.015 C 
ATOM     22  C   UNL     1      -0.107  -2.745   9.183  0.00  0.00    +0.015 C 
ENDBRANCH  16  19
ENDBRANCH   2  13
BRANCH   5  23
ATOM     23  S   UNL     1       4.160  -4.654   0.450  0.00  0.00    -0.076 S 
BRANCH  23  24
ATOM     24  C   UNL     1       4.800  -6.165  -0.324  0.00  0.00    +0.174 C 
BRANCH  24  25
ATOM     25  C   UNL     1       5.510  -5.812  -1.605  0.00  0.00    +0.242 C 
ATOM     26  O   UNL     1       5.578  -4.654  -1.962  0.00  0.00    -0.273 OA
ATOM     27  N   UNL     1       6.070  -6.782  -2.355  0.00  0.00    -0.206 N 
ATOM     28  H   UNL     1       6.016  -7.707  -2.070  0.00  0.00    +0.177 HD
BRANCH  27  29
ATOM     29  N   UNL     1       6.730  -6.453  -3.546  0.00  0.00    -0.188 NA
ATOM     30  C   UNL     1       7.196  -7.394  -4.311  0.00  0.00    +0.140 C 
BRANCH  30  31
ATOM     31  C   UNL     1       6.861  -8.800  -4.037  0.00  0.00    +0.020 A 
ATOM     32  C   UNL     1       5.773  -9.259  -3.361  0.00  0.00    +0.093 A 
ATOM     33  N   UNL     1       5.805 -10.621  -3.309  0.00  0.00    -0.360 N 
ATOM     34  H   UNL     1       5.136 -11.175  -2.879  0.00  0.00    +0.165 HD
ATOM     35  C   UNL     1       6.926 -11.097  -3.955  0.00  0.00    +0.047 A 
ATOM     36  C   UNL     1       7.633  -9.986  -4.445  0.00  0.00    +0.008 A 
ATOM     37  C   UNL     1       8.818 -10.171  -5.154  0.00  0.00    +0.010 A 
ATOM     38  C   UNL     1       9.289 -11.446  -5.375  0.00  0.00    +0.001 A 
ATOM     39  C   UNL     1       8.590 -12.544  -4.895  0.00  0.00    +0.002 A 
ATOM     40  C   UNL     1       7.421 -12.376  -4.184  0.00  0.00    +0.026 A 
ENDBRANCH  30  31
ENDBRANCH  27  29
ENDBRANCH  24  25
ENDBRANCH  23  24
ENDBRANCH   5  23
TORSDOF 8
