REMARK  Name = ZINC63686717
REMARK  7 active torsions:
REMARK  status: ('A' for Active; 'I' for Inactive)
REMARK    1  A    between atoms: C_7  and  C_10
REMARK    2  A    between atoms: C_10  and  C_11
REMARK    3  A    between atoms: C_11  and  N_12
REMARK    4  A    between atoms: C_13  and  C_15
REMARK    5  A    between atoms: C_15  and  C_16
REMARK    6  A    between atoms: C_20  and  N_23
REMARK    7  A    between atoms: N_26  and  C_27
REMARK                            x       y       z     vdW  Elec       q    Type
REMARK                         _______ _______ _______ _____ _____    ______ ____
ROOT
ATOM      1  C   UNL     1      -1.752  -6.557  -2.622  0.00  0.00    +0.115 C 
ENDROOT
BRANCH   1   2
ATOM      2  C   UNL     1      -1.986  -7.025  -4.059  0.00  0.00    +0.075 C 
ATOM      3  C   UNL     1      -3.105  -8.095  -4.052  0.00  0.00    +0.091 C 
ATOM      4  S   UNL     1      -2.458  -9.246  -5.346  0.00  0.00    -0.121 S 
ATOM      5  C   UNL     1      -0.667  -8.898  -5.059  0.00  0.00    +0.203 C 
ATOM      6  N   UNL     1      -0.718  -7.489  -4.607  0.00  0.00    -0.286 NA
ATOM      7  H   UNL     1      -0.387  -6.869  -5.331  0.00  0.00    +0.125 HD
BRANCH   5   8
ATOM      8  N   UNL     1       0.101  -9.030  -6.299  0.00  0.00    -0.275 N 
ATOM      9  C   UNL     1       0.402 -10.253  -6.779  0.00  0.00    +0.302 C 
ATOM     10  O   UNL     1       0.037 -11.247  -6.181  0.00  0.00    -0.253 OA
ATOM     11  N   UNL     1       1.108 -10.374  -7.920  0.00  0.00    -0.297 N 
ATOM     12  H   UNL     1       0.392  -8.237  -6.776  0.00  0.00    +0.153 HD
ATOM     13  H   UNL     1       1.400  -9.581  -8.396  0.00  0.00    +0.151 HD
BRANCH  11  14
ATOM     14  C   UNL     1       1.436 -11.704  -8.441  0.00  0.00    +0.074 C 
ATOM     15  C   UNL     1       2.760 -12.201  -7.825  0.00  0.00    +0.022 C 
ATOM     16  C   UNL     1       3.456 -12.959  -8.982  0.00  0.00    +0.002 C 
ATOM     17  C   UNL     1       3.109 -12.091 -10.217  0.00  0.00    +0.002 C 
ATOM     18  C   UNL     1       1.658 -11.634  -9.962  0.00  0.00    +0.022 C 
ENDBRANCH  11  14
ENDBRANCH   5   8
ENDBRANCH   1   2
BRANCH   1  20
ATOM     19  N   UNL     1      -0.458  -4.798  -1.460  0.00  0.00    -0.315 N 
ATOM     20  C   UNL     1      -0.811  -5.380  -2.623  0.00  0.00    +0.215 C 
ATOM     21  O   UNL     1      -0.371  -4.957  -3.671  0.00  0.00    -0.276 OA
ATOM     22  H   UNL     1      -0.810  -5.136  -0.622  0.00  0.00    +0.149 HD
BRANCH  19  23
ATOM     23  C   UNL     1       0.457  -3.653  -1.462  0.00  0.00    +0.108 C 
BRANCH  23  24
ATOM     24  C   UNL     1       0.691  -3.186  -0.024  0.00  0.00    +0.052 C 
BRANCH  24  31
ATOM     25  C   UNL     1      -0.016   1.348   0.009  0.00  0.00    +0.001 A 
ATOM     26  C   UNL     1       1.166   2.101   0.002  0.00  0.00    +0.002 A 
ATOM     27  C   UNL     1       2.391   1.535  -0.013  0.00  0.00    +0.026 A 
ATOM     28  C   UNL     1       2.529   0.120  -0.022  0.00  0.00    +0.043 A 
ATOM     29  N   UNL     1       3.587  -0.654  -0.037  0.00  0.00    -0.380 N 
ATOM     30  C   UNL     1       3.143  -2.053  -0.041  0.00  0.00    +0.144 C 
ATOM     31  C   UNL     1       1.631  -2.008  -0.025  0.00  0.00    -0.040 C 
ATOM     32  C   UNL     1       1.295  -0.698  -0.014  0.00  0.00    -0.001 A 
ATOM     33  C   UNL     1       0.002  -0.004   0.002  0.00  0.00    +0.010 A 
ATOM     34  H   UNL     1       4.509  -0.353  -0.045  0.00  0.00    +0.160 HD
ENDBRANCH  24  31
ENDBRANCH  23  24
ENDBRANCH  19  23
ENDBRANCH   1  20
TORSDOF 7
