REMARK  Name = ZINC40688813
REMARK  11 active torsions:
REMARK  status: ('A' for Active; 'I' for Inactive)
REMARK    1  A    between atoms: C_1  and  C_2
REMARK    2  A    between atoms: C_2  and  C_3
REMARK    3  A    between atoms: C_6  and  O_9
REMARK    4  A    between atoms: O_9  and  C_10
REMARK    5  A    between atoms: C_11  and  N_36
REMARK    6  A    between atoms: C_12  and  N_16
REMARK    7  A    between atoms: N_16  and  C_17
REMARK    8  A    between atoms: C_20  and  C_24
REMARK    9  A    between atoms: C_22  and  C_23
REMARK   10  A    between atoms: C_24  and  C_26
REMARK   11  A    between atoms: C_24  and  C_28
REMARK                            x       y       z     vdW  Elec       q    Type
REMARK                         _______ _______ _______ _____ _____    ______ ____
ROOT
ATOM      1  N   UNL     1       1.365  -0.912   9.405  0.00  0.00    -0.298 N 
ATOM      2  H   UNL     1       2.321  -0.765   9.333  0.00  0.00    +0.154 HD
ENDROOT
BRANCH   1   3
ATOM      3  C   UNL     1       0.845  -1.610  10.499  0.00  0.00    +0.037 A 
ATOM      4  C   UNL     1      -0.460  -1.379  10.916  0.00  0.00    +0.043 A 
ATOM      5  C   UNL     1      -0.970  -2.071  11.998  0.00  0.00    +0.047 A 
ATOM      6  C   UNL     1      -0.182  -2.993  12.665  0.00  0.00    -0.008 A 
ATOM      7  C   UNL     1       1.117  -3.224  12.253  0.00  0.00    +0.011 A 
ATOM      8  C   UNL     1       1.631  -2.540  11.168  0.00  0.00    -0.029 A 
ATOM      9  C   UNL     1       3.045  -2.798  10.714  0.00  0.00    +0.045 C 
ATOM     10 CL   UNL     1      -2.600  -1.784  12.521  0.00  0.00    -0.083 Cl
BRANCH   6  11
ATOM     11  C   UNL     1      -0.741  -3.745  13.845  0.00  0.00    +0.153 C 
BRANCH  11  12
ATOM     12  C   UNL     1       0.034  -3.382  15.086  0.00  0.00    -0.026 A 
ATOM     13  C   UNL     1       1.270  -3.953  15.320  0.00  0.00    +0.006 A 
ATOM     14  C   UNL     1       1.981  -3.620  16.458  0.00  0.00    +0.020 A 
ATOM     15  C   UNL     1       1.454  -2.715  17.362  0.00  0.00    +0.041 A 
ATOM     16  C   UNL     1       0.216  -2.144  17.127  0.00  0.00    +0.020 A 
ATOM     17  C   UNL     1      -0.491  -2.473  15.986  0.00  0.00    +0.006 A 
ATOM     18 CL   UNL     1       2.346  -2.297  18.792  0.00  0.00    -0.084 Cl
ENDBRANCH  11  12
BRANCH  11  19
ATOM     19  C   UNL     1      -0.627  -5.193  13.602  0.00  0.00    +0.075 C 
ATOM     20  N   UNL     1      -0.539  -6.310  13.415  0.00  0.00    -0.196 NA
ENDBRANCH  11  19
ENDBRANCH   6  11
ENDBRANCH   1   3
BRANCH   1  23
ATOM     21  C   UNL     1       0.102   0.832   6.425  0.00  0.00    +0.246 A 
ATOM     22  C   UNL     1       1.001   0.375   7.388  0.00  0.00    +0.128 A 
ATOM     23  C   UNL     1       0.511  -0.430   8.419  0.00  0.00    +0.151 A 
ATOM     24  N   UNL     1      -0.786  -0.727   8.444  0.00  0.00    -0.218 NA
ATOM     25  C   UNL     1      -1.601  -0.274   7.513  0.00  0.00    +0.227 A 
ATOM     26  N   UNL     1      -1.179   0.492   6.527  0.00  0.00    -0.199 NA
BRANCH  22  27
ATOM     27  N   UNL     1       2.361   0.713   7.322  0.00  0.00    -0.351 N 
ATOM     28  H   UNL     1       2.688   1.272   6.599  0.00  0.00    +0.143 HD
ATOM     29  H   UNL     1       2.975   0.388   7.999  0.00  0.00    +0.143 HD
ENDBRANCH  22  27
BRANCH  21  30
ATOM     30  O   UNL     1       0.527   1.615   5.403  0.00  0.00    -0.436 OA
BRANCH  30  34
ATOM     31  C   UNL     1      -2.307   3.141   2.822  0.00  0.00    -0.047 A 
ATOM     32  C   UNL     1      -2.148   3.696   4.078  0.00  0.00    +0.007 A 
ATOM     33  C   UNL     1      -1.199   3.187   4.944  0.00  0.00    +0.046 A 
ATOM     34  C   UNL     1      -0.407   2.118   4.553  0.00  0.00    +0.130 A 
ATOM     35  C   UNL     1      -0.569   1.562   3.292  0.00  0.00    +0.046 A 
ATOM     36  C   UNL     1      -1.522   2.072   2.431  0.00  0.00    +0.007 A 
BRANCH  31  38
ATOM     37  C   UNL     1      -4.672   2.972   2.095  0.00  0.00    +0.009 C 
ATOM     38  C   UNL     1      -3.342   3.698   1.879  0.00  0.00    +0.032 C 
ENDBRANCH  31  38
ENDBRANCH  30  34
ENDBRANCH  21  30
ENDBRANCH   1  23
TORSDOF 9
