REMARK  Name = ZINC09779747
REMARK  10 active torsions:
REMARK  status: ('A' for Active; 'I' for Inactive)
REMARK    1  A    between atoms: C_1  and  C_2
REMARK    2  A    between atoms: C_5  and  N_9
REMARK    3  A    between atoms: C_7  and  C_8
REMARK    4  A    between atoms: C_10  and  C_12
REMARK    5  A    between atoms: C_12  and  C_13
REMARK    6  A    between atoms: C_13  and  C_14
REMARK    7  A    between atoms: N_16  and  N_17
REMARK    8  A    between atoms: C_18  and  C_20
REMARK    9  A    between atoms: C_20  and  O_21
REMARK   10  A    between atoms: O_21  and  C_22
REMARK                            x       y       z     vdW  Elec       q    Type
REMARK                         _______ _______ _______ _____ _____    ______ ____
ROOT
ATOM      1  C   UNL     1      -6.674  -1.267   3.031  0.00  0.00    +0.230 C 
ATOM      2  O   UNL     1      -6.337  -0.898   4.136  0.00  0.00    -0.274 OA
ATOM      3  N   UNL     1      -5.899  -0.991   1.963  0.00  0.00    -0.234 N 
ATOM      4  H   UNL     1      -6.169  -1.286   1.079  0.00  0.00    +0.173 HD
ENDROOT
BRANCH   3   5
ATOM      5  N   UNL     1      -4.705  -0.277   2.129  0.00  0.00    -0.232 N 
ATOM      6  C   UNL     1      -3.931  -0.001   1.061  0.00  0.00    +0.267 C 
ATOM      7  O   UNL     1      -4.268  -0.370  -0.044  0.00  0.00    -0.271 OA
ATOM      8  H   UNL     1      -4.436   0.018   3.013  0.00  0.00    +0.173 HD
BRANCH   6   9
ATOM      9  C   UNL     1      -2.646   0.766   1.241  0.00  0.00    +0.326 C 
BRANCH   9  10
ATOM     10  O   UNL     1      -2.009   0.932  -0.028  0.00  0.00    -0.480 OA
BRANCH  10  11
ATOM     11  C   UNL     1      -0.830   1.608  -0.043  0.00  0.00    +0.153 A 
ATOM     12  C   UNL     1       0.367   0.922   0.113  0.00  0.00    +0.085 A 
ATOM     13  C   UNL     1       1.565   1.611   0.091  0.00  0.00    +0.043 A 
ATOM     14  C   UNL     1       1.572   2.984  -0.080  0.00  0.00    +0.044 A 
ATOM     15  C   UNL     1       0.380   3.670  -0.230  0.00  0.00    +0.039 A 
ATOM     16  C   UNL     1      -0.821   2.985  -0.209  0.00  0.00    +0.062 A 
ATOM     17 BR   UNL     1      -2.449   3.924  -0.414  0.00  0.00    -0.046 Br
ATOM     18 CL   UNL     1       3.078   3.846  -0.108  0.00  0.00    -0.083 Cl
ATOM     19 CL   UNL     1       0.359  -0.801   0.328  0.00  0.00    -0.080 Cl
ENDBRANCH  10  11
ENDBRANCH   9  10
ENDBRANCH   6   9
ENDBRANCH   3   5
BRANCH   1  20
ATOM     20  C   UNL     1      -7.958  -2.034   2.851  0.00  0.00    +0.106 C 
BRANCH  20  21
ATOM     21  C   UNL     1      -8.640  -2.211   4.210  0.00  0.00    +0.105 C 
BRANCH  21  23
ATOM     22  N   UNL     1     -10.700  -3.255   5.098  0.00  0.00    -0.285 N 
ATOM     23  C   UNL     1      -9.925  -2.978   4.030  0.00  0.00    +0.218 C 
ATOM     24  O   UNL     1     -10.262  -3.348   2.925  0.00  0.00    -0.275 OA
ATOM     25  H   UNL     1     -10.394  -3.027   5.990  0.00  0.00    +0.155 HD
BRANCH  22  30
ATOM     26  C   UNL     1     -15.744  -5.747   4.374  0.00  0.00    +0.044 C 
ATOM     27  C   UNL     1     -14.404  -5.085   4.567  0.00  0.00    -0.047 A 
ATOM     28  C   UNL     1     -13.923  -4.210   3.610  0.00  0.00    +0.005 A 
ATOM     29  C   UNL     1     -12.698  -3.597   3.786  0.00  0.00    +0.023 A 
ATOM     30  C   UNL     1     -11.944  -3.869   4.920  0.00  0.00    +0.034 A 
ATOM     31  C   UNL     1     -12.430  -4.748   5.878  0.00  0.00    +0.027 A 
ATOM     32  C   UNL     1     -13.658  -5.353   5.699  0.00  0.00    -0.046 A 
ATOM     33  C   UNL     1     -14.186  -6.308   6.739  0.00  0.00    +0.044 C 
ENDBRANCH  22  30
ENDBRANCH  21  23
ENDBRANCH  20  21
ENDBRANCH   1  20
TORSDOF 8
