REMARK  Name = ZINC39669340
REMARK  6 active torsions:
REMARK  status: ('A' for Active; 'I' for Inactive)
REMARK    1  A    between atoms: C_11  and  C_14
REMARK    2  A    between atoms: C_14  and  N_15
REMARK    3  A    between atoms: C_16  and  C_18
REMARK    4  A    between atoms: C_29  and  C_31
REMARK    5  A    between atoms: C_31  and  C_32
REMARK    6  A    between atoms: C_32  and  C_33
REMARK                            x       y       z     vdW  Elec       q    Type
REMARK                         _______ _______ _______ _____ _____    ______ ____
ROOT
ATOM      1  C   UNL     1       1.760  -6.735   1.441  0.00  0.00    +0.100 C 
ATOM      2  C   UNL     1       1.294  -6.518   2.898  0.00  0.00    +0.121 C 
ATOM      3  N   UNL     1       0.615  -7.782   3.266  0.00  0.00    -0.300 N 
ATOM      4  C   UNL     1       1.448  -8.842   2.649  0.00  0.00    +0.115 C 
ATOM      5  C   UNL     1       1.860  -8.261   1.282  0.00  0.00    -0.004 C 
ATOM      6  C   UNL     1       0.905  -8.743   0.194  0.00  0.00    -0.010 C 
ATOM      7  C   UNL     1       1.064 -10.255   0.015  0.00  0.00    -0.082 C 
ATOM      8  N   UNL     1       2.451 -10.563  -0.353  0.00  0.00    +0.379 N 
ATOM      9  C   UNL     1       3.356 -10.180   0.738  0.00  0.00    -0.082 C 
ATOM     10  C   UNL     1       3.293  -8.665   0.948  0.00  0.00    -0.010 C 
ATOM     11  C   UNL     1      -0.507  -7.935   3.997  0.00  0.00    +0.216 C 
ATOM     12  O   UNL     1      -0.943  -9.046   4.215  0.00  0.00    -0.276 OA
ATOM     13  H   UNL     1       2.539 -11.552  -0.530  0.00  0.00    -0.086 HD
ATOM     14  H   UNL     1       2.698 -10.052  -1.187  0.00  0.00    -0.086 HD
ENDROOT
BRANCH   1  16
ATOM     15  N   UNL     1       3.447  -5.649  -0.006  0.00  0.00    -0.315 N 
ATOM     16  C   UNL     1       3.106  -6.094   1.220  0.00  0.00    +0.218 C 
ATOM     17  O   UNL     1       3.882  -5.980   2.144  0.00  0.00    -0.275 OA
ATOM     18  H   UNL     1       2.826  -5.740  -0.745  0.00  0.00    +0.149 HD
BRANCH  15  19
ATOM     19  C   UNL     1       4.755  -5.026  -0.221  0.00  0.00    +0.109 C 
BRANCH  19  30
ATOM     20  C   UNL     1       2.620  -6.564  -6.944  0.00  0.00    +0.039 A 
ATOM     21  C   UNL     1       3.745  -5.802  -7.216  0.00  0.00    +0.116 A 
ATOM     22  N   UNL     1       4.547  -5.458  -6.222  0.00  0.00    -0.223 NA
ATOM     23  C   UNL     1       4.285  -5.834  -4.979  0.00  0.00    +0.218 A 
ATOM     24  N   UNL     1       3.218  -6.563  -4.686  0.00  0.00    -0.223 NA
ATOM     25  C   UNL     1       2.375  -6.940  -5.633  0.00  0.00    +0.116 A 
ATOM     26  N   UNL     1       5.145  -5.457  -3.963  0.00  0.00    -0.299 N 
ATOM     27  C   UNL     1       6.335  -4.644  -4.253  0.00  0.00    +0.108 C 
ATOM     28  C   UNL     1       6.319  -3.408  -3.348  0.00  0.00    +0.019 C 
ATOM     29  C   UNL     1       6.201  -3.852  -1.887  0.00  0.00    +0.008 C 
ATOM     30  C   UNL     1       4.888  -4.612  -1.688  0.00  0.00    +0.024 C 
ATOM     31  C   UNL     1       4.884  -5.857  -2.574  0.00  0.00    +0.113 C 
ENDBRANCH  19  30
ENDBRANCH  15  19
ENDBRANCH   1  16
BRANCH  11  32
ATOM     32  C   UNL     1      -1.220  -6.725   4.544  0.00  0.00    +0.096 C 
BRANCH  32  33
ATOM     33  C   UNL     1      -2.454  -7.173   5.331  0.00  0.00    +0.013 C 
BRANCH  33  34
ATOM     34  C   UNL     1      -3.178  -5.945   5.886  0.00  0.00    -0.011 C 
ATOM     35  C   UNL     1      -2.314  -5.266   6.968  0.00  0.00    +0.003 C 
ATOM     36  C   UNL     1      -3.338  -4.784   8.026  0.00  0.00    +0.000 C 
ATOM     37  C   UNL     1      -4.373  -5.936   8.048  0.00  0.00    +0.000 C 
ATOM     38  C   UNL     1      -4.488  -6.371   6.572  0.00  0.00    +0.003 C 
ENDBRANCH  33  34
ENDBRANCH  32  33
ENDBRANCH  11  32
TORSDOF 6
