REMARK  Name = ZINC08843892
REMARK  5 active torsions:
REMARK  status: ('A' for Active; 'I' for Inactive)
REMARK    1  A    between atoms: C_1  and  C_2
REMARK    2  A    between atoms: C_3  and  C_20
REMARK    3  A    between atoms: C_4  and  C_10
REMARK    4  A    between atoms: C_14  and  N_16
REMARK    5  A    between atoms: N_22  and  C_23
REMARK                            x       y       z     vdW  Elec       q    Type
REMARK                         _______ _______ _______ _____ _____    ______ ____
ROOT
ATOM      1  C   UNL     1      -3.466   6.588   3.646  0.00  0.00    +0.061 C 
ATOM      2  C   UNL     1      -3.161   6.266   2.206  0.00  0.00    +0.019 C 
ATOM      3  C   UNL     1      -2.964   4.983   1.840  0.00  0.00    +0.056 C 
ATOM      4  C   UNL     1      -2.660   4.703   0.382  0.00  0.00    +0.142 C 
ATOM      5  N   UNL     1      -2.604   5.864  -0.522  0.00  0.00    -0.288 N 
ATOM      6  C   UNL     1      -2.824   7.090  -0.007  0.00  0.00    +0.304 C 
ATOM      7  O   UNL     1      -2.781   8.055  -0.745  0.00  0.00    -0.252 OA
ATOM      8  N   UNL     1      -3.089   7.280   1.292  0.00  0.00    -0.273 N 
ATOM      9  H   UNL     1      -2.414   5.749  -1.466  0.00  0.00    +0.151 HD
ATOM     10  H   UNL     1      -3.237   8.187   1.601  0.00  0.00    +0.156 HD
ENDROOT
BRANCH   4  11
ATOM     11  C   UNL     1      -1.332   3.995   0.312  0.00  0.00    -0.020 A 
ATOM     12  C   UNL     1      -0.164   4.690   0.568  0.00  0.00    +0.007 A 
ATOM     13  C   UNL     1       1.054   4.042   0.504  0.00  0.00    +0.022 A 
ATOM     14  C   UNL     1       1.106   2.696   0.183  0.00  0.00    +0.071 A 
ATOM     15  C   UNL     1      -0.063   2.002  -0.073  0.00  0.00    +0.145 A 
ATOM     16  C   UNL     1      -1.281   2.653  -0.014  0.00  0.00    +0.040 A 
ATOM     17 CL   UNL     1       2.636   1.881   0.101  0.00  0.00    -0.081 Cl
BRANCH  15  18
ATOM     18  N   UNL     1      -0.009   0.564  -0.417  0.00  0.00    +0.058 N 
ATOM     19  O   UNL     1      -1.038  -0.048  -0.643  0.00  0.00    -0.126 OA
ATOM     20  O   UNL     1       1.065  -0.009  -0.475  0.00  0.00    -0.126 OA
ENDBRANCH  15  18
ENDBRANCH   4  11
BRANCH   3  21
ATOM     21  C   UNL     1      -3.039   3.932   2.787  0.00  0.00    +0.248 C 
ATOM     22  O   UNL     1      -4.088   3.334   2.951  0.00  0.00    -0.270 OA
ATOM     23  N   UNL     1      -1.951   3.593   3.505  0.00  0.00    -0.282 N 
ATOM     24  H   UNL     1      -1.087   3.979   3.289  0.00  0.00    +0.155 HD
BRANCH  23  25
ATOM     25  C   UNL     1      -2.065   2.683   4.562  0.00  0.00    +0.034 A 
ATOM     26  C   UNL     1      -3.099   1.756   4.573  0.00  0.00    +0.024 A 
ATOM     27  C   UNL     1      -3.206   0.856   5.615  0.00  0.00    +0.017 A 
ATOM     28  C   UNL     1      -2.292   0.885   6.653  0.00  0.00    +0.018 A 
ATOM     29  C   UNL     1      -1.266   1.813   6.649  0.00  0.00    +0.017 A 
ATOM     30  C   UNL     1      -1.150   2.711   5.606  0.00  0.00    +0.024 A 
ATOM     31 BR   UNL     1      -2.448  -0.343   8.082  0.00  0.00    -0.050 Br
ENDBRANCH  23  25
ENDBRANCH   3  21
TORSDOF 4
