REMARK  Name = ZINC22633690
REMARK  5 active torsions:
REMARK  status: ('A' for Active; 'I' for Inactive)
REMARK    1  A    between atoms: C_1  and  O_2
REMARK    2  A    between atoms: O_2  and  C_3
REMARK    3  A    between atoms: C_8  and  C_9
REMARK    4  A    between atoms: N_18  and  C_21
REMARK    5  A    between atoms: C_21  and  C_22
REMARK                            x       y       z     vdW  Elec       q    Type
REMARK                         _______ _______ _______ _____ _____    ______ ____
ROOT
ATOM      1  C   UNL     1       4.414   7.112  -7.617  0.00  0.00    +0.194 C 
ATOM      2  N   UNL     1       3.065   6.727  -7.162  0.00  0.00    -0.316 N 
ATOM      3  C   UNL     1       2.956   6.272  -5.874  0.00  0.00    +0.080 A 
ATOM      4  C   UNL     1       4.034   5.715  -5.167  0.00  0.00    +0.068 A 
ATOM      5  C   UNL     1       3.742   5.278  -3.813  0.00  0.00    -0.027 A 
ATOM      6  C   UNL     1       2.467   5.461  -3.399  0.00  0.00    -0.021 A 
ATOM      7  S   UNL     1       1.642   6.209  -4.777  0.00  0.00    -0.080 S 
ATOM      8  C   UNL     1       1.906   5.099  -2.060  0.00  0.00    -0.035 C 
ATOM      9  N   UNL     1       2.858   4.194  -1.389  0.00  0.00    +0.386 N 
ATOM     10  C   UNL     1       4.221   4.740  -1.445  0.00  0.00    -0.073 C 
ATOM     11  C   UNL     1       4.765   4.649  -2.873  0.00  0.00    +0.018 C 
ATOM     12  C   UNL     1       5.339   5.633  -5.862  0.00  0.00    +0.248 C 
ATOM     13  O   UNL     1       6.290   5.063  -5.359  0.00  0.00    -0.270 OA
ATOM     14  N   UNL     1       5.431   6.217  -7.075  0.00  0.00    -0.289 N 
ATOM     15  H   UNL     1       2.208   6.811  -7.847  0.00  0.00    +0.149 HD
ATOM     16  H   UNL     1       6.332   5.988  -7.663  0.00  0.00    +0.151 HD
ATOM     17  H   UNL     1       2.855   3.232  -1.922  0.00  0.00    -0.081 HD
ENDROOT
BRANCH   1  23
ATOM     18  C   UNL     1       6.015   8.947  -7.024  0.00  0.00    +0.127 A 
ATOM     19  C   UNL     1       6.279  10.246  -6.614  0.00  0.00    +0.047 A 
ATOM     20  C   UNL     1       5.236  11.108  -6.338  0.00  0.00    +0.019 A 
ATOM     21  C   UNL     1       3.928  10.678  -6.474  0.00  0.00    +0.018 A 
ATOM     22  C   UNL     1       3.662   9.385  -6.887  0.00  0.00    +0.026 A 
ATOM     23  C   UNL     1       4.703   8.520  -7.166  0.00  0.00    +0.033 A 
ATOM     24 BR   UNL     1       2.501  11.859  -6.094  0.00  0.00    -0.050 Br
BRANCH  18  26
ATOM     25  C   UNL     1       8.366   8.605  -7.125  0.00  0.00    +0.277 C 
ATOM     26  O   UNL     1       7.041   8.097  -7.293  0.00  0.00    -0.495 OA
ENDBRANCH  18  26
ENDBRANCH   1  23
BRANCH   9  27
ATOM     27  C   UNL     1       2.451   3.937  -0.001  0.00  0.00    -0.043 C 
BRANCH  27  28
ATOM     28  C   UNL     1       1.156   3.165   0.008  0.00  0.00    -0.064 A 
ATOM     29  C   UNL     1       1.175   1.783   0.000  0.00  0.00    +0.002 A 
ATOM     30  C   UNL     1      -0.013   1.076   0.008  0.00  0.00    +0.000 A 
ATOM     31  C   UNL     1      -1.219   1.751   0.017  0.00  0.00    +0.000 A 
ATOM     32  C   UNL     1      -1.238   3.133   0.030  0.00  0.00    +0.000 A 
ATOM     33  C   UNL     1      -0.050   3.840   0.022  0.00  0.00    +0.002 A 
ENDBRANCH  27  28
ENDBRANCH   9  27
TORSDOF 4
