REMARK  Name = ZINC04517741
REMARK  14 active torsions:
REMARK  status: ('A' for Active; 'I' for Inactive)
REMARK    1  A    between atoms: C_1  and  C_2
REMARK    2  A    between atoms: C_2  and  C_3
REMARK    3  A    between atoms: C_3  and  C_5
REMARK    4  A    between atoms: C_3  and  N_7
REMARK    5  A    between atoms: C_5  and  O_6
REMARK    6  A    between atoms: N_7  and  S_8
REMARK    7  A    between atoms: S_8  and  C_11
REMARK    8  A    between atoms: C_22  and  S_27
REMARK    9  A    between atoms: S_27  and  N_30
REMARK   10  A    between atoms: N_30  and  C_31
REMARK   11  A    between atoms: C_31  and  C_33
REMARK   12  A    between atoms: C_31  and  C_35
REMARK   13  A    between atoms: C_33  and  C_34
REMARK   14  A    between atoms: C_35  and  O_36
REMARK                            x       y       z     vdW  Elec       q    Type
REMARK                         _______ _______ _______ _____ _____    ______ ____
ROOT
ATOM      1  C   UNL     1      -3.907   1.684  -0.245  0.00  0.00    +0.106 A 
ATOM      2  C   UNL     1      -4.124   1.577   1.116  0.00  0.00    +0.029 A 
ATOM      3  C   UNL     1      -4.275   2.713   1.892  0.00  0.00    +0.014 A 
ATOM      4  C   UNL     1      -4.207   3.971   1.301  0.00  0.00    +0.033 A 
ATOM      5  C   UNL     1      -3.986   4.080  -0.083  0.00  0.00    +0.035 A 
ATOM      6  C   UNL     1      -3.832   2.927  -0.848  0.00  0.00    +0.041 A 
ATOM      7  C   UNL     1      -3.913   5.412  -0.719  0.00  0.00    +0.195 C 
ATOM      8  O   UNL     1      -3.722   5.505  -1.915  0.00  0.00    -0.287 OA
ATOM      9  C   UNL     1      -4.074   6.630   0.102  0.00  0.00    +0.033 A 
ATOM     10  C   UNL     1      -4.007   7.889  -0.489  0.00  0.00    +0.014 A 
ATOM     11  C   UNL     1      -4.159   9.024   0.288  0.00  0.00    +0.029 A 
ATOM     12  C   UNL     1      -4.376   8.918   1.649  0.00  0.00    +0.106 A 
ATOM     13  C   UNL     1      -4.445   7.674   2.253  0.00  0.00    +0.041 A 
ATOM     14  C   UNL     1      -4.295   6.522   1.487  0.00  0.00    +0.035 A 
ATOM     15  C   UNL     1      -4.367   5.190   2.123  0.00  0.00    +0.195 C 
ATOM     16  O   UNL     1      -4.559   5.096   3.319  0.00  0.00    -0.287 OA
ENDROOT
BRANCH   1  17
ATOM     17  S   UNL     1      -3.718   0.227  -1.218  0.00  0.00    +0.059 S 
ATOM     18  O   UNL     1      -4.064   0.580  -2.550  0.00  0.00    -0.153 OA
ATOM     19  O   UNL     1      -4.373  -0.820  -0.514  0.00  0.00    -0.153 OA
BRANCH  17  20
ATOM     20  N   UNL     1      -2.105  -0.148  -1.230  0.00  0.00    -0.185 NA
ATOM     21  H   UNL     1      -1.606  -0.113  -2.061  0.00  0.00    +0.148 HD
BRANCH  20  22
ATOM     22  C   UNL     1      -1.433  -0.534   0.013  0.00  0.00    +0.102 C 
BRANCH  22  24
ATOM     23  C   UNL     1      -0.019   1.526   0.010  0.00  0.00    +0.005 C 
ATOM     24  C   UNL     1       0.002  -0.004   0.002  0.00  0.00    +0.019 C 
ENDBRANCH  22  24
BRANCH  22  25
ATOM     25  C   UNL     1      -1.413  -2.059   0.130  0.00  0.00    +0.176 C 
BRANCH  25  26
ATOM     26  O   UNL     1      -0.612  -2.607  -0.918  0.00  0.00    -0.393 OA
ATOM     27  H   UNL     1      -0.554  -3.572  -0.906  0.00  0.00    +0.209 HD
ENDBRANCH  25  26
ENDBRANCH  22  25
ENDBRANCH  20  22
ENDBRANCH  17  20
ENDBRANCH   1  17
BRANCH  12  28
ATOM     28  S   UNL     1      -4.566  10.375   2.622  0.00  0.00    +0.059 S 
ATOM     29  O   UNL     1      -4.214  10.023   3.953  0.00  0.00    -0.153 OA
ATOM     30  O   UNL     1      -3.917  11.423   1.915  0.00  0.00    -0.153 OA
BRANCH  28  31
ATOM     31  N   UNL     1      -6.180  10.744   2.641  0.00  0.00    -0.185 NA
ATOM     32  H   UNL     1      -6.495  11.563   2.227  0.00  0.00    +0.148 HD
BRANCH  31  33
ATOM     33  C   UNL     1      -7.132   9.835   3.282  0.00  0.00    +0.102 C 
BRANCH  33  34
ATOM     34  C   UNL     1      -8.250  10.647   3.939  0.00  0.00    +0.019 C 
ATOM     35  C   UNL     1      -7.668  11.490   5.075  0.00  0.00    +0.005 C 
ENDBRANCH  33  34
BRANCH  33  36
ATOM     36  C   UNL     1      -7.732   8.899   2.230  0.00  0.00    +0.176 C 
BRANCH  36  37
ATOM     37  O   UNL     1      -8.504   9.661   1.300  0.00  0.00    -0.393 OA
ATOM     38  H   UNL     1      -8.915   9.132   0.603  0.00  0.00    +0.209 HD
ENDBRANCH  36  37
ENDBRANCH  33  36
ENDBRANCH  31  33
ENDBRANCH  28  31
ENDBRANCH  12  28
TORSDOF 12
