REMARK  Name = ZINC40008474
REMARK  17 active torsions:
REMARK  status: ('A' for Active; 'I' for Inactive)
REMARK    1  A    between atoms: C_1  and  C_2
REMARK    2  A    between atoms: C_2  and  C_3
REMARK    3  A    between atoms: C_3  and  O_4
REMARK    4  A    between atoms: O_4  and  C_5
REMARK    5  A    between atoms: C_8  and  C_14
REMARK    6  A    between atoms: C_10  and  O_11
REMARK    7  A    between atoms: O_11  and  C_12
REMARK    8  A    between atoms: C_12  and  C_13
REMARK    9  A    between atoms: C_21  and  C_38
REMARK   10  A    between atoms: N_29  and  C_30
REMARK   11  A    between atoms: C_30  and  C_31
REMARK   12  A    between atoms: C_31  and  C_32
REMARK   13  A    between atoms: C_32  and  N_33
REMARK   14  A    between atoms: N_33  and  C_34
REMARK   15  A    between atoms: N_33  and  C_36
REMARK   16  A    between atoms: C_34  and  C_35
REMARK   17  A    between atoms: C_36  and  C_37
REMARK                            x       y       z     vdW  Elec       q    Type
REMARK                         _______ _______ _______ _____ _____    ______ ____
ROOT
ATOM      1  C   UNL     1       3.297  -5.198  -7.066  0.00  0.00    +0.145 C 
ATOM      2  C   UNL     1       2.703  -5.217  -8.436  0.00  0.00    +0.072 A 
ATOM      3  C   UNL     1       1.553  -5.946  -8.981  0.00  0.00    +0.199 A 
ATOM      4  O   UNL     1       0.765  -6.563  -8.286  0.00  0.00    -0.287 OA
ATOM      5  C   UNL     1       1.440  -5.859 -10.459  0.00  0.00    +0.065 A 
ATOM      6  C   UNL     1       0.523  -6.655 -11.145  0.00  0.00    +0.018 A 
ATOM      7  C   UNL     1       0.434  -6.568 -12.506  0.00  0.00    -0.050 A 
ATOM      8  C   UNL     1       1.253  -5.691 -13.204  0.00  0.00    +0.007 A 
ATOM      9  C   UNL     1       2.162  -4.896 -12.543  0.00  0.00    +0.047 A 
ATOM     10  C   UNL     1       2.270  -4.965 -11.154  0.00  0.00    +0.139 A 
ATOM     11  O   UNL     1       3.163  -4.169 -10.524  0.00  0.00    -0.450 OA
ATOM     12  C   UNL     1       3.444  -4.381  -9.223  0.00  0.00    +0.199 A 
ATOM     13  C   UNL     1       4.526  -3.811  -8.401  0.00  0.00    +0.283 C 
ATOM     14  O   UNL     1       5.366  -3.030  -8.802  0.00  0.00    -0.267 OA
ATOM     15  N   UNL     1       4.448  -4.282  -7.138  0.00  0.00    -0.284 N 
ATOM     16  C   UNL     1      -0.555  -7.426 -13.251  0.00  0.00    +0.044 C 
ENDROOT
BRANCH   1  20
ATOM     17  C   UNL     1       0.436  -3.743  -4.240  0.00  0.00    +0.162 A 
ATOM     18  C   UNL     1       1.107  -2.859  -5.069  0.00  0.00    +0.050 A 
ATOM     19  C   UNL     1       2.031  -3.332  -5.982  0.00  0.00    +0.009 A 
ATOM     20  C   UNL     1       2.289  -4.687  -6.069  0.00  0.00    -0.019 A 
ATOM     21  C   UNL     1       1.623  -5.575  -5.245  0.00  0.00    +0.055 A 
ATOM     22  C   UNL     1       0.700  -5.107  -4.324  0.00  0.00    +0.162 A 
BRANCH  17  23
ATOM     23  O   UNL     1      -0.473  -3.279  -3.341  0.00  0.00    -0.488 OA
BRANCH  23  24
ATOM     24  C   UNL     1      -0.693  -1.868  -3.311  0.00  0.00    +0.229 C 
BRANCH  24  26
ATOM     25  C   UNL     1      -1.976  -0.026  -2.213  0.00  0.00    +0.007 C 
ATOM     26  C   UNL     1      -1.741  -1.538  -2.246  0.00  0.00    +0.038 C 
ENDBRANCH  24  26
ENDBRANCH  23  24
ENDBRANCH  17  23
BRANCH  22  27
ATOM     27  O   UNL     1       0.049  -5.979  -3.508  0.00  0.00    -0.489 OA
BRANCH  27  28
ATOM     28  C   UNL     1       0.370  -7.364  -3.651  0.00  0.00    +0.226 C 
ATOM     29  C   UNL     1      -0.456  -8.184  -2.657  0.00  0.00    +0.048 C 
ENDBRANCH  27  28
ENDBRANCH  22  27
ENDBRANCH   1  20
BRANCH  15  30
ATOM     30  C   UNL     1       5.349  -3.943  -6.034  0.00  0.00    +0.107 C 
BRANCH  30  31
ATOM     31  C   UNL     1       6.518  -4.929  -6.008  0.00  0.00    +0.000 C 
BRANCH  31  32
ATOM     32  C   UNL     1       7.459  -4.575  -4.855  0.00  0.00    -0.077 C 
BRANCH  32  33
ATOM     33  N   UNL     1       8.582  -5.522  -4.831  0.00  0.00    +0.379 N 
ATOM     34  H   UNL     1       8.226  -6.465  -4.784  0.00  0.00    -0.082 HD
BRANCH  33  35
ATOM     35  C   UNL     1       9.385  -5.362  -6.050  0.00  0.00    -0.082 C 
ATOM     36  C   UNL     1      10.468  -6.441  -6.094  0.00  0.00    -0.017 C 
ENDBRANCH  33  35
BRANCH  33  37
ATOM     37  C   UNL     1       9.420  -5.257  -3.654  0.00  0.00    -0.082 C 
ATOM     38  C   UNL     1       8.626  -5.562  -2.382  0.00  0.00    -0.017 C 
ENDBRANCH  33  37
ENDBRANCH  32  33
ENDBRANCH  31  32
ENDBRANCH  30  31
ENDBRANCH  15  30
TORSDOF 12
