REMARK  Name = ZINC39945907
REMARK  15 active torsions:
REMARK  status: ('A' for Active; 'I' for Inactive)
REMARK    1  A    between atoms: C_1  and  C_2
REMARK    2  A    between atoms: C_6  and  C_13
REMARK    3  A    between atoms: C_6  and  O_14
REMARK    4  A    between atoms: C_7  and  C_12
REMARK    5  A    between atoms: C_9  and  C_11
REMARK    6  A    between atoms: O_14  and  C_15
REMARK    7  A    between atoms: C_15  and  C_39
REMARK    8  A    between atoms: C_16  and  C_37
REMARK    9  A    between atoms: C_16  and  O_38
REMARK   10  A    between atoms: C_17  and  C_36
REMARK   11  A    between atoms: C_18  and  C_35
REMARK   12  A    between atoms: C_21  and  C_24
REMARK   13  A    between atoms: C_31  and  C_32
REMARK   14  A    between atoms: C_31  and  O_33
REMARK   15  A    between atoms: O_33  and  C_34
REMARK                            x       y       z     vdW  Elec       q    Type
REMARK                         _______ _______ _______ _____ _____    ______ ____
ROOT
ATOM      1  C   UNL     1       3.770  -1.695  -0.953  0.00  0.00    +0.154 C 
ATOM      2  C   UNL     1       4.897  -0.717  -0.599  0.00  0.00    +0.128 C 
ATOM      3  C   UNL     1       5.990  -1.486   0.144  0.00  0.00    +0.132 C 
ATOM      4  C   UNL     1       6.486  -2.625  -0.757  0.00  0.00    +0.125 C 
ATOM      5  C   UNL     1       7.607  -3.365  -0.027  0.00  0.00    +0.201 C 
ATOM      6  O   UNL     1       8.621  -2.414   0.324  0.00  0.00    -0.344 OA
ATOM      7  C   UNL     1       8.158  -1.327   1.126  0.00  0.00    +0.283 C 
ATOM      8  O   UNL     1       7.095  -0.639   0.456  0.00  0.00    -0.335 OA
ATOM      9  O   UNL     1       5.394  -3.496  -1.044  0.00  0.00    -0.335 OA
ATOM     10  C   UNL     1       4.336  -2.859  -1.768  0.00  0.00    +0.199 C 
ATOM     11  C   UNL     1       3.225  -3.875  -2.041  0.00  0.00    +0.077 C 
ATOM     12  C   UNL     1       7.027  -2.042  -2.064  0.00  0.00    +0.047 C 
ATOM     13  C   UNL     1       5.414  -2.071   1.435  0.00  0.00    +0.048 C 
ATOM     14  C   UNL     1       4.350   0.395   0.299  0.00  0.00    +0.047 C 
ATOM     15  C   UNL     1       2.705  -0.967  -1.776  0.00  0.00    +0.050 C 
ENDROOT
BRANCH   7  16
ATOM     16  C   UNL     1       7.653  -1.858   2.443  0.00  0.00    +0.008 A 
ATOM     17  C   UNL     1       7.887  -3.174   2.793  0.00  0.00    +0.008 A 
ATOM     18  C   UNL     1       7.425  -3.661   4.002  0.00  0.00    +0.000 A 
ATOM     19  C   UNL     1       6.729  -2.831   4.860  0.00  0.00    +0.000 A 
ATOM     20  C   UNL     1       6.496  -1.514   4.511  0.00  0.00    +0.000 A 
ATOM     21  C   UNL     1       6.962  -1.026   3.304  0.00  0.00    +0.008 A 
ENDBRANCH   7  16
BRANCH  10  22
ATOM     22  O   UNL     1       4.841  -2.367  -3.011  0.00  0.00    -0.350 OA
ATOM     23  C   UNL     1       5.303  -3.389  -3.896  0.00  0.00    +0.197 C 
ENDBRANCH  10  22
BRANCH   2  24
ATOM     24  O   UNL     1       5.436  -0.151  -1.795  0.00  0.00    -0.383 OA
ATOM     25  H   UNL     1       4.791   0.338  -2.324  0.00  0.00    +0.210 HD
ENDBRANCH   2  24
BRANCH   1  26
ATOM     26  O   UNL     1       3.181  -2.197   0.248  0.00  0.00    -0.334 OA
BRANCH  26  31
ATOM     27  C   UNL     1       1.806   0.922   3.202  0.00  0.00    +0.010 C 
ATOM     28  C   UNL     1       1.257  -0.126   2.232  0.00  0.00    +0.015 C 
ATOM     29  C   UNL     1       1.771   0.164   0.820  0.00  0.00    +0.166 C 
ATOM     30  O   UNL     1       1.304  -0.849  -0.073  0.00  0.00    -0.348 OA
ATOM     31  C   UNL     1       1.753  -2.166   0.253  0.00  0.00    +0.171 C 
ATOM     32  C   UNL     1       1.238  -2.550   1.642  0.00  0.00    +0.048 C 
ATOM     33  C   UNL     1       1.727  -1.519   2.664  0.00  0.00    -0.001 C 
ATOM     34  C   UNL     1       3.256  -1.546   2.725  0.00  0.00    +0.008 C 
ATOM     35  C   UNL     1      -0.292  -2.574   1.632  0.00  0.00    +0.013 C 
ATOM     36  C   UNL     1       1.217  -3.158  -0.782  0.00  0.00    +0.074 C 
ENDBRANCH  26  31
ENDBRANCH   1  26
TORSDOF 5
