REMARK  Name = ZINC13731704
REMARK  12 active torsions:
REMARK  status: ('A' for Active; 'I' for Inactive)
REMARK    1  A    between atoms: C_1  and  N_2
REMARK    2  A    between atoms: C_3  and  S_7
REMARK    3  A    between atoms: S_7  and  C_8
REMARK    4  A    between atoms: C_8  and  C_9
REMARK    5  A    between atoms: C_9  and  N_43
REMARK    6  A    between atoms: C_10  and  C_11
REMARK    7  A    between atoms: C_10  and  N_43
REMARK    8  A    between atoms: C_13  and  O_23
REMARK    9  A    between atoms: C_14  and  O_18
REMARK   10  A    between atoms: O_18  and  C_19
REMARK   11  A    between atoms: C_19  and  C_20
REMARK   12  A    between atoms: O_23  and  C_24
REMARK                            x       y       z     vdW  Elec       q    Type
REMARK                         _______ _______ _______ _____ _____    ______ ____
ROOT
ATOM      1  C   UNL     1       0.936   0.439   4.819  0.00  0.00    -0.060 A 
ATOM      2  C   UNL     1       1.347   1.612   4.213  0.00  0.00    +0.051 A 
ATOM      3  C   UNL     1       0.807   1.987   2.993  0.00  0.00    +0.163 A 
ATOM      4  C   UNL     1      -0.148   1.182   2.381  0.00  0.00    +0.176 A 
ATOM      5  C   UNL     1      -0.559   0.010   2.996  0.00  0.00    +0.063 A 
ATOM      6  C   UNL     1      -0.013  -0.362   4.211  0.00  0.00    +0.021 A 
ATOM      7 BR   UNL     1      -1.863  -1.084   2.171  0.00  0.00    -0.046 Br
ENDROOT
BRANCH   3   8
ATOM      8  O   UNL     1       1.210   3.141   2.396  0.00  0.00    -0.491 OA
ATOM      9  C   UNL     1       2.194   3.917   3.082  0.00  0.00    +0.277 C 
ENDBRANCH   3   8
BRANCH   1  10
ATOM     10  C   UNL     1       1.524   0.033   6.146  0.00  0.00    -0.047 C 
BRANCH  10  11
ATOM     11  N   UNL     1       0.702   0.598   7.232  0.00  0.00    +0.382 N 
ATOM     12  H   UNL     1       0.694   1.622   7.153  0.00  0.00    -0.085 HD
ATOM     13  H   UNL     1      -0.258   0.241   7.152  0.00  0.00    -0.085 HD
BRANCH  11  14
ATOM     14  C   UNL     1       1.255   0.216   8.545  0.00  0.00    -0.071 C 
BRANCH  14  15
ATOM     15  C   UNL     1       0.383   0.815   9.650  0.00  0.00    +0.058 C 
BRANCH  15  16
ATOM     16  S   UNL     1       1.054   0.352  11.266  0.00  0.00    -0.086 S 
BRANCH  16  19
ATOM     17  C   UNL     1       0.852   0.472  14.558  0.00  0.00    +0.177 C 
ATOM     18  N   UNL     1      -0.106   1.142  13.675  0.00  0.00    -0.223 N 
ATOM     19  C   UNL     1      -0.109   1.152  12.321  0.00  0.00    +0.209 A 
ATOM     20  N   UNL     1      -1.147   1.866  11.941  0.00  0.00    -0.102 NA
ATOM     21  N   UNL     1      -1.787   2.306  12.963  0.00  0.00    -0.022 NA
ATOM     22  N   UNL     1      -1.219   1.915  14.052  0.00  0.00    -0.043 NA
ENDBRANCH  16  19
ENDBRANCH  15  16
ENDBRANCH  14  15
ENDBRANCH  11  14
ENDBRANCH  10  11
ENDBRANCH   1  10
BRANCH   4  23
ATOM     23  O   UNL     1      -0.682   1.547   1.184  0.00  0.00    -0.478 OA
BRANCH  23  24
ATOM     24  C   UNL     1      -0.013   1.086   0.008  0.00  0.00    +0.324 C 
BRANCH  24  25
ATOM     25  C   UNL     1      -0.742   1.585  -1.213  0.00  0.00    +0.248 C 
ATOM     26  O   UNL     1      -1.736   2.268  -1.088  0.00  0.00    -0.272 OA
ATOM     27  N   UNL     1      -0.288   1.272  -2.443  0.00  0.00    -0.327 N 
ATOM     28  H   UNL     1       0.507   0.726  -2.543  0.00  0.00    +0.145 HD
ATOM     29  H   UNL     1      -0.758   1.594  -3.229  0.00  0.00    +0.145 HD
ENDBRANCH  24  25
ENDBRANCH  23  24
ENDBRANCH   4  23
TORSDOF 10
