REMARK  Name = ZINC23373818
REMARK  10 active torsions:
REMARK  status: ('A' for Active; 'I' for Inactive)
REMARK    1  A    between atoms: C_1  and  C_2
REMARK    2  A    between atoms: C_2  and  C_38
REMARK    3  A    between atoms: C_7  and  C_11
REMARK    4  A    between atoms: C_11  and  N_12
REMARK    5  A    between atoms: N_12  and  C_13
REMARK    6  A    between atoms: C_16  and  C_28
REMARK    7  A    between atoms: N_18  and  C_20
REMARK    8  A    between atoms: C_20  and  C_21
REMARK    9  A    between atoms: N_30  and  C_31
REMARK   10  A    between atoms: C_31  and  C_32
REMARK                            x       y       z     vdW  Elec       q    Type
REMARK                         _______ _______ _______ _____ _____    ______ ____
ROOT
ATOM      1  C   UNL     1       1.892   2.018   4.783  0.00  0.00    +0.036 C 
ATOM      2  C   UNL     1       3.108   2.971   4.922  0.00  0.00    +0.010 C 
ATOM      3  C   UNL     1       2.742   3.826   6.153  0.00  0.00    +0.021 C 
ATOM      4  N   UNL     1       1.276   3.768   6.304  0.00  0.00    +0.391 N 
ATOM      5  C   UNL     1       0.722   2.938   5.213  0.00  0.00    -0.059 C 
ATOM      6  H   UNL     1       1.043   3.357   7.195  0.00  0.00    -0.080 HD
ENDROOT
BRANCH   3   7
ATOM      7  C   UNL     1       3.182   5.251   5.936  0.00  0.00    +0.200 C 
ATOM      8  O   UNL     1       2.707   5.902   5.030  0.00  0.00    -0.278 OA
ATOM      9  N   UNL     1       4.105   5.802   6.750  0.00  0.00    -0.312 N 
ATOM     10  H   UNL     1       4.484   5.281   7.475  0.00  0.00    +0.149 HD
BRANCH   9  11
ATOM     11  C   UNL     1       4.533   7.187   6.540  0.00  0.00    +0.141 C 
BRANCH  11  12
ATOM     12  C   UNL     1       5.563   7.557   7.577  0.00  0.00    -0.012 A 
ATOM     13  C   UNL     1       5.173   8.104   8.790  0.00  0.00    +0.008 A 
ATOM     14  C   UNL     1       6.154   8.429   9.713  0.00  0.00    +0.020 A 
ATOM     15  C   UNL     1       7.480   8.199   9.396  0.00  0.00    +0.111 A 
ATOM     16  N   UNL     1       7.814   7.678   8.232  0.00  0.00    -0.263 NA
ATOM     17  C   UNL     1       6.907   7.351   7.332  0.00  0.00    +0.115 A 
ENDBRANCH  11  12
ENDBRANCH   9  11
ENDBRANCH   3   7
BRANCH   1  18
ATOM     18  N   UNL     1       1.728   1.572   3.393  0.00  0.00    -0.311 NA
ATOM     19  H   UNL     1       1.991   2.301   2.746  0.00  0.00    +0.122 HD
BRANCH  18  20
ATOM     20  C   UNL     1       2.491   0.343   3.141  0.00  0.00    +0.112 C 
BRANCH  20  26
ATOM     21  C   UNL     1       0.490   1.134  -0.107  0.00  0.00    +0.012 C 
ATOM     22  C   UNL     1       0.480  -0.393  -0.015  0.00  0.00    -0.025 C 
ATOM     23  C   UNL     1       1.673  -1.069  -0.720  0.00  0.00    -0.000 C 
ATOM     24  C   UNL     1       2.922  -0.180  -0.651  0.00  0.00    +0.031 C 
ATOM     25  C   UNL     1       3.156   0.260   0.774  0.00  0.00    -0.026 C 
ATOM     26  C   UNL     1       2.299  -0.082   1.708  0.00  0.00    -0.056 C 
ATOM     27  C   UNL     1       1.094  -0.943   1.286  0.00  0.00    +0.022 C 
ATOM     28  C   UNL     1       1.598  -2.114   0.407  0.00  0.00    +0.012 C 
ATOM     29  C   UNL     1      -0.878  -1.005  -0.365  0.00  0.00    +0.012 C 
ENDBRANCH  20  26
ENDBRANCH  18  20
ENDBRANCH   1  18
BRANCH   4  30
ATOM     30  C   UNL     1       0.717   5.125   6.226  0.00  0.00    -0.042 C 
BRANCH  30  31
ATOM     31  C   UNL     1      -0.753   5.082   6.554  0.00  0.00    -0.064 A 
ATOM     32  C   UNL     1      -1.680   4.886   5.548  0.00  0.00    +0.003 A 
ATOM     33  C   UNL     1      -3.029   4.847   5.848  0.00  0.00    +0.020 A 
ATOM     34  C   UNL     1      -3.450   5.003   7.157  0.00  0.00    +0.041 A 
ATOM     35  C   UNL     1      -2.522   5.199   8.164  0.00  0.00    +0.020 A 
ATOM     36  C   UNL     1      -1.173   5.233   7.863  0.00  0.00    +0.003 A 
ATOM     37 CL   UNL     1      -5.144   4.955   7.535  0.00  0.00    -0.084 Cl
ENDBRANCH  30  31
ENDBRANCH   4  30
TORSDOF 8
