REMARK  Name = ZINC35641172
REMARK  15 active torsions:
REMARK  status: ('A' for Active; 'I' for Inactive)
REMARK    1  A    between atoms: C_1  and  C_2
REMARK    2  A    between atoms: C_2  and  O_3
REMARK    3  A    between atoms: O_3  and  C_4
REMARK    4  A    between atoms: C_4  and  C_6
REMARK    5  A    between atoms: C_7  and  C_27
REMARK    6  A    between atoms: N_8  and  C_24
REMARK    7  A    between atoms: C_12  and  C_14
REMARK    8  A    between atoms: C_17  and  C_20
REMARK    9  A    between atoms: C_20  and  C_21
REMARK   10  A    between atoms: C_20  and  C_22
REMARK   11  A    between atoms: C_20  and  C_23
REMARK   12  A    between atoms: C_24  and  C_25
REMARK   13  A    between atoms: C_27  and  N_28
REMARK   14  A    between atoms: N_31  and  C_34
REMARK   15  A    between atoms: C_34  and  C_35
REMARK                            x       y       z     vdW  Elec       q    Type
REMARK                         _______ _______ _______ _____ _____    ______ ____
ROOT
ATOM      1  C   UNL     1      -2.593  -2.605   0.174  0.00  0.00    +0.080 C 
ATOM      2  C   UNL     1      -2.866  -3.897  -0.109  0.00  0.00    +0.041 C 
ATOM      3  N   UNL     1      -4.154  -4.341  -0.204  0.00  0.00    -0.254 N 
ATOM      4  C   UNL     1      -5.225  -3.556  -0.030  0.00  0.00    +0.307 C 
ATOM      5  O   UNL     1      -6.334  -4.042  -0.135  0.00  0.00    -0.252 OA
ATOM      6  N   UNL     1      -5.113  -2.244   0.258  0.00  0.00    -0.288 N 
ATOM      7  C   UNL     1      -3.764  -1.667   0.389  0.00  0.00    +0.144 C 
ATOM      8  H   UNL     1      -5.902  -1.693   0.380  0.00  0.00    +0.151 HD
ENDROOT
BRANCH   7   9
ATOM      9  C   UNL     1      -3.638  -1.075   1.769  0.00  0.00    -0.022 A 
ATOM     10  C   UNL     1      -4.034  -1.806   2.873  0.00  0.00    +0.006 A 
ATOM     11  C   UNL     1      -3.919  -1.263   4.139  0.00  0.00    +0.004 A 
ATOM     12  C   UNL     1      -3.407   0.011   4.301  0.00  0.00    -0.042 A 
ATOM     13  C   UNL     1      -3.010   0.742   3.196  0.00  0.00    +0.004 A 
ATOM     14  C   UNL     1      -3.122   0.197   1.931  0.00  0.00    +0.006 A 
BRANCH  12  15
ATOM     15  C   UNL     1      -3.282   0.604   5.681  0.00  0.00    -0.013 C 
ATOM     16  C   UNL     1      -2.363  -0.274   6.531  0.00  0.00    +0.015 C 
ATOM     17  C   UNL     1      -2.692   2.012   5.579  0.00  0.00    +0.015 C 
ATOM     18  C   UNL     1      -4.665   0.676   6.332  0.00  0.00    +0.015 C 
ENDBRANCH  12  15
ENDBRANCH   7   9
BRANCH   1  19
ATOM     19  C   UNL     1      -1.259  -2.144   0.274  0.00  0.00    +0.339 C 
ATOM     20  O   UNL     1      -0.336  -2.934   0.205  0.00  0.00    -0.245 OA
BRANCH  19  21
ATOM     21  O   UNL     1      -1.011  -0.829   0.444  0.00  0.00    -0.462 OA
BRANCH  21  23
ATOM     22  C   UNL     1       0.441   1.082   0.727  0.00  0.00    +0.048 C 
ATOM     23  C   UNL     1       0.359  -0.434   0.536  0.00  0.00    +0.229 C 
ENDBRANCH  21  23
ENDBRANCH  19  21
ENDBRANCH   1  19
BRANCH   3  24
ATOM     24  C   UNL     1      -4.377  -5.755  -0.515  0.00  0.00    +0.141 C 
BRANCH  24  25
ATOM     25  C   UNL     1      -4.531  -6.532   0.767  0.00  0.00    -0.015 C 
ATOM     26  C   UNL     1      -5.590  -7.281   0.956  0.00  0.00    +0.005 C 
ENDBRANCH  24  25
ENDBRANCH   3  24
BRANCH   2  27
ATOM     27  C   UNL     1      -1.731  -4.864  -0.325  0.00  0.00    +0.136 C 
BRANCH  27  28
ATOM     28  N   UNL     1      -1.406  -4.927  -1.756  0.00  0.00    -0.300 NA
ATOM     29  C   UNL     1      -0.735  -3.696  -2.198  0.00  0.00    +0.066 C 
ATOM     30  C   UNL     1      -0.469  -3.777  -3.703  0.00  0.00    -0.063 C 
ATOM     31  N   UNL     1       0.375  -4.945  -3.989  0.00  0.00    +0.384 N 
ATOM     32  C   UNL     1      -0.318  -6.168  -3.564  0.00  0.00    -0.063 C 
ATOM     33  C   UNL     1      -0.584  -6.107  -2.058  0.00  0.00    +0.066 C 
ATOM     34  H   UNL     1       1.247  -4.861  -3.487  0.00  0.00    -0.081 HD
BRANCH  31  35
ATOM     35  C   UNL     1       0.646  -5.012  -5.431  0.00  0.00    -0.043 C 
BRANCH  35  36
ATOM     36  C   UNL     1       1.611  -6.136  -5.709  0.00  0.00    -0.064 A 
ATOM     37  C   UNL     1       2.972  -5.899  -5.694  0.00  0.00    +0.002 A 
ATOM     38  C   UNL     1       3.857  -6.930  -5.949  0.00  0.00    +0.000 A 
ATOM     39  C   UNL     1       3.380  -8.199  -6.219  0.00  0.00    +0.000 A 
ATOM     40  C   UNL     1       2.018  -8.436  -6.234  0.00  0.00    +0.000 A 
ATOM     41  C   UNL     1       1.134  -7.406  -5.974  0.00  0.00    +0.002 A 
ENDBRANCH  35  36
ENDBRANCH  31  35
ENDBRANCH  27  28
ENDBRANCH   2  27
TORSDOF 11
