REMARK  Name = ZINC02300044
REMARK  11 active torsions:
REMARK  status: ('A' for Active; 'I' for Inactive)
REMARK    1  A    between atoms: C_1  and  C_2
REMARK    2  A    between atoms: C_2  and  N_55
REMARK    3  A    between atoms: C_3  and  C_4
REMARK    4  A    between atoms: C_3  and  N_55
REMARK    5  A    between atoms: C_5  and  C_6
REMARK    6  A    between atoms: C_5  and  N_55
REMARK    7  A    between atoms: C_6  and  C_7
REMARK    8  A    between atoms: C_7  and  N_8
REMARK    9  A    between atoms: C_9  and  C_11
REMARK   10  A    between atoms: C_16  and  C_27
REMARK   11  A    between atoms: C_19  and  C_22
REMARK                            x       y       z     vdW  Elec       q    Type
REMARK                         _______ _______ _______ _____ _____    ______ ____
ROOT
ATOM      1  C   UNL     1      -1.302   1.925  -0.009  0.00  0.00    +0.167 A 
ATOM      2  C   UNL     1      -2.582   1.329  -0.009  0.00  0.00    +0.112 A 
ATOM      3  C   UNL     1      -3.500   2.325  -0.017  0.00  0.00    +0.137 A 
ATOM      4  N   UNL     1      -2.827   3.511  -0.030  0.00  0.00    -0.237 N 
ATOM      5  N   UNL     1      -1.459   3.236  -0.025  0.00  0.00    -0.163 NA
ATOM      6  C   UNL     1      -3.477   4.827  -0.045  0.00  0.00    +0.215 C 
ATOM      7  C   UNL     1      -4.949   4.628   0.343  0.00  0.00    +0.063 C 
ATOM      8  C   UNL     1      -5.520   3.454  -0.458  0.00  0.00    +0.111 C 
ATOM      9  N   UNL     1      -4.888   2.200  -0.018  0.00  0.00    -0.321 N 
ATOM     10 CL   UNL     1      -2.919  -0.374   0.004  0.00  0.00    -0.078 Cl
ATOM     11  H   UNL     1      -5.227   1.925   0.892  0.00  0.00    +0.148 HD
ENDROOT
BRANCH   8  12
ATOM     12  C   UNL     1      -7.008   3.371  -0.236  0.00  0.00    +0.010 A 
ATOM     13  C   UNL     1      -8.015   3.811  -1.029  0.00  0.00    +0.013 A 
ATOM     14  C   UNL     1      -9.322   3.624  -0.618  0.00  0.00    +0.008 A 
ATOM     15  C   UNL     1      -9.557   3.007   0.566  0.00  0.00    +0.045 A 
ATOM     16  S   UNL     1      -7.902   2.662   1.137  0.00  0.00    -0.100 S 
ENDBRANCH   8  12
BRANCH   1  18
ATOM     17  N   UNL     1       1.145   1.898  -0.013  0.00  0.00    -0.310 N 
ATOM     18  C   UNL     1      -0.011   1.206  -0.000  0.00  0.00    +0.266 C 
ATOM     19  O   UNL     1       0.008  -0.009   0.014  0.00  0.00    -0.268 OA
ATOM     20  H   UNL     1       1.130   2.868  -0.025  0.00  0.00    +0.149 HD
BRANCH  17  21
ATOM     21  C   UNL     1       2.425   1.185  -0.010  0.00  0.00    +0.103 C 
BRANCH  21  22
ATOM     22  C   UNL     1       3.573   2.197  -0.027  0.00  0.00    +0.000 C 
BRANCH  22  23
ATOM     23  C   UNL     1       4.909   1.453  -0.024  0.00  0.00    -0.077 C 
BRANCH  23  24
ATOM     24  N   UNL     1       6.000   2.438  -0.184  0.00  0.00    +0.379 N 
ATOM     25  H   UNL     1       5.726   3.127  -0.894  0.00  0.00    -0.082 HD
BRANCH  24  27
ATOM     26  C   UNL     1       7.210   4.295   0.851  0.00  0.00    -0.017 C 
ATOM     27  C   UNL     1       6.241   3.137   1.096  0.00  0.00    -0.082 C 
ENDBRANCH  24  27
BRANCH  24  28
ATOM     28  C   UNL     1       7.234   1.756  -0.628  0.00  0.00    -0.082 C 
ATOM     29  C   UNL     1       7.114   1.447  -2.121  0.00  0.00    -0.017 C 
ENDBRANCH  24  28
ENDBRANCH  23  24
ENDBRANCH  22  23
ENDBRANCH  21  22
ENDBRANCH  17  21
ENDBRANCH   1  18
BRANCH   6  30
ATOM     30  C   UNL     1      -2.795   5.753   0.965  0.00  0.00    +0.412 C 
ATOM     31  F   UNL     1      -1.446   5.899   0.627  0.00  0.00    -0.168 F 
ATOM     32  F   UNL     1      -3.419   7.004   0.945  0.00  0.00    -0.168 F 
ATOM     33  F   UNL     1      -2.897   5.201   2.247  0.00  0.00    -0.168 F 
ENDBRANCH   6  30
TORSDOF 9
