REMARK  Name = ZINC09646335
REMARK  10 active torsions:
REMARK  status: ('A' for Active; 'I' for Inactive)
REMARK    1  A    between atoms: C_1  and  C_2
REMARK    2  A    between atoms: C_7  and  N_8
REMARK    3  A    between atoms: C_9  and  C_23
REMARK    4  A    between atoms: C_12  and  S_13
REMARK    5  A    between atoms: S_13  and  C_14
REMARK    6  A    between atoms: C_14  and  C_15
REMARK    7  A    between atoms: C_26  and  C_29
REMARK    8  A    between atoms: C_29  and  C_30
REMARK    9  A    between atoms: C_29  and  C_31
REMARK   10  A    between atoms: C_29  and  C_32
REMARK                            x       y       z     vdW  Elec       q    Type
REMARK                         _______ _______ _______ _____ _____    ______ ____
ROOT
ATOM      1  N   UNL     1       1.285   1.733  -0.001  0.00  0.00    -0.270 N 
ATOM      2  C   UNL     1       2.047   0.585  -0.014  0.00  0.00    +0.169 A 
ATOM      3  N   UNL     1       1.214  -0.430  -0.012  0.00  0.00    -0.128 NA
ATOM      4  N   UNL     1       0.002  -0.004   0.002  0.00  0.00    -0.122 NA
ATOM      5  C   UNL     1      -0.016   1.310   0.009  0.00  0.00    +0.197 A 
ENDROOT
BRANCH   1  12
ATOM      6  C   UNL     1       1.716   3.013  -2.506  0.00  0.00    +0.046 C 
ATOM      7  C   UNL     1       1.970   3.717  -1.199  0.00  0.00    -0.026 A 
ATOM      8  C   UNL     1       2.419   5.024  -1.193  0.00  0.00    +0.005 A 
ATOM      9  C   UNL     1       2.658   5.669   0.006  0.00  0.00    +0.000 A 
ATOM     10  C   UNL     1       2.442   5.011   1.203  0.00  0.00    +0.002 A 
ATOM     11  C   UNL     1       1.988   3.707   1.204  0.00  0.00    +0.026 A 
ATOM     12  C   UNL     1       1.747   3.056   0.001  0.00  0.00    +0.053 A 
ENDBRANCH   1  12
BRANCH   2  13
ATOM     13  C   UNL     1       3.523   0.510  -0.030  0.00  0.00    +0.020 A 
ATOM     14  C   UNL     1       4.286   1.639   0.276  0.00  0.00    +0.012 A 
ATOM     15  C   UNL     1       5.663   1.560   0.266  0.00  0.00    +0.005 A 
ATOM     16  C   UNL     1       6.289   0.369  -0.058  0.00  0.00    -0.042 A 
ATOM     17  C   UNL     1       5.539  -0.752  -0.367  0.00  0.00    +0.005 A 
ATOM     18  C   UNL     1       4.161  -0.689  -0.355  0.00  0.00    +0.012 A 
BRANCH  16  19
ATOM     19  C   UNL     1       7.794   0.293  -0.073  0.00  0.00    -0.013 C 
ATOM     20  C   UNL     1       8.270  -0.098  -1.474  0.00  0.00    +0.015 C 
ATOM     21  C   UNL     1       8.378   1.657   0.302  0.00  0.00    +0.015 C 
ATOM     22  C   UNL     1       8.262  -0.757   0.936  0.00  0.00    +0.015 C 
ENDBRANCH  16  19
ENDBRANCH   2  13
BRANCH   5  23
ATOM     23  S   UNL     1      -1.448   2.336   0.022  0.00  0.00    -0.078 S 
BRANCH  23  24
ATOM     24  C   UNL     1      -2.742   1.071   0.022  0.00  0.00    +0.153 C 
BRANCH  24  25
ATOM     25  C   UNL     1      -4.094   1.735   0.033  0.00  0.00    +0.146 A 
ATOM     26  N   UNL     1      -4.682   2.014   1.183  0.00  0.00    -0.199 NA
ATOM     27  C   UNL     1      -5.875   2.605   1.196  0.00  0.00    +0.217 A 
ATOM     28  N   UNL     1      -6.479   2.904   0.051  0.00  0.00    -0.181 NA
ATOM     29  C   UNL     1      -5.887   2.617  -1.103  0.00  0.00    +0.217 A 
ATOM     30  N   UNL     1      -4.692   2.031  -1.108  0.00  0.00    -0.199 NA
ATOM     31  N   UNL     1      -6.510   2.925  -2.295  0.00  0.00    -0.327 N 
ATOM     32  N   UNL     1      -6.486   2.901   2.397  0.00  0.00    -0.327 N 
ATOM     33  H   UNL     1      -6.078   2.715  -3.137  0.00  0.00    +0.145 HD
ATOM     34  H   UNL     1      -7.381   3.353  -2.290  0.00  0.00    +0.145 HD
ATOM     35  H   UNL     1      -7.357   3.328   2.406  0.00  0.00    +0.145 HD
ATOM     36  H   UNL     1      -6.045   2.682   3.233  0.00  0.00    +0.145 HD
ENDBRANCH  24  25
ENDBRANCH  23  24
ENDBRANCH   5  23
TORSDOF 6
