REMARK  Name = ZINC04556424
REMARK  8 active torsions:
REMARK  status: ('A' for Active; 'I' for Inactive)
REMARK    1  A    between atoms: C_1  and  C_2
REMARK    2  A    between atoms: C_2  and  N_49
REMARK    3  A    between atoms: C_10  and  O_25
REMARK    4  A    between atoms: C_12  and  C_15
REMARK    5  A    between atoms: C_18  and  O_22
REMARK    6  A    between atoms: C_20  and  O_21
REMARK    7  A    between atoms: O_22  and  C_23
REMARK    8  A    between atoms: C_23  and  C_24
REMARK                            x       y       z     vdW  Elec       q    Type
REMARK                         _______ _______ _______ _____ _____    ______ ____
ROOT
ATOM      1  C   UNL     1      -1.959   7.326  -2.910  0.00  0.00    -0.074 C 
ATOM      2  C   UNL     1      -2.015   5.797  -2.973  0.00  0.00    +0.018 C 
ATOM      3  C   UNL     1      -0.639   5.287  -3.388  0.00  0.00    -0.027 A 
ATOM      4  C   UNL     1       0.248   6.132  -3.967  0.00  0.00    -0.021 A 
ATOM      5  S   UNL     1       1.684   5.140  -4.278  0.00  0.00    -0.080 S 
ATOM      6  C   UNL     1       1.116   3.649  -3.659  0.00  0.00    +0.080 A 
ATOM      7  C   UNL     1      -0.182   3.923  -3.207  0.00  0.00    +0.067 A 
ATOM      8  C   UNL     1      -0.939   2.802  -2.593  0.00  0.00    +0.220 C 
ATOM      9  N   UNL     1      -0.290   1.702  -2.333  0.00  0.00    -0.223 NA
ATOM     10  C   UNL     1       1.146   1.520  -2.507  0.00  0.00    +0.227 C 
ATOM     11  N   UNL     1       1.681   2.401  -3.561  0.00  0.00    -0.313 N 
ATOM     12  C   UNL     1       0.032   7.582  -4.266  0.00  0.00    -0.035 C 
ATOM     13  H   UNL     1       2.394   2.115  -4.154  0.00  0.00    +0.149 HD
ATOM     14  N   UNL     1      -1.425   7.850  -4.184  0.00  0.00    +0.383 N 
ATOM     15  H   UNL     1      -1.896   7.378  -4.964  0.00  0.00    -0.081 HD
ENDROOT
BRANCH  10  16
ATOM     16  C   UNL     1       1.842   1.830  -1.207  0.00  0.00    +0.036 A 
ATOM     17  C   UNL     1       3.096   2.409  -1.217  0.00  0.00    +0.014 A 
ATOM     18  C   UNL     1       3.737   2.694  -0.026  0.00  0.00    +0.046 A 
ATOM     19  C   UNL     1       3.122   2.398   1.182  0.00  0.00    +0.124 A 
ATOM     20  C   UNL     1       1.862   1.822   1.195  0.00  0.00    +0.091 A 
ATOM     21  C   UNL     1       1.223   1.532  -0.001  0.00  0.00    +0.127 A 
BRANCH  21  22
ATOM     22  O   UNL     1      -0.011   0.963   0.007  0.00  0.00    -0.506 OA
ATOM     23  H   UNL     1       0.002  -0.004   0.002  0.00  0.00    +0.292 HD
ENDBRANCH  21  22
BRANCH  19  24
ATOM     24  O   UNL     1       3.753   2.679   2.353  0.00  0.00    -0.492 OA
BRANCH  24  25
ATOM     25  C   UNL     1       5.048   3.277   2.265  0.00  0.00    +0.225 C 
ATOM     26  C   UNL     1       5.596   3.517   3.673  0.00  0.00    +0.048 C 
ENDBRANCH  24  25
ENDBRANCH  19  24
ENDBRANCH  10  16
BRANCH  14  28
ATOM     27  C   UNL     1      -1.078  10.030  -3.072  0.00  0.00    -0.017 C 
ATOM     28  C   UNL     1      -1.677   9.304  -4.278  0.00  0.00    -0.082 C 
ENDBRANCH  14  28
BRANCH   8  29
ATOM     29  O   UNL     1      -2.257   2.919  -2.313  0.00  0.00    -0.492 OA
ATOM     30  H   UNL     1      -2.647   2.128  -1.915  0.00  0.00    +0.294 HD
ENDBRANCH   8  29
TORSDOF 6
