REMARK  Name = ZINC12883470
REMARK  5 active torsions:
REMARK  status: ('A' for Active; 'I' for Inactive)
REMARK    1  A    between atoms: C_1  and  C_2
REMARK    2  A    between atoms: C_17  and  C_19
REMARK    3  A    between atoms: C_19  and  C_20
REMARK    4  A    between atoms: N_25  and  C_28
REMARK    5  A    between atoms: C_28  and  C_29
REMARK                            x       y       z     vdW  Elec       q    Type
REMARK                         _______ _______ _______ _____ _____    ______ ____
ROOT
ATOM      1  C   UNL     1      -0.052   6.370  -1.251  0.00  0.00    +0.044 C 
ATOM      2  C   UNL     1      -0.645   6.342   0.134  0.00  0.00    -0.049 A 
ATOM      3  C   UNL     1      -1.137   5.158   0.654  0.00  0.00    +0.008 A 
ATOM      4  C   UNL     1      -1.680   5.133   1.920  0.00  0.00    -0.026 A 
ATOM      5  C   UNL     1      -1.742   6.292   2.687  0.00  0.00    +0.054 A 
ATOM      6  C   UNL     1      -1.244   7.481   2.157  0.00  0.00    +0.063 A 
ATOM      7  C   UNL     1      -0.700   7.500   0.888  0.00  0.00    +0.025 A 
ATOM      8 CL   UNL     1      -1.308   8.941   3.094  0.00  0.00    -0.082 Cl
ATOM      9  N   UNL     1      -2.332   6.021   3.925  0.00  0.00    -0.285 N 
ATOM     10  C   UNL     1      -2.680   4.726   4.048  0.00  0.00    +0.211 C 
ATOM     11  O   UNL     1      -3.209   4.207   5.008  0.00  0.00    -0.277 OA
ATOM     12  C   UNL     1      -2.286   4.048   2.764  0.00  0.00    +0.050 C 
ATOM     13  C   UNL     1      -1.290   2.909   3.015  0.00  0.00    +0.088 C 
ATOM     14  C   UNL     1      -2.162   1.623   3.023  0.00  0.00    +0.073 C 
ATOM     15  C   UNL     1      -3.607   2.103   2.777  0.00  0.00    -0.049 C 
ATOM     16  C   UNL     1      -1.674   0.864   1.810  0.00  0.00    +0.224 C 
ATOM     17  O   UNL     1      -2.100  -0.208   1.436  0.00  0.00    -0.275 OA
ATOM     18  N   UNL     1      -0.698   1.558   1.213  0.00  0.00    -0.237 N 
ATOM     19  C   UNL     1      -0.396   2.717   1.810  0.00  0.00    +0.225 C 
ATOM     20  O   UNL     1       0.459   3.493   1.441  0.00  0.00    -0.275 OA
ATOM     21  H   UNL     1      -2.474   6.688   4.614  0.00  0.00    +0.155 HD
ATOM     22  N   UNL     1      -3.430   3.417   2.127  0.00  0.00    +0.394 N 
ATOM     23  H   UNL     1      -3.253   3.294   1.123  0.00  0.00    -0.083 HD
ATOM     24  H   UNL     1      -4.270   3.993   2.258  0.00  0.00    -0.083 HD
ENDROOT
BRANCH  15  25
ATOM     25  C   UNL     1      -4.356   1.107   1.890  0.00  0.00    +0.080 C 
BRANCH  25  26
ATOM     26  C   UNL     1      -5.797   1.530   1.763  0.00  0.00    +0.209 C 
ATOM     27  O   UNL     1      -6.186   2.531   2.327  0.00  0.00    -0.276 OA
ATOM     28  N   UNL     1      -6.652   0.797   1.024  0.00  0.00    -0.329 N 
ATOM     29  H   UNL     1      -6.341  -0.003   0.573  0.00  0.00    +0.145 HD
ATOM     30  H   UNL     1      -7.580   1.070   0.942  0.00  0.00    +0.145 HD
ENDBRANCH  25  26
ENDBRANCH  15  25
BRANCH  18  31
ATOM     31  C   UNL     1      -0.013   1.086   0.008  0.00  0.00    +0.151 C 
BRANCH  31  32
ATOM     32  C   UNL     1      -0.742   1.585  -1.213  0.00  0.00    -0.026 A 
ATOM     33  C   UNL     1      -1.750   0.823  -1.774  0.00  0.00    +0.009 A 
ATOM     34  C   UNL     1      -2.426   1.280  -2.890  0.00  0.00    +0.050 A 
ATOM     35  C   UNL     1      -2.085   2.498  -3.457  0.00  0.00    +0.166 A 
ATOM     36  C   UNL     1      -1.066   3.262  -2.895  0.00  0.00    +0.167 A 
ATOM     37  C   UNL     1      -0.397   2.801  -1.773  0.00  0.00    +0.054 A 
ATOM     38  O   UNL     1      -0.923   4.405  -3.628  0.00  0.00    -0.453 OA
ATOM     39  C   UNL     1      -1.585   4.144  -4.880  0.00  0.00    +0.466 C 
ATOM     40  O   UNL     1      -2.581   3.161  -4.542  0.00  0.00    -0.453 OA
ENDBRANCH  31  32
ENDBRANCH  18  31
TORSDOF 4
