REMARK  Name = ZINC21535694
REMARK  10 active torsions:
REMARK  status: ('A' for Active; 'I' for Inactive)
REMARK    1  A    between atoms: C_1  and  C_2
REMARK    2  A    between atoms: C_2  and  C_3
REMARK    3  A    between atoms: C_2  and  C_4
REMARK    4  A    between atoms: C_4  and  C_6
REMARK    5  A    between atoms: C_4  and  N_17
REMARK    6  A    between atoms: N_8  and  C_9
REMARK    7  A    between atoms: C_12  and  O_15
REMARK    8  A    between atoms: O_15  and  C_16
REMARK    9  A    between atoms: N_17  and  S_18
REMARK   10  A    between atoms: S_18  and  C_21
REMARK                            x       y       z     vdW  Elec       q    Type
REMARK                         _______ _______ _______ _____ _____    ______ ____
ROOT
ATOM      1  N   UNL     1       5.380  -0.547  -1.014  0.00  0.00    -0.178 NA
ATOM      2  H   UNL     1       5.067  -1.552  -0.694  0.00  0.00    +0.149 HD
ENDROOT
BRANCH   1   3
ATOM      3  S   UNL     1       6.157   0.440   0.066  0.00  0.00    +0.059 S 
ATOM      4  O   UNL     1       7.212   1.071  -0.648  0.00  0.00    -0.153 OA
ATOM      5  O   UNL     1       6.385  -0.336   1.234  0.00  0.00    -0.153 OA
BRANCH   3   6
ATOM      6  C   UNL     1       5.024   1.712   0.518  0.00  0.00    +0.106 A 
ATOM      7  C   UNL     1       5.044   2.929  -0.138  0.00  0.00    +0.030 A 
ATOM      8  C   UNL     1       4.158   3.912   0.230  0.00  0.00    +0.025 A 
ATOM      9  C   UNL     1       3.227   3.710   1.264  0.00  0.00    +0.037 A 
ATOM     10  C   UNL     1       3.205   2.491   1.908  0.00  0.00    -0.024 A 
ATOM     11  C   UNL     1       4.113   1.502   1.527  0.00  0.00    +0.034 A 
ATOM     12  C   UNL     1       2.264   2.114   3.005  0.00  0.00    +0.037 C 
ATOM     13  C   UNL     1       0.878   2.670   2.893  0.00  0.00    +0.014 C 
ATOM     14  C   UNL     1       0.778   4.121   3.297  0.00  0.00    +0.096 C 
ATOM     15  C   UNL     1       1.375   5.023   2.277  0.00  0.00    +0.217 C 
ATOM     16  O   UNL     1       0.825   6.092   2.114  0.00  0.00    -0.275 OA
ATOM     17  N   UNL     1       2.423   4.792   1.538  0.00  0.00    -0.285 N 
ATOM     18  H   UNL     1       2.628   5.763   1.065  0.00  0.00    +0.155 HD
ENDBRANCH   3   6
ENDBRANCH   1   3
BRANCH   1  19
ATOM     19  C   UNL     1       4.922  -0.011  -2.298  0.00  0.00    +0.165 C 
BRANCH  19  20
ATOM     20  C   UNL     1       5.952  -0.302  -3.359  0.00  0.00    +0.236 C 
ATOM     21  O   UNL     1       6.737  -1.214  -3.209  0.00  0.00    -0.274 OA
ATOM     22  N   UNL     1       6.001   0.452  -4.475  0.00  0.00    -0.284 N 
ATOM     23  H   UNL     1       5.363   1.344  -4.565  0.00  0.00    +0.155 HD
BRANCH  22  24
ATOM     24  C   UNL     1       6.864   0.100  -5.521  0.00  0.00    +0.034 A 
ATOM     25  C   UNL     1       7.167  -1.236  -5.752  0.00  0.00    +0.027 A 
ATOM     26  C   UNL     1       8.013  -1.583  -6.786  0.00  0.00    +0.047 A 
ATOM     27  C   UNL     1       8.569  -0.597  -7.588  0.00  0.00    +0.120 A 
ATOM     28  C   UNL     1       8.271   0.738  -7.356  0.00  0.00    +0.047 A 
ATOM     29  C   UNL     1       7.420   1.086  -6.325  0.00  0.00    +0.027 A 
BRANCH  27  30
ATOM     30  O   UNL     1       9.407  -0.939  -8.603  0.00  0.00    -0.495 OA
ATOM     31  C   UNL     1       9.670  -2.331  -8.786  0.00  0.00    +0.277 C 
ENDBRANCH  27  30
ENDBRANCH  22  24
ENDBRANCH  19  20
BRANCH  19  33
ATOM     32  C   UNL     1       3.757  -2.190  -2.668  0.00  0.00    +0.009 C 
ATOM     33  C   UNL     1       3.595  -0.669  -2.681  0.00  0.00    +0.010 C 
ATOM     34  C   UNL     1       2.516  -0.262  -1.676  0.00  0.00    +0.009 C 
ENDBRANCH  19  33
ENDBRANCH   1  19
TORSDOF 7
