REMARK  Name = ZINC09341633
REMARK  10 active torsions:
REMARK  status: ('A' for Active; 'I' for Inactive)
REMARK    1  A    between atoms: C_1  and  C_2
REMARK    2  A    between atoms: C_8  and  C_10
REMARK    3  A    between atoms: C_11  and  N_33
REMARK    4  A    between atoms: C_16  and  C_32
REMARK    5  A    between atoms: C_17  and  C_28
REMARK    6  A    between atoms: C_18  and  C_20
REMARK    7  A    between atoms: C_23  and  O_26
REMARK    8  A    between atoms: O_26  and  C_27
REMARK    9  A    between atoms: C_28  and  O_30
REMARK   10  A    between atoms: O_30  and  C_31
REMARK                            x       y       z     vdW  Elec       q    Type
REMARK                         _______ _______ _______ _____ _____    ______ ____
ROOT
ATOM      1  C   UNL     1      -0.788  -6.505  -0.036  0.00  0.00    +0.097 A 
ATOM      2  C   UNL     1      -0.702  -5.190   0.424  0.00  0.00    +0.050 A 
ATOM      3  C   UNL     1      -0.021  -4.255  -0.334  0.00  0.00    +0.014 A 
ATOM      4  C   UNL     1       0.533  -4.699  -1.516  0.00  0.00    +0.076 A 
ATOM      5  S   UNL     1       0.113  -6.416  -1.576  0.00  0.00    -0.067 S 
ATOM      6  N   UNL     1       1.236  -3.921  -2.402  0.00  0.00    -0.312 N 
ATOM      7  C   UNL     1       1.166  -2.559  -2.233  0.00  0.00    +0.016 C 
ATOM      8  C   UNL     1       0.669  -2.013  -1.115  0.00  0.00    +0.065 C 
ATOM      9  C   UNL     1       0.149  -2.791   0.057  0.00  0.00    +0.091 C 
ATOM     10  C   UNL     1       1.667  -1.657  -3.331  0.00  0.00    +0.061 C 
ATOM     11  H   UNL     1       1.757  -4.317  -3.119  0.00  0.00    +0.152 HD
ENDROOT
BRANCH   1  19
ATOM     12  C   UNL     1      -3.940 -11.799   3.022  0.00  0.00    +0.089 C 
ATOM     13  C   UNL     1      -3.138 -11.213   1.889  0.00  0.00    +0.136 A 
ATOM     14  C   UNL     1      -2.723  -9.931   1.770  0.00  0.00    +0.091 A 
ATOM     15  C   UNL     1      -2.020  -9.912   0.536  0.00  0.00    +0.168 A 
ATOM     16  N   UNL     1      -2.075 -11.130   0.066  0.00  0.00    -0.063 NA
ATOM     17  O   UNL     1      -2.691 -11.863   0.804  0.00  0.00    -0.358 OA
ATOM     18  N   UNL     1      -1.393  -8.815  -0.052  0.00  0.00    -0.263 N 
ATOM     19  C   UNL     1      -1.423  -7.614   0.559  0.00  0.00    +0.258 C 
ATOM     20  O   UNL     1      -1.998  -7.487   1.626  0.00  0.00    -0.269 OA
ATOM     21  H   UNL     1      -0.935  -8.916  -0.901  0.00  0.00    +0.157 HD
ENDBRANCH   1  19
BRANCH   9  22
ATOM     22  C   UNL     1       1.126  -2.689   1.200  0.00  0.00    -0.035 A 
ATOM     23  C   UNL     1       2.421  -3.149   1.044  0.00  0.00    +0.008 A 
ATOM     24  C   UNL     1       3.320  -3.050   2.088  0.00  0.00    +0.046 A 
ATOM     25  C   UNL     1       2.920  -2.500   3.297  0.00  0.00    +0.120 A 
ATOM     26  C   UNL     1       1.619  -2.044   3.453  0.00  0.00    +0.046 A 
ATOM     27  C   UNL     1       0.725  -2.139   2.403  0.00  0.00    +0.008 A 
BRANCH  25  28
ATOM     28  O   UNL     1       3.801  -2.407   4.328  0.00  0.00    -0.495 OA
ATOM     29  C   UNL     1       5.124  -2.896   4.096  0.00  0.00    +0.277 C 
ENDBRANCH  25  28
ENDBRANCH   9  22
BRANCH   2  30
ATOM     30  N   UNL     1      -1.293  -4.825   1.631  0.00  0.00    -0.357 N 
ATOM     31  H   UNL     1      -1.229  -3.910   1.945  0.00  0.00    +0.142 HD
ATOM     32  H   UNL     1      -1.769  -5.487   2.157  0.00  0.00    +0.142 HD
ENDBRANCH   2  30
BRANCH   8  33
ATOM     33  C   UNL     1       0.625  -0.603  -1.038  0.00  0.00    +0.337 C 
ATOM     34  O   UNL     1       1.132   0.071  -1.916  0.00  0.00    -0.245 OA
BRANCH  33  35
ATOM     35  O   UNL     1       0.020  -0.003   0.009  0.00  0.00    -0.465 OA
ATOM     36  C   UNL     1       0.013   1.426   0.023  0.00  0.00    +0.280 C 
ENDBRANCH  33  35
ENDBRANCH   8  33
TORSDOF 6
