REMARK  Name = ZINC36341943
REMARK  17 active torsions:
REMARK  status: ('A' for Active; 'I' for Inactive)
REMARK    1  A    between atoms: C_1  and  C_2
REMARK    2  A    between atoms: C_2  and  C_3
REMARK    3  A    between atoms: C_3  and  C_4
REMARK    4  A    between atoms: C_4  and  C_5
REMARK    5  A    between atoms: C_5  and  C_7
REMARK    6  A    between atoms: C_5  and  O_34
REMARK    7  A    between atoms: C_7  and  N_8
REMARK    8  A    between atoms: N_8  and  C_9
REMARK    9  A    between atoms: N_8  and  C_30
REMARK   10  A    between atoms: C_9  and  C_10
REMARK   11  A    between atoms: C_11  and  C_29
REMARK   12  A    between atoms: N_13  and  C_23
REMARK   13  A    between atoms: C_14  and  O_15
REMARK   14  A    between atoms: O_15  and  C_16
REMARK   15  A    between atoms: C_30  and  C_31
REMARK   16  A    between atoms: C_31  and  C_32
REMARK   17  A    between atoms: C_31  and  C_33
REMARK                            x       y       z     vdW  Elec       q    Type
REMARK                         _______ _______ _______ _____ _____    ______ ____
ROOT
ATOM      1  C   UNL     1       2.842  -6.542   5.626  0.00  0.00    +0.021 A 
ATOM      2  C   UNL     1       4.158  -6.443   6.090  0.00  0.00    +0.065 A 
ATOM      3  N   UNL     1       4.130  -6.323   7.393  0.00  0.00    -0.168 NA
ATOM      4  N   UNL     1       2.793  -6.342   7.810  0.00  0.00    -0.200 N 
ATOM      5  C   UNL     1       2.014  -6.472   6.702  0.00  0.00    +0.225 A 
ATOM      6  C   UNL     1       5.397  -6.470   5.234  0.00  0.00    +0.068 C 
ENDROOT
BRANCH   4   7
ATOM      7  C   UNL     1       2.339  -6.239   9.132  0.00  0.00    +0.069 A 
ATOM      8  C   UNL     1       1.187  -5.518   9.418  0.00  0.00    +0.028 A 
ATOM      9  C   UNL     1       0.742  -5.419  10.721  0.00  0.00    +0.002 A 
ATOM     10  C   UNL     1       1.442  -6.036  11.741  0.00  0.00    +0.000 A 
ATOM     11  C   UNL     1       2.589  -6.755  11.460  0.00  0.00    +0.002 A 
ATOM     12  C   UNL     1       3.037  -6.862  10.158  0.00  0.00    +0.028 A 
ENDBRANCH   4   7
BRANCH   1  13
ATOM     13  C   UNL     1       2.417  -6.693   4.188  0.00  0.00    -0.036 C 
BRANCH  13  14
ATOM     14  N   UNL     1       2.228  -5.364   3.591  0.00  0.00    +0.384 N 
ATOM     15  H   UNL     1       1.533  -4.855   4.118  0.00  0.00    -0.081 HD
BRANCH  14  16
ATOM     16  C   UNL     1       1.777  -5.512   2.201  0.00  0.00    -0.047 C 
BRANCH  16  17
ATOM     17  C   UNL     1       0.368  -6.108   2.183  0.00  0.00    +0.098 C 
BRANCH  17  18
ATOM     18  O   UNL     1       0.416  -7.459   2.644  0.00  0.00    -0.394 OA
ATOM     19  H   UNL     1       0.978  -8.037   2.109  0.00  0.00    +0.210 HD
ENDBRANCH  17  18
BRANCH  17  20
ATOM     20  C   UNL     1      -0.181  -6.075   0.754  0.00  0.00    +0.029 C 
BRANCH  20  21
ATOM     21  C   UNL     1      -1.634  -6.555   0.755  0.00  0.00    +0.002 C 
BRANCH  21  23
ATOM     22  C   UNL     1      -3.635  -7.003  -0.672  0.00  0.00    +0.004 C 
ATOM     23  C   UNL     1      -2.182  -6.523  -0.673  0.00  0.00    -0.003 C 
ENDBRANCH  21  23
ENDBRANCH  20  21
ENDBRANCH  17  20
ENDBRANCH  16  17
ENDBRANCH  14  16
BRANCH  14  24
ATOM     24  C   UNL     1       3.499  -4.629   3.619  0.00  0.00    -0.075 C 
BRANCH  24  25
ATOM     25  C   UNL     1       3.271  -3.198   3.129  0.00  0.00    -0.034 C 
ATOM     26  C   UNL     1       2.362  -2.460   4.114  0.00  0.00    +0.005 C 
ATOM     27  C   UNL     1       4.615  -2.472   3.033  0.00  0.00    +0.005 C 
ENDBRANCH  24  25
ENDBRANCH  14  24
ENDBRANCH  13  14
ENDBRANCH   1  13
BRANCH   5  28
ATOM     28  O   UNL     1       0.658  -6.524   6.677  0.00  0.00    -0.438 OA
BRANCH  28  29
ATOM     29  C   UNL     1       0.063  -7.732   6.858  0.00  0.00    +0.130 A 
ATOM     30  C   UNL     1       0.830  -8.845   7.171  0.00  0.00    +0.048 A 
ATOM     31  C   UNL     1       0.223 -10.072   7.355  0.00  0.00    +0.023 A 
ATOM     32  C   UNL     1      -1.149 -10.192   7.228  0.00  0.00    +0.041 A 
ATOM     33  C   UNL     1      -1.917  -9.084   6.916  0.00  0.00    +0.023 A 
ATOM     34  C   UNL     1      -1.314  -7.854   6.736  0.00  0.00    +0.048 A 
ATOM     35 CL   UNL     1      -1.910 -11.735   7.460  0.00  0.00    -0.084 Cl
ENDBRANCH  28  29
ENDBRANCH   5  28
TORSDOF 13
