REMARK  Name = ZINC05022534
REMARK  11 active torsions:
REMARK  status: ('A' for Active; 'I' for Inactive)
REMARK    1  A    between atoms: C_1  and  C_2
REMARK    2  A    between atoms: C_17  and  C_31
REMARK    3  A    between atoms: C_22  and  C_23
REMARK    4  A    between atoms: C_22  and  O_30
REMARK    5  A    between atoms: C_23  and  N_71
REMARK    6  A    between atoms: C_24  and  C_25
REMARK    7  A    between atoms: C_24  and  N_71
REMARK    8  A    between atoms: C_25  and  O_26
REMARK    9  A    between atoms: C_27  and  C_28
REMARK   10  A    between atoms: C_27  and  N_71
REMARK   11  A    between atoms: C_28  and  O_29
REMARK                            x       y       z     vdW  Elec       q    Type
REMARK                         _______ _______ _______ _____ _____    ______ ____
ROOT
ATOM      1  C   UNL     1       2.908   2.286  -3.026  0.00  0.00    +0.012 C 
ATOM      2  C   UNL     1       1.560   1.578  -2.962  0.00  0.00    -0.026 C 
ATOM      3  C   UNL     1       1.772   0.062  -3.052  0.00  0.00    +0.007 C 
ATOM      4  C   UNL     1       2.363  -0.323  -4.405  0.00  0.00    +0.001 C 
ATOM      5  C   UNL     1       1.457   0.146  -5.543  0.00  0.00    +0.000 C 
ATOM      6  C   UNL     1       1.261   1.662  -5.457  0.00  0.00    +0.004 C 
ATOM      7  C   UNL     1       0.635   2.007  -4.110  0.00  0.00    -0.005 C 
ATOM      8  C   UNL     1       0.272   3.485  -4.037  0.00  0.00    +0.004 C 
ATOM      9  C   UNL     1      -0.415   3.802  -2.695  0.00  0.00    +0.004 C 
ATOM     10  C   UNL     1       0.555   3.416  -1.592  0.00  0.00    -0.004 C 
ATOM     11  C   UNL     1       0.827   1.908  -1.668  0.00  0.00    -0.001 C 
ATOM     12  C   UNL     1       1.512   1.467  -0.386  0.00  0.00    +0.005 C 
ATOM     13  C   UNL     1       0.445   1.446   0.731  0.00  0.00    +0.010 C 
ATOM     14  C   UNL     1      -0.451   2.651   0.611  0.00  0.00    -0.002 C 
ATOM     15  C   UNL     1       0.201   3.796  -0.189  0.00  0.00    +0.001 C 
ATOM     16  C   UNL     1      -0.816   4.935  -0.018  0.00  0.00    +0.007 C 
ATOM     17  C   UNL     1      -1.330   4.756   1.435  0.00  0.00    +0.034 C 
ATOM     18  C   UNL     1      -0.821   3.372   1.918  0.00  0.00    +0.057 C 
ATOM     19  C   UNL     1      -1.783   2.229  -0.033  0.00  0.00    +0.014 C 
ENDROOT
BRANCH  18  20
ATOM     20  O   UNL     1      -1.866   2.666   2.584  0.00  0.00    -0.390 OA
ATOM     21  H   UNL     1      -2.163   3.085   3.404  0.00  0.00    +0.210 HD
ENDBRANCH  18  20
BRANCH  18  22
ATOM     22  C   UNL     1       0.383   3.553   2.835  0.00  0.00    -0.043 C 
BRANCH  22  23
ATOM     23  N   UNL     1       1.512   4.069   2.034  0.00  0.00    +0.384 N 
ATOM     24  H   UNL     1       1.436   3.705   1.077  0.00  0.00    -0.082 HD
BRANCH  23  25
ATOM     25  C   UNL     1       1.467   5.546   1.990  0.00  0.00    -0.050 C 
BRANCH  25  26
ATOM     26  C   UNL     1       1.387   6.122   3.406  0.00  0.00    +0.137 C 
BRANCH  26  27
ATOM     27  O   UNL     1       2.615   5.874   4.091  0.00  0.00    -0.397 OA
ATOM     28  H   UNL     1       2.635   6.212   4.997  0.00  0.00    +0.209 HD
ENDBRANCH  26  27
ENDBRANCH  25  26
ENDBRANCH  23  25
BRANCH  23  29
ATOM     29  C   UNL     1       2.794   3.620   2.618  0.00  0.00    -0.050 C 
BRANCH  29  30
ATOM     30  C   UNL     1       3.900   3.810   1.579  0.00  0.00    +0.137 C 
BRANCH  30  31
ATOM     31  O   UNL     1       4.123   5.206   1.370  0.00  0.00    -0.397 OA
ATOM     32  H   UNL     1       4.759   5.402   0.668  0.00  0.00    +0.209 HD
ENDBRANCH  30  31
ENDBRANCH  29  30
ENDBRANCH  23  29
ENDBRANCH  22  23
ENDBRANCH  18  22
TORSDOF 9
