REMARK  Name = ZINC64097875
REMARK  9 active torsions:
REMARK  status: ('A' for Active; 'I' for Inactive)
REMARK    1  A    between atoms: C_1  and  C_2
REMARK    2  A    between atoms: C_2  and  O_3
REMARK    3  A    between atoms: O_3  and  C_4
REMARK    4  A    between atoms: C_9  and  N_10
REMARK    5  A    between atoms: C_11  and  O_37
REMARK    6  A    between atoms: C_14  and  O_36
REMARK    7  A    between atoms: C_15  and  C_19
REMARK    8  A    between atoms: C_26  and  O_31
REMARK    9  A    between atoms: O_31  and  C_32
REMARK                            x       y       z     vdW  Elec       q    Type
REMARK                         _______ _______ _______ _____ _____    ______ ____
ROOT
ATOM      1  N   UNL     1       1.953  -1.467  -3.424  0.00  0.00    -0.222 N 
ATOM      2  C   UNL     1       3.334  -1.030  -3.280  0.00  0.00    +0.339 C 
ATOM      3  N   UNL     1       3.892  -0.556  -4.536  0.00  0.00    -0.204 NA
ATOM      4  C   UNL     1       3.192  -0.172  -5.532  0.00  0.00    +0.200 C 
ATOM      5  C   UNL     1       1.692  -0.170  -5.522  0.00  0.00    +0.179 C 
ATOM      6  C   UNL     1       1.176  -1.082  -4.445  0.00  0.00    +0.237 C 
ATOM      7  O   UNL     1       0.030  -1.474  -4.498  0.00  0.00    -0.274 OA
ENDROOT
BRANCH   5   8
ATOM      8  C   UNL     1       1.189   1.252  -5.267  0.00  0.00    +0.101 C 
ATOM      9  C   UNL     1       1.598   2.160  -6.429  0.00  0.00    +0.124 C 
ATOM     10  C   UNL     1       1.213   3.577  -6.019  0.00  0.00    -0.036 C 
ATOM     11  C   UNL     1       0.453   4.056  -6.993  0.00  0.00    +0.003 A 
ATOM     12  C   UNL     1      -0.146   5.382  -7.213  0.00  0.00    +0.055 A 
ATOM     13  C   UNL     1      -0.899   5.533  -8.338  0.00  0.00    +0.121 A 
ATOM     14  C   UNL     1      -1.125   4.512  -9.273  0.00  0.00    +0.047 A 
ATOM     15  C   UNL     1      -0.618   3.257  -9.171  0.00  0.00    +0.029 A 
ATOM     16  C   UNL     1       0.220   2.973  -7.998  0.00  0.00    +0.043 A 
ATOM     17  N   UNL     1       0.857   1.871  -7.656  0.00  0.00    -0.376 N 
ATOM     18  C   UNL     1       1.611   4.149  -4.680  0.00  0.00    +0.048 C 
ATOM     19  C   UNL     1       1.252   3.079  -3.632  0.00  0.00    +0.085 C 
ATOM     20  N   UNL     1       1.794   1.778  -4.033  0.00  0.00    -0.310 NA
ATOM     21  H   UNL     1       1.722   1.109  -3.281  0.00  0.00    +0.122 HD
ATOM     22  H   UNL     1       0.840   1.021  -8.123  0.00  0.00    +0.160 HD
BRANCH  13  23
ATOM     23  O   UNL     1      -1.466   6.747  -8.568  0.00  0.00    -0.495 OA
ATOM     24  C   UNL     1      -2.251   6.881  -9.754  0.00  0.00    +0.277 C 
ENDBRANCH  13  23
ENDBRANCH   5   8
BRANCH   1  30
ATOM     25  C   UNL     1       0.777  -1.811  -1.336  0.00  0.00    +0.142 A 
ATOM     26  C   UNL     1       0.244  -2.669  -0.388  0.00  0.00    +0.047 A 
ATOM     27  C   UNL     1       0.352  -4.037  -0.555  0.00  0.00    +0.004 A 
ATOM     28  C   UNL     1       0.992  -4.553  -1.667  0.00  0.00    +0.002 A 
ATOM     29  C   UNL     1       1.526  -3.704  -2.617  0.00  0.00    +0.027 A 
ATOM     30  C   UNL     1       1.417  -2.330  -2.459  0.00  0.00    +0.082 A 
BRANCH  25  31
ATOM     31  O   UNL     1       0.671  -0.465  -1.174  0.00  0.00    -0.490 OA
BRANCH  31  33
ATOM     32  C   UNL     1      -0.019   1.526   0.010  0.00  0.00    +0.048 C 
ATOM     33  C   UNL     1       0.002  -0.004   0.002  0.00  0.00    +0.226 C 
ENDBRANCH  31  33
ENDBRANCH  25  31
ENDBRANCH   1  30
BRANCH   4  34
ATOM     34  O   UNL     1       3.830   0.251  -6.643  0.00  0.00    -0.495 OA
ATOM     35  H   UNL     1       4.795   0.223  -6.578  0.00  0.00    +0.293 HD
ENDBRANCH   4  34
BRANCH   2  36
ATOM     36  O   UNL     1       4.121  -2.127  -2.810  0.00  0.00    -0.356 OA
ATOM     37  H   UNL     1       5.057  -1.915  -2.688  0.00  0.00    +0.214 HD
ENDBRANCH   2  36
TORSDOF 7
