REMARK  Name = ZINC22110142
REMARK  10 active torsions:
REMARK  status: ('A' for Active; 'I' for Inactive)
REMARK    1  A    between atoms: C_1  and  C_2
REMARK    2  A    between atoms: C_2  and  O_3
REMARK    3  A    between atoms: O_3  and  C_4
REMARK    4  A    between atoms: C_6  and  C_16
REMARK    5  A    between atoms: C_9  and  O_10
REMARK    6  A    between atoms: O_10  and  C_11
REMARK    7  A    between atoms: C_11  and  C_12
REMARK    8  A    between atoms: C_16  and  N_17
REMARK    9  A    between atoms: N_17  and  N_18
REMARK   10  A    between atoms: C_19  and  C_24
REMARK                            x       y       z     vdW  Elec       q    Type
REMARK                         _______ _______ _______ _____ _____    ______ ____
ROOT
ATOM      1  C   UNL     1      -0.101   2.635   3.425  0.00  0.00    +0.163 A 
ATOM      2  C   UNL     1       0.590   2.252   4.564  0.00  0.00    +0.054 A 
ATOM      3  C   UNL     1       0.580   0.930   4.967  0.00  0.00    -0.024 A 
ATOM      4  C   UNL     1      -0.118  -0.013   4.236  0.00  0.00    +0.024 A 
ATOM      5  C   UNL     1      -0.815   0.363   3.102  0.00  0.00    +0.063 A 
ATOM      6  C   UNL     1      -0.804   1.687   2.689  0.00  0.00    +0.176 A 
ATOM      7 BR   UNL     1      -1.775  -0.929   2.110  0.00  0.00    -0.046 Br
ENDROOT
BRANCH   1   8
ATOM      8  O   UNL     1      -0.092   3.936   3.027  0.00  0.00    -0.489 OA
BRANCH   8  10
ATOM      9  C   UNL     1       0.544   6.258   3.232  0.00  0.00    +0.048 C 
ATOM     10  C   UNL     1       0.650   4.855   3.831  0.00  0.00    +0.226 C 
ENDBRANCH   8  10
ENDBRANCH   1   8
BRANCH   6  11
ATOM     11  O   UNL     1      -1.483   2.057   1.571  0.00  0.00    -0.478 OA
BRANCH  11  12
ATOM     12  C   UNL     1      -0.770   2.012   0.333  0.00  0.00    +0.324 C 
BRANCH  12  13
ATOM     13  C   UNL     1      -1.677   2.454  -0.786  0.00  0.00    +0.248 C 
ATOM     14  O   UNL     1      -2.821   2.776  -0.547  0.00  0.00    -0.272 OA
ATOM     15  N   UNL     1      -1.216   2.491  -2.052  0.00  0.00    -0.327 N 
ATOM     16  H   UNL     1      -1.878   2.813  -2.869  0.00  0.00    +0.145 HD
ATOM     17  H   UNL     1      -0.178   2.199  -2.268  0.00  0.00    +0.145 HD
ENDBRANCH  12  13
ENDBRANCH  11  12
ENDBRANCH   6  11
BRANCH   3  18
ATOM     18  C   UNL     1       1.331   0.516   6.206  0.00  0.00    +0.156 C 
BRANCH  18  19
ATOM     19  N   UNL     1       0.447   0.624   7.374  0.00  0.00    -0.277 N 
ATOM     20  H   UNL     1      -0.591   0.967   7.248  0.00  0.00    +0.167 HD
BRANCH  19  21
ATOM     21  N   UNL     1       1.098   0.256   8.517  0.00  0.00    -0.222 N 
ATOM     22  C   UNL     1       1.751   1.080   9.404  0.00  0.00    +0.180 A 
ATOM     23  N   UNL     1       2.233   0.316  10.356  0.00  0.00    -0.152 NA
ATOM     24  N   UNL     1       1.930  -0.912  10.129  0.00  0.00    -0.253 N 
ATOM     25  C   UNL     1       1.231  -1.007   9.020  0.00  0.00    +0.193 A 
ATOM     26  S   UNL     1       0.590  -2.487   8.312  0.00  0.00    -0.010 S 
ATOM     27  H   UNL     1       2.258  -1.698  10.825  0.00  0.00    +0.191 HD
BRANCH  22  28
ATOM     28  C   UNL     1       1.885   2.549   9.304  0.00  0.00    +0.021 A 
ATOM     29  C   UNL     1       2.244   3.298  10.425  0.00  0.00    +0.011 A 
ATOM     30  C   UNL     1       2.373   4.668  10.323  0.00  0.00    +0.001 A 
ATOM     31  C   UNL     1       2.135   5.300   9.116  0.00  0.00    +0.000 A 
ATOM     32  C   UNL     1       1.774   4.564   8.002  0.00  0.00    +0.001 A 
ATOM     33  C   UNL     1       1.648   3.193   8.088  0.00  0.00    +0.011 A 
ENDBRANCH  22  28
ENDBRANCH  19  21
ENDBRANCH  18  19
ENDBRANCH   3  18
TORSDOF 9
