REMARK  Name = ZINC40041382
REMARK  12 active torsions:
REMARK  status: ('A' for Active; 'I' for Inactive)
REMARK    1  A    between atoms: C_1  and  C_2
REMARK    2  A    between atoms: C_2  and  C_3
REMARK    3  A    between atoms: C_3  and  C_4
REMARK    4  A    between atoms: C_10  and  C_27
REMARK    5  A    between atoms: C_17  and  C_26
REMARK    6  A    between atoms: C_19  and  C_25
REMARK    7  A    between atoms: C_30  and  O_36
REMARK    8  A    between atoms: C_31  and  O_33
REMARK    9  A    between atoms: O_33  and  C_34
REMARK   10  A    between atoms: C_34  and  C_35
REMARK   11  A    between atoms: O_36  and  C_37
REMARK   12  A    between atoms: C_37  and  C_38
REMARK                            x       y       z     vdW  Elec       q    Type
REMARK                         _______ _______ _______ _____ _____    ______ ____
ROOT
ATOM      1  C   UNL     1       0.739  -2.004  -1.265  0.00  0.00    +0.104 A 
ATOM      2  N   UNL     1      -0.127  -2.861  -1.772  0.00  0.00    -0.145 NA
ATOM      3  N   UNL     1       0.039  -4.109  -1.694  0.00  0.00    -0.125 NA
ATOM      4  C   UNL     1       1.098  -4.637  -1.095  0.00  0.00    +0.191 A 
ATOM      5  S   UNL     1       1.949  -3.142  -0.597  0.00  0.00    -0.035 S 
ATOM      6  N   UNL     1       1.450  -5.968  -0.912  0.00  0.00    -0.230 N 
ATOM      7  C   UNL     1       0.682  -7.136  -1.375  0.00  0.00    +0.152 C 
ATOM      8  C   UNL     1       1.462  -8.334  -0.939  0.00  0.00    +0.072 A 
ATOM      9  C   UNL     1       1.201  -9.768  -1.099  0.00  0.00    +0.199 A 
ATOM     10  O   UNL     1       0.317 -10.209  -1.812  0.00  0.00    -0.287 OA
ATOM     11  C   UNL     1       2.117 -10.630  -0.312  0.00  0.00    +0.065 A 
ATOM     12  C   UNL     1       1.876 -11.999  -0.200  0.00  0.00    +0.018 A 
ATOM     13  C   UNL     1       2.726 -12.780   0.533  0.00  0.00    -0.049 A 
ATOM     14  C   UNL     1       3.825 -12.213   1.165  0.00  0.00    +0.010 A 
ATOM     15  C   UNL     1       4.079 -10.864   1.064  0.00  0.00    -0.007 A 
ATOM     16  C   UNL     1       3.228 -10.047   0.320  0.00  0.00    +0.142 A 
ATOM     17  O   UNL     1       3.502  -8.726   0.226  0.00  0.00    -0.449 OA
ATOM     18  C   UNL     1       2.579  -7.889  -0.289  0.00  0.00    +0.199 A 
ATOM     19  C   UNL     1       2.556  -6.417  -0.285  0.00  0.00    +0.289 C 
ATOM     20  O   UNL     1       3.409  -5.709   0.212  0.00  0.00    -0.266 OA
ATOM     21  C   UNL     1       5.277 -10.269   1.758  0.00  0.00    +0.047 C 
ATOM     22  C   UNL     1       2.470 -14.260   0.657  0.00  0.00    +0.044 C 
ENDROOT
BRANCH   7  23
ATOM     23  C   UNL     1       0.556  -7.115  -2.876  0.00  0.00    -0.018 A 
ATOM     24  C   UNL     1       1.625  -6.705  -3.652  0.00  0.00    +0.009 A 
ATOM     25  C   UNL     1       1.514  -6.684  -5.030  0.00  0.00    +0.050 A 
ATOM     26  C   UNL     1       0.330  -7.074  -5.636  0.00  0.00    +0.162 A 
ATOM     27  C   UNL     1      -0.745  -7.486  -4.855  0.00  0.00    +0.162 A 
ATOM     28  C   UNL     1      -0.626  -7.510  -3.475  0.00  0.00    +0.055 A 
BRANCH  27  29
ATOM     29  O   UNL     1      -1.909  -7.870  -5.445  0.00  0.00    -0.489 OA
BRANCH  29  30
ATOM     30  C   UNL     1      -2.970  -8.281  -4.581  0.00  0.00    +0.226 C 
ATOM     31  C   UNL     1      -4.188  -8.673  -5.420  0.00  0.00    +0.048 C 
ENDBRANCH  29  30
ENDBRANCH  27  29
BRANCH  26  32
ATOM     32  O   UNL     1       0.220  -7.052  -6.991  0.00  0.00    -0.489 OA
BRANCH  32  33
ATOM     33  C   UNL     1       1.363  -6.617  -7.729  0.00  0.00    +0.226 C 
ATOM     34  C   UNL     1       1.052  -6.660  -9.226  0.00  0.00    +0.048 C 
ENDBRANCH  32  33
ENDBRANCH  26  32
ENDBRANCH   7  23
BRANCH   1  35
ATOM     35  C   UNL     1       0.718  -0.497  -1.257  0.00  0.00    +0.064 C 
BRANCH  35  37
ATOM     36  C   UNL     1      -0.019   1.526   0.010  0.00  0.00    +0.004 C 
ATOM     37  C   UNL     1       0.002  -0.004   0.002  0.00  0.00    +0.003 C 
ENDBRANCH  35  37
ENDBRANCH   1  35
TORSDOF 7
