REMARK  Name = ZINC46984151
REMARK  8 active torsions:
REMARK  status: ('A' for Active; 'I' for Inactive)
REMARK    1  A    between atoms: C_3  and  N_25
REMARK    2  A    between atoms: C_6  and  C_7
REMARK    3  A    between atoms: C_7  and  N_8
REMARK    4  A    between atoms: N_11  and  N_12
REMARK    5  A    between atoms: C_13  and  C_15
REMARK    6  A    between atoms: C_15  and  O_16
REMARK    7  A    between atoms: O_16  and  C_17
REMARK    8  A    between atoms: C_20  and  C_23
REMARK                            x       y       z     vdW  Elec       q    Type
REMARK                         _______ _______ _______ _____ _____    ______ ____
ROOT
ATOM      1  N   UNL     1      -1.727  -1.016  -1.368  0.00  0.00    -0.294 N 
ATOM      2  C   UNL     1      -2.869  -1.691  -1.606  0.00  0.00    +0.316 C 
ATOM      3  O   UNL     1      -3.539  -2.099  -0.678  0.00  0.00    -0.251 OA
ATOM      4  N   UNL     1      -3.268  -1.913  -2.874  0.00  0.00    -0.218 N 
ATOM      5  H   UNL     1      -1.192  -0.690  -2.108  0.00  0.00    +0.151 HD
ATOM      6  H   UNL     1      -4.089  -2.399  -3.046  0.00  0.00    +0.174 HD
ENDROOT
BRANCH   4   7
ATOM      7  N   UNL     1      -2.495  -1.443  -3.944  0.00  0.00    -0.230 N 
ATOM      8  C   UNL     1      -2.894  -1.665  -5.212  0.00  0.00    +0.267 C 
ATOM      9  O   UNL     1      -3.922  -2.273  -5.427  0.00  0.00    -0.271 OA
ATOM     10  H   UNL     1      -1.674  -0.957  -3.773  0.00  0.00    +0.173 HD
BRANCH   8  11
ATOM     11  C   UNL     1      -2.064  -1.159  -6.363  0.00  0.00    +0.326 C 
BRANCH  11  12
ATOM     12  O   UNL     1      -2.690  -1.517  -7.597  0.00  0.00    -0.483 OA
BRANCH  12  13
ATOM     13  C   UNL     1      -2.066  -1.134  -8.739  0.00  0.00    +0.121 A 
ATOM     14  C   UNL     1      -0.869  -0.431  -8.672  0.00  0.00    +0.047 A 
ATOM     15  C   UNL     1      -0.232  -0.040  -9.829  0.00  0.00    +0.022 A 
ATOM     16  C   UNL     1      -0.791  -0.351 -11.072  0.00  0.00    +0.052 A 
ATOM     17  C   UNL     1      -1.994  -1.059 -11.135  0.00  0.00    +0.022 A 
ATOM     18  C   UNL     1      -2.622  -1.450  -9.973  0.00  0.00    +0.047 A 
BRANCH  16  19
ATOM     19  C   UNL     1      -0.132   0.053 -12.277  0.00  0.00    +0.099 C 
ATOM     20  N   UNL     1       0.391   0.374 -13.233  0.00  0.00    -0.191 NA
ENDBRANCH  16  19
ENDBRANCH  12  13
ENDBRANCH  11  12
ENDBRANCH   8  11
ENDBRANCH   4   7
BRANCH   1  21
ATOM     21  C   UNL     1      -1.294  -0.774   0.011  0.00  0.00    +0.141 C 
BRANCH  21  27
ATOM     22  C   UNL     1      -0.017   1.379   0.010  0.00  0.00    +0.007 A 
ATOM     23  C   UNL     1       1.169   2.087   0.002  0.00  0.00    +0.023 A 
ATOM     24  C   UNL     1       2.381   1.409  -0.013  0.00  0.00    +0.030 A 
ATOM     25  C   UNL     1       2.396   0.020  -0.021  0.00  0.00    +0.023 A 
ATOM     26  C   UNL     1       1.207  -0.682  -0.013  0.00  0.00    +0.007 A 
ATOM     27  C   UNL     1       0.002  -0.004   0.002  0.00  0.00    -0.030 A 
BRANCH  24  28
ATOM     28  N   UNL     1       3.582   2.122  -0.021  0.00  0.00    -0.330 N 
ATOM     29  C   UNL     1       3.709   3.587  -0.009  0.00  0.00    +0.105 C 
ATOM     30  C   UNL     1       5.216   3.917  -0.051  0.00  0.00    +0.020 C 
ATOM     31  C   UNL     1       5.837   2.629  -0.655  0.00  0.00    +0.020 C 
ATOM     32  C   UNL     1       4.932   1.531  -0.037  0.00  0.00    +0.105 C 
ENDBRANCH  24  28
ENDBRANCH  21  27
ENDBRANCH   1  21
TORSDOF 8
