REMARK  Name = ZINC42637599
REMARK  10 active torsions:
REMARK  status: ('A' for Active; 'I' for Inactive)
REMARK    1  A    between atoms: C_1  and  C_2
REMARK    2  A    between atoms: C_5  and  N_29
REMARK    3  A    between atoms: C_6  and  N_9
REMARK    4  A    between atoms: C_7  and  C_8
REMARK    5  A    between atoms: C_10  and  C_12
REMARK    6  A    between atoms: C_12  and  C_14
REMARK    7  A    between atoms: C_12  and  N_15
REMARK    8  A    between atoms: N_15  and  C_16
REMARK    9  A    between atoms: C_16  and  C_18
REMARK   10  A    between atoms: C_16  and  C_19
REMARK                            x       y       z     vdW  Elec       q    Type
REMARK                         _______ _______ _______ _____ _____    ______ ____
ROOT
ATOM      1  C   UNL     1      -0.000  -4.252   4.205  0.00  0.00    +0.014 C 
ATOM      2  C   UNL     1       0.858  -3.389   5.131  0.00  0.00    -0.004 C 
ENDROOT
BRANCH   1   4
ATOM      3  N   UNL     1      -0.322  -2.454   2.536  0.00  0.00    -0.285 N 
ATOM      4  C   UNL     1       0.080  -3.713   2.799  0.00  0.00    +0.203 C 
ATOM      5  O   UNL     1       0.507  -4.413   1.905  0.00  0.00    -0.277 OA
ATOM      6  H   UNL     1      -0.738  -1.922   3.233  0.00  0.00    +0.155 HD
BRANCH   3  12
ATOM      7  C   UNL     1      -0.973  -2.779  -2.326  0.00  0.00    +0.044 C 
ATOM      8  C   UNL     1      -0.446  -2.051  -1.116  0.00  0.00    -0.046 A 
ATOM      9  C   UNL     1       0.218  -0.847  -1.269  0.00  0.00    +0.006 A 
ATOM     10  C   UNL     1       0.702  -0.176  -0.162  0.00  0.00    +0.035 A 
ATOM     11  C   UNL     1       0.525  -0.706   1.101  0.00  0.00    +0.148 A 
ATOM     12  C   UNL     1      -0.141  -1.915   1.258  0.00  0.00    +0.067 A 
ATOM     13  C   UNL     1      -0.632  -2.583   0.144  0.00  0.00    -0.024 A 
ATOM     14  C   UNL     1      -1.360  -3.892   0.310  0.00  0.00    +0.046 C 
BRANCH  11  15
ATOM     15  N   UNL     1       1.045   0.012   2.286  0.00  0.00    +0.058 N 
ATOM     16  O   UNL     1       1.677   1.033   2.145  0.00  0.00    -0.126 OA
ATOM     17  O   UNL     1       0.839  -0.422   3.396  0.00  0.00    -0.126 OA
ENDBRANCH  11  15
ENDBRANCH   3  12
ENDBRANCH   1   4
BRANCH   1  18
ATOM     18  N   UNL     1       0.494  -5.636   4.227  0.00  0.00    +0.391 N 
ATOM     19  H   UNL     1      -0.019  -6.187   3.555  0.00  0.00    -0.084 HD
ATOM     20  H   UNL     1       1.475  -5.646   3.993  0.00  0.00    -0.084 HD
BRANCH  18  21
ATOM     21  C   UNL     1       0.305  -6.201   5.570  0.00  0.00    -0.043 C 
ATOM     22  C   UNL     1      -1.191  -6.300   5.876  0.00  0.00    -0.009 C 
BRANCH  21  23
ATOM     23  C   UNL     1       0.921  -7.575   5.628  0.00  0.00    -0.058 A 
ATOM     24  C   UNL     1       0.798  -8.432   4.551  0.00  0.00    +0.006 A 
ATOM     25  C   UNL     1       1.361  -9.694   4.601  0.00  0.00    +0.049 A 
ATOM     26  C   UNL     1       2.052 -10.102   5.732  0.00  0.00    +0.162 A 
ATOM     27  C   UNL     1       2.178  -9.239   6.814  0.00  0.00    +0.162 A 
ATOM     28  C   UNL     1       1.614  -7.973   6.756  0.00  0.00    +0.051 A 
ATOM     29  O   UNL     1       2.858  -9.616   7.931  0.00  0.00    -0.485 OA
ATOM     30  C   UNL     1       3.094 -11.018   8.098  0.00  0.00    +0.270 C 
ATOM     31  C   UNL     1       3.600 -11.583   6.764  0.00  0.00    +0.270 C 
ATOM     32  O   UNL     1       2.598 -11.348   5.769  0.00  0.00    -0.485 OA
ENDBRANCH  21  23
ENDBRANCH  18  21
ENDBRANCH   1  18
TORSDOF 6
