REMARK  Name = ZINC66241056
REMARK  10 active torsions:
REMARK  status: ('A' for Active; 'I' for Inactive)
REMARK    1  A    between atoms: C_1  and  C_2
REMARK    2  A    between atoms: C_2  and  C_3
REMARK    3  A    between atoms: C_2  and  O_4
REMARK    4  A    between atoms: O_4  and  C_5
REMARK    5  A    between atoms: C_8  and  C_28
REMARK    6  A    between atoms: C_10  and  N_11
REMARK    7  A    between atoms: C_12  and  C_14
REMARK    8  A    between atoms: C_17  and  N_20
REMARK    9  A    between atoms: C_21  and  N_27
REMARK   10  A    between atoms: C_22  and  C_25
REMARK                            x       y       z     vdW  Elec       q    Type
REMARK                         _______ _______ _______ _____ _____    ______ ____
ROOT
ATOM      1  N   UNL     1       2.173  -1.199  -3.506  0.00  0.00    -0.279 N 
ATOM      2  C   UNL     1       2.862  -1.626  -4.582  0.00  0.00    +0.248 C 
ATOM      3  O   UNL     1       4.074  -1.706  -4.535  0.00  0.00    -0.270 OA
ATOM      4  H   UNL     1       1.215  -1.056  -3.568  0.00  0.00    +0.155 HD
ENDROOT
BRANCH   1  10
ATOM      5  C   UNL     1       2.304  -0.064  -1.371  0.00  0.00    +0.142 A 
ATOM      6  C   UNL     1       2.959   0.170  -0.170  0.00  0.00    +0.049 A 
ATOM      7  C   UNL     1       4.143  -0.478   0.112  0.00  0.00    +0.022 A 
ATOM      8  C   UNL     1       4.687  -1.373  -0.813  0.00  0.00    +0.054 A 
ATOM      9  C   UNL     1       4.029  -1.610  -2.022  0.00  0.00    +0.046 A 
ATOM     10  C   UNL     1       2.838  -0.960  -2.297  0.00  0.00    +0.077 A 
BRANCH   8  11
ATOM     11  C   UNL     1       5.917  -2.047  -0.522  0.00  0.00    +0.099 C 
ATOM     12  N   UNL     1       6.892  -2.581  -0.290  0.00  0.00    -0.191 NA
ENDBRANCH   8  11
BRANCH   5  13
ATOM     13  O   UNL     1       1.139   0.578  -1.643  0.00  0.00    -0.488 OA
BRANCH  13  15
ATOM     14  C   UNL     1       1.376   2.895  -0.998  0.00  0.00    +0.051 C 
ATOM     15  C   UNL     1       0.700   1.555  -0.698  0.00  0.00    +0.167 C 
ATOM     16  C   UNL     1      -0.819   1.716  -0.798  0.00  0.00    +0.051 C 
ENDBRANCH  13  15
ENDBRANCH   5  13
ENDBRANCH   1  10
BRANCH   2  17
ATOM     17  C   UNL     1       2.146  -1.996  -5.819  0.00  0.00    +0.037 A 
ATOM     18  C   UNL     1       0.753  -1.899  -5.877  0.00  0.00    +0.015 A 
ATOM     19  C   UNL     1       0.088  -2.245  -7.032  0.00  0.00    +0.028 A 
ATOM     20  C   UNL     1       0.800  -2.690  -8.140  0.00  0.00    +0.067 A 
ATOM     21  C   UNL     1       2.187  -2.788  -8.085  0.00  0.00    +0.028 A 
ATOM     22  C   UNL     1       2.859  -2.439  -6.936  0.00  0.00    +0.015 A 
BRANCH  20  23
ATOM     23  N   UNL     1       0.122  -3.041  -9.310  0.00  0.00    -0.218 N 
ATOM     24  C   UNL     1       0.574  -2.854 -10.578  0.00  0.00    +0.137 A 
ATOM     25  C   UNL     1      -0.408  -3.342 -11.435  0.00  0.00    +0.111 A 
ATOM     26  C   UNL     1      -1.461  -3.828 -10.626  0.00  0.00    +0.155 A 
ATOM     27  N   UNL     1      -1.136  -3.650  -9.377  0.00  0.00    -0.172 NA
BRANCH  24  28
ATOM     28  N   UNL     1       1.778  -2.286 -10.945  0.00  0.00    -0.342 N 
ATOM     29  H   UNL     1       2.395  -1.975 -10.265  0.00  0.00    +0.144 HD
ATOM     30  H   UNL     1       2.006  -2.198 -11.884  0.00  0.00    +0.144 HD
ENDBRANCH  24  28
BRANCH  25  31
ATOM     31  C   UNL     1      -0.360  -3.352 -12.867  0.00  0.00    +0.104 C 
ATOM     32  N   UNL     1      -0.322  -3.359 -14.002  0.00  0.00    -0.191 NA
ENDBRANCH  25  31
ENDBRANCH  20  23
ENDBRANCH   2  17
TORSDOF 8
