REMARK  Name = ZINC64971632
REMARK  9 active torsions:
REMARK  status: ('A' for Active; 'I' for Inactive)
REMARK    1  A    between atoms: C_1  and  C_2
REMARK    2  A    between atoms: C_2  and  C_3
REMARK    3  A    between atoms: C_8  and  N_9
REMARK    4  A    between atoms: C_10  and  C_12
REMARK    5  A    between atoms: C_12  and  N_13
REMARK    6  A    between atoms: N_26  and  C_27
REMARK    7  A    between atoms: C_30  and  O_33
REMARK    8  A    between atoms: O_33  and  C_34
REMARK    9  A    between atoms: C_34  and  C_35
REMARK                            x       y       z     vdW  Elec       q    Type
REMARK                         _______ _______ _______ _____ _____    ______ ____
ROOT
ATOM      1  N   UNL     1       6.256   0.128   1.182  0.00  0.00    -0.260 N 
ATOM      2  C   UNL     1       6.564  -1.159   1.638  0.00  0.00    +0.058 A 
ATOM      3  C   UNL     1       5.559  -2.045   1.992  0.00  0.00    +0.025 A 
ATOM      4  C   UNL     1       5.884  -3.310   2.445  0.00  0.00    +0.002 A 
ATOM      5  C   UNL     1       7.208  -3.696   2.548  0.00  0.00    +0.002 A 
ATOM      6  C   UNL     1       8.218  -2.819   2.195  0.00  0.00    +0.025 A 
ATOM      7  C   UNL     1       7.899  -1.553   1.738  0.00  0.00    +0.060 A 
ATOM      8  N   UNL     1       8.900  -0.644   1.361  0.00  0.00    -0.245 N 
ATOM      9  C   UNL     1       8.575   0.346   0.324  0.00  0.00    +0.211 C 
ATOM     10  C   UNL     1       7.188   0.882   0.571  0.00  0.00    +0.238 C 
ATOM     11  O   UNL     1       6.910   2.009   0.218  0.00  0.00    -0.273 OA
ATOM     12  C   UNL     1      10.121  -0.678   1.933  0.00  0.00    +0.311 C 
ATOM     13  O   UNL     1      10.365  -1.498   2.796  0.00  0.00    -0.252 OA
ATOM     14  N   UNL     1      11.070   0.198   1.547  0.00  0.00    -0.269 N 
ATOM     15  H   UNL     1      10.915   0.776   0.783  0.00  0.00    +0.156 HD
ENDROOT
BRANCH  14  16
ATOM     16  C   UNL     1      12.280   0.274   2.248  0.00  0.00    +0.035 A 
ATOM     17  C   UNL     1      12.739  -0.825   2.963  0.00  0.00    +0.027 A 
ATOM     18  C   UNL     1      13.932  -0.750   3.654  0.00  0.00    +0.047 A 
ATOM     19  C   UNL     1      14.673   0.423   3.634  0.00  0.00    +0.121 A 
ATOM     20  C   UNL     1      14.216   1.521   2.920  0.00  0.00    +0.047 A 
ATOM     21  C   UNL     1      13.025   1.445   2.224  0.00  0.00    +0.027 A 
BRANCH  19  22
ATOM     22  O   UNL     1      15.848   0.496   4.315  0.00  0.00    -0.492 OA
BRANCH  22  23
ATOM     23  C   UNL     1      16.558   1.734   4.250  0.00  0.00    +0.225 C 
ATOM     24  C   UNL     1      17.845   1.627   5.071  0.00  0.00    +0.048 C 
ENDBRANCH  22  23
ENDBRANCH  19  22
ENDBRANCH  14  16
BRANCH   1  25
ATOM     25  C   UNL     1       4.902   0.657   1.366  0.00  0.00    +0.209 C 
BRANCH  25  27
ATOM     26  N   UNL     1       2.764   0.680   0.123  0.00  0.00    -0.284 N 
ATOM     27  C   UNL     1       4.055   0.295   0.174  0.00  0.00    +0.235 C 
ATOM     28  O   UNL     1       4.534  -0.342  -0.740  0.00  0.00    -0.274 OA
ATOM     29  H   UNL     1       2.384   1.200   0.848  0.00  0.00    +0.155 HD
BRANCH  26  35
ATOM     30  C   UNL     1       0.613   0.099  -0.810  0.00  0.00    -0.026 A 
ATOM     31  C   UNL     1      -0.166  -0.242  -1.898  0.00  0.00    +0.005 A 
ATOM     32  C   UNL     1       0.406  -0.359  -3.151  0.00  0.00    +0.000 A 
ATOM     33  C   UNL     1       1.760  -0.136  -3.320  0.00  0.00    +0.002 A 
ATOM     34  C   UNL     1       2.546   0.206  -2.236  0.00  0.00    +0.023 A 
ATOM     35  C   UNL     1       1.972   0.329  -0.977  0.00  0.00    +0.037 A 
BRANCH  30  37
ATOM     36  C   UNL     1      -0.377   1.689   0.814  0.00  0.00    +0.009 C 
ATOM     37  C   UNL     1      -0.011   0.226   0.555  0.00  0.00    +0.033 C 
ENDBRANCH  30  37
ENDBRANCH  26  35
ENDBRANCH  25  27
ENDBRANCH   1  25
TORSDOF 7
