REMARK  Name = ZINC01703639
REMARK  14 active torsions:
REMARK  status: ('A' for Active; 'I' for Inactive)
REMARK    1  A    between atoms: C_1  and  C_2
REMARK    2  A    between atoms: C_2  and  N_62
REMARK    3  A    between atoms: C_3  and  C_4
REMARK    4  A    between atoms: C_3  and  N_62
REMARK    5  A    between atoms: C_5  and  C_6
REMARK    6  A    between atoms: C_5  and  N_62
REMARK    7  A    between atoms: C_6  and  C_7
REMARK    8  A    between atoms: C_7  and  C_8
REMARK    9  A    between atoms: C_8  and  C_10
REMARK   10  A    between atoms: C_8  and  N_11
REMARK   11  A    between atoms: N_18  and  C_21
REMARK   12  A    between atoms: C_21  and  C_22
REMARK   13  A    between atoms: C_25  and  S_28
REMARK   14  A    between atoms: S_28  and  N_31
REMARK                            x       y       z     vdW  Elec       q    Type
REMARK                         _______ _______ _______ _____ _____    ______ ____
ROOT
ATOM      1  N   UNL     1      -1.469   2.252   1.126  0.00  0.00    -0.325 N 
ATOM      2  C   UNL     1      -2.467   2.993   0.518  0.00  0.00    +0.150 A 
ATOM      3  C   UNL     1      -3.723   2.423   0.247  0.00  0.00    +0.147 A 
ATOM      4  C   UNL     1      -4.696   3.225  -0.372  0.00  0.00    +0.166 A 
ATOM      5  N   UNL     1      -4.397   4.484  -0.677  0.00  0.00    -0.216 NA
ATOM      6  C   UNL     1      -3.207   4.976  -0.404  0.00  0.00    +0.225 A 
ATOM      7  N   UNL     1      -2.261   4.262   0.180  0.00  0.00    -0.219 NA
ATOM      8  N   UNL     1      -5.805   2.431  -0.516  0.00  0.00    -0.310 N 
ATOM      9  C   UNL     1      -5.500   1.206  -0.002  0.00  0.00    +0.202 A 
ATOM     10  N   UNL     1      -4.278   1.204   0.446  0.00  0.00    -0.231 NA
ATOM     11  H   UNL     1      -1.348   1.466   0.520  0.00  0.00    +0.148 HD
ENDROOT
BRANCH   1  12
ATOM     12  C   UNL     1      -0.166   2.863   1.400  0.00  0.00    +0.069 C 
ATOM     13  C   UNL     1       0.718   2.758   0.156  0.00  0.00    +0.028 C 
BRANCH  12  14
ATOM     14  C   UNL     1       0.505   2.133   2.565  0.00  0.00    +0.020 C 
BRANCH  14  15
ATOM     15  C   UNL     1      -0.317   2.342   3.839  0.00  0.00    -0.017 C 
BRANCH  15  16
ATOM     16  C   UNL     1       0.354   1.612   5.004  0.00  0.00    -0.079 C 
BRANCH  16  17
ATOM     17  N   UNL     1      -0.439   1.841   6.231  0.00  0.00    +0.379 N 
ATOM     18  H   UNL     1      -0.592   2.850   6.344  0.00  0.00    -0.082 HD
BRANCH  17  20
ATOM     19  C   UNL     1      -1.560  -0.340   5.923  0.00  0.00    -0.017 C 
ATOM     20  C   UNL     1      -1.748   1.165   6.119  0.00  0.00    -0.082 C 
ENDBRANCH  17  20
BRANCH  17  21
ATOM     21  C   UNL     1       0.294   1.332   7.409  0.00  0.00    -0.082 C 
ATOM     22  C   UNL     1      -0.355   1.896   8.674  0.00  0.00    -0.017 C 
ENDBRANCH  17  21
ENDBRANCH  16  17
ENDBRANCH  15  16
ENDBRANCH  14  15
ENDBRANCH  12  14
ENDBRANCH   1  12
BRANCH   8  23
ATOM     23  C   UNL     1      -7.083   2.827  -1.114  0.00  0.00    +0.159 C 
BRANCH  23  24
ATOM     24  C   UNL     1      -7.012   2.658  -2.609  0.00  0.00    -0.028 A 
ATOM     25  C   UNL     1      -6.586   3.706  -3.404  0.00  0.00    +0.007 A 
ATOM     26  C   UNL     1      -6.516   3.550  -4.776  0.00  0.00    +0.029 A 
ATOM     27  C   UNL     1      -6.881   2.348  -5.354  0.00  0.00    +0.105 A 
ATOM     28  C   UNL     1      -7.312   1.302  -4.559  0.00  0.00    +0.029 A 
ATOM     29  C   UNL     1      -7.378   1.457  -3.187  0.00  0.00    +0.007 A 
BRANCH  27  30
ATOM     30  S   UNL     1      -6.797   2.150  -7.102  0.00  0.00    +0.056 S 
ATOM     31  O   UNL     1      -5.845   3.095  -7.572  0.00  0.00    -0.153 OA
ATOM     32  O   UNL     1      -6.672   0.756  -7.348  0.00  0.00    -0.153 OA
BRANCH  30  33
ATOM     33  N   UNL     1      -8.263   2.610  -7.719  0.00  0.00    -0.204 NA
ATOM     34  H   UNL     1      -8.965   2.916  -7.123  0.00  0.00    +0.144 HD
ATOM     35  H   UNL     1      -8.420   2.574  -8.675  0.00  0.00    +0.144 HD
ENDBRANCH  30  33
ENDBRANCH  27  30
ENDBRANCH  23  24
ENDBRANCH   8  23
TORSDOF 11
