REMARK  Name = ZINC02395557
REMARK  9 active torsions:
REMARK  status: ('A' for Active; 'I' for Inactive)
REMARK    1  A    between atoms: C_1  and  C_2
REMARK    2  A    between atoms: N_4  and  C_5
REMARK    3  A    between atoms: C_8  and  C_11
REMARK    4  A    between atoms: N_12  and  N_13
REMARK    5  A    between atoms: C_14  and  C_16
REMARK    6  A    between atoms: C_17  and  C_27
REMARK    7  A    between atoms: C_27  and  N_50
REMARK    8  A    between atoms: C_28  and  N_50
REMARK    9  A    between atoms: C_29  and  N_50
REMARK                            x       y       z     vdW  Elec       q    Type
REMARK                         _______ _______ _______ _____ _____    ______ ____
ROOT
ATOM      1  C   UNL     1       0.733   5.929   0.117  0.00  0.00    +0.170 A 
ATOM      2  C   UNL     1      -0.531   5.409   0.119  0.00  0.00    +0.063 A 
ATOM      3  N   UNL     1      -0.398   4.064   0.115  0.00  0.00    -0.194 N 
ATOM      4  N   UNL     1       0.977   3.793   0.101  0.00  0.00    -0.058 NA
ATOM      5  N   UNL     1       1.612   4.913   0.102  0.00  0.00    -0.124 NA
ATOM      6  C   UNL     1      -1.434   3.123   0.119  0.00  0.00    +0.240 A 
ATOM      7  C   UNL     1      -1.271   1.667   0.108  0.00  0.00    +0.206 A 
ATOM      8  N   UNL     1      -2.455   1.121   0.121  0.00  0.00    -0.032 NA
ATOM      9  O   UNL     1      -3.414   2.164   0.134  0.00  0.00    -0.239 OA
ATOM     10  N   UNL     1      -2.709   3.393   0.128  0.00  0.00    -0.027 NA
ATOM     11  N   UNL     1      -0.060   0.984   0.093  0.00  0.00    -0.337 N 
ATOM     12  H   UNL     1      -0.050   0.014   0.091  0.00  0.00    +0.144 HD
ATOM     13  H   UNL     1       0.775   1.477   0.080  0.00  0.00    +0.144 HD
ENDROOT
BRANCH   1  15
ATOM     14  N   UNL     1       2.365   7.750   0.114  0.00  0.00    -0.202 N 
ATOM     15  C   UNL     1       1.073   7.364   0.123  0.00  0.00    +0.285 C 
ATOM     16  O   UNL     1       0.189   8.199   0.136  0.00  0.00    -0.267 OA
ATOM     17  H   UNL     1       3.070   7.084   0.103  0.00  0.00    +0.178 HD
BRANCH  14  19
ATOM     18  C   UNL     1       3.932   9.485   0.111  0.00  0.00    +0.138 C 
ATOM     19  N   UNL     1       2.689   9.113   0.120  0.00  0.00    -0.187 NA
BRANCH  18  23
ATOM     20  C   UNL     1       4.914  13.615   0.129  0.00  0.00    +0.033 A 
ATOM     21  C   UNL     1       5.926  12.662   0.114  0.00  0.00    +0.024 A 
ATOM     22  C   UNL     1       5.612  11.321   0.108  0.00  0.00    +0.011 A 
ATOM     23  C   UNL     1       4.273  10.919   0.117  0.00  0.00    -0.005 A 
ATOM     24  C   UNL     1       3.258  11.880   0.127  0.00  0.00    +0.011 A 
ATOM     25  C   UNL     1       3.581  13.219   0.139  0.00  0.00    +0.024 A 
BRANCH  20  29
ATOM     26  C   UNL     1       4.862  17.305  -0.605  0.00  0.00    +0.109 C 
ATOM     27  C   UNL     1       4.458  15.856  -0.524  0.00  0.00    +0.214 C 
ATOM     28  O   UNL     1       3.432  15.481  -1.052  0.00  0.00    -0.276 OA
ATOM     29  N   UNL     1       5.237  14.975   0.135  0.00  0.00    -0.286 N 
ATOM     30  H   UNL     1       6.022  15.285   0.613  0.00  0.00    +0.155 HD
ENDBRANCH  20  29
ENDBRANCH  18  23
ENDBRANCH  14  19
ENDBRANCH   1  15
BRANCH   2  31
ATOM     31  C   UNL     1      -1.822   6.185   0.128  0.00  0.00    -0.021 C 
BRANCH  31  34
ATOM     32  C   UNL     1      -3.354   7.383   1.570  0.00  0.00    -0.096 C 
ATOM     33  C   UNL     1      -2.577   5.177   2.196  0.00  0.00    -0.096 C 
ATOM     34  N   UNL     1      -2.213   6.445   1.529  0.00  0.00    +0.380 N 
ATOM     35  H   UNL     1      -1.418   6.866   2.025  0.00  0.00    -0.082 HD
ENDBRANCH  31  34
ENDBRANCH   2  31
TORSDOF 6
