REMARK  Name = ZINC39736419
REMARK  16 active torsions:
REMARK  status: ('A' for Active; 'I' for Inactive)
REMARK    1  A    between atoms: C_1  and  C_2
REMARK    2  A    between atoms: C_2  and  N_3
REMARK    3  A    between atoms: N_3  and  C_4
REMARK    4  A    between atoms: N_3  and  C_6
REMARK    5  A    between atoms: C_4  and  C_5
REMARK    6  A    between atoms: C_6  and  C_7
REMARK    7  A    between atoms: C_7  and  N_8
REMARK    8  A    between atoms: C_12  and  O_18
REMARK    9  A    between atoms: O_18  and  C_19
REMARK   10  A    between atoms: C_20  and  C_22
REMARK   11  A    between atoms: C_25  and  S_28
REMARK   12  A    between atoms: S_28  and  N_31
REMARK   13  A    between atoms: N_31  and  C_32
REMARK   14  A    between atoms: N_31  and  C_33
REMARK   15  A    between atoms: C_33  and  C_34
REMARK   16  A    between atoms: C_33  and  C_35
REMARK                            x       y       z     vdW  Elec       q    Type
REMARK                         _______ _______ _______ _____ _____    ______ ____
ROOT
ATOM      1  N   UNL     1       2.199  -4.491   2.331  0.00  0.00    -0.248 N 
ATOM      2  C   UNL     1       3.414  -5.110   2.093  0.00  0.00    +0.168 A 
ATOM      3  N   UNL     1       3.648  -6.320   1.641  0.00  0.00    -0.221 NA
ATOM      4  C   UNL     1       4.899  -6.797   1.457  0.00  0.00    +0.122 A 
ATOM      5  C   UNL     1       5.287  -8.075   0.979  0.00  0.00    +0.146 A 
ATOM      6  C   UNL     1       6.616  -8.400   0.851  0.00  0.00    +0.048 A 
ATOM      7  C   UNL     1       7.617  -7.499   1.181  0.00  0.00    +0.005 A 
ATOM      8  C   UNL     1       7.273  -6.245   1.650  0.00  0.00    +0.017 A 
ATOM      9  C   UNL     1       5.947  -5.909   1.782  0.00  0.00    +0.044 A 
ATOM     10  S   UNL     1       5.065  -4.462   2.317  0.00  0.00    -0.052 S 
ATOM     11  C   UNL     1       1.048  -5.153   2.097  0.00  0.00    +0.252 C 
ATOM     12  O   UNL     1       1.077  -6.311   1.729  0.00  0.00    -0.270 OA
ENDROOT
BRANCH  11  13
ATOM     13  C   UNL     1      -0.249  -4.471   2.288  0.00  0.00    +0.037 A 
ATOM     14  C   UNL     1      -0.352  -3.092   2.094  0.00  0.00    +0.015 A 
ATOM     15  C   UNL     1      -1.565  -2.462   2.273  0.00  0.00    +0.029 A 
ATOM     16  C   UNL     1      -2.680  -3.193   2.645  0.00  0.00    +0.106 A 
ATOM     17  C   UNL     1      -2.585  -4.560   2.840  0.00  0.00    +0.029 A 
ATOM     18  C   UNL     1      -1.379  -5.204   2.658  0.00  0.00    +0.015 A 
BRANCH  16  19
ATOM     19  S   UNL     1      -4.226  -2.380   2.874  0.00  0.00    +0.061 S 
ATOM     20  O   UNL     1      -4.941  -3.131   3.845  0.00  0.00    -0.153 OA
ATOM     21  O   UNL     1      -3.938  -0.999   3.040  0.00  0.00    -0.153 OA
BRANCH  19  22
ATOM     22  N   UNL     1      -5.067  -2.521   1.454  0.00  0.00    -0.177 NA
ATOM     23  C   UNL     1      -6.035  -3.607   1.280  0.00  0.00    +0.132 C 
BRANCH  22  24
ATOM     24  C   UNL     1      -4.844  -1.558   0.372  0.00  0.00    +0.073 C 
ATOM     25  C   UNL     1      -4.460  -2.307  -0.905  0.00  0.00    +0.025 C 
ATOM     26  C   UNL     1      -6.126  -0.758   0.129  0.00  0.00    +0.025 C 
ENDBRANCH  22  24
ENDBRANCH  19  22
ENDBRANCH  16  19
ENDBRANCH  11  13
BRANCH   5  27
ATOM     27  O   UNL     1       4.335  -8.986   0.645  0.00  0.00    -0.493 OA
ATOM     28  C   UNL     1       4.790 -10.255   0.171  0.00  0.00    +0.277 C 
ENDBRANCH   5  27
BRANCH   1  29
ATOM     29  C   UNL     1       2.163  -3.116   2.836  0.00  0.00    +0.097 C 
BRANCH  29  30
ATOM     30  C   UNL     1       2.448  -2.144   1.690  0.00  0.00    -0.059 C 
BRANCH  30  31
ATOM     31  N   UNL     1       2.291  -0.764   2.167  0.00  0.00    +0.380 N 
ATOM     32  H   UNL     1       1.369  -0.646   2.559  0.00  0.00    -0.082 HD
BRANCH  31  34
ATOM     33  C   UNL     1       3.059   0.908   3.784  0.00  0.00    -0.017 C 
ATOM     34  C   UNL     1       3.300  -0.484   3.198  0.00  0.00    -0.082 C 
ENDBRANCH  31  34
BRANCH  31  35
ATOM     35  C   UNL     1       2.468   0.166   1.044  0.00  0.00    -0.082 C 
ATOM     36  C   UNL     1       1.316  -0.007   0.052  0.00  0.00    -0.017 C 
ENDBRANCH  31  35
ENDBRANCH  30  31
ENDBRANCH  29  30
ENDBRANCH   1  29
TORSDOF 10
