REMARK  Name = ZINC05345202
REMARK  7 active torsions:
REMARK  status: ('A' for Active; 'I' for Inactive)
REMARK    1  A    between atoms: C_1  and  O_2
REMARK    2  A    between atoms: O_2  and  C_3
REMARK    3  A    between atoms: N_9  and  S_10
REMARK    4  A    between atoms: S_10  and  C_13
REMARK    5  A    between atoms: C_16  and  N_19
REMARK    6  A    between atoms: C_20  and  C_21
REMARK    7  A    between atoms: C_26  and  O_27
REMARK                            x       y       z     vdW  Elec       q    Type
REMARK                         _______ _______ _______ _____ _____    ______ ____
ROOT
ATOM      1  C   UNL     1       3.591  -2.398   1.480  0.00  0.00    +0.109 A 
ATOM      2  C   UNL     1       4.399  -1.279   1.567  0.00  0.00    +0.031 A 
ATOM      3  C   UNL     1       5.026  -0.966   2.755  0.00  0.00    +0.029 A 
ATOM      4  C   UNL     1       4.851  -1.789   3.870  0.00  0.00    +0.064 A 
ATOM      5  C   UNL     1       4.038  -2.921   3.774  0.00  0.00    +0.029 A 
ATOM      6  C   UNL     1       3.414  -3.218   2.581  0.00  0.00    +0.031 A 
ENDROOT
BRANCH   1   7
ATOM      7  S   UNL     1       2.789  -2.786  -0.040  0.00  0.00    +0.074 S 
ATOM      8  O   UNL     1       2.531  -4.183  -0.018  0.00  0.00    -0.150 OA
ATOM      9  O   UNL     1       3.549  -2.167  -1.069  0.00  0.00    -0.150 OA
BRANCH   7  16
ATOM     10  C   UNL     1       1.205   2.051   0.002  0.00  0.00    +0.234 A 
ATOM     11  C   UNL     1      -0.017   1.380   0.010  0.00  0.00    +0.072 A 
ATOM     12  C   UNL     1       0.002  -0.004   0.002  0.00  0.00    +0.052 A 
ATOM     13  C   UNL     1       1.244  -0.641  -0.013  0.00  0.00    +0.160 A 
ATOM     14  N   UNL     1       2.353   0.080  -0.020  0.00  0.00    -0.129 NA
ATOM     15  N   UNL     1       2.334   1.363  -0.013  0.00  0.00    -0.110 NA
ATOM     16  N   UNL     1       1.315  -2.032  -0.022  0.00  0.00    -0.198 N 
ATOM     17  H   UNL     1       0.500  -2.560  -0.017  0.00  0.00    +0.175 HD
BRANCH  10  19
ATOM     18  C   UNL     1       2.524   4.028  -0.001  0.00  0.00    +0.279 C 
ATOM     19  O   UNL     1       1.236   3.408   0.008  0.00  0.00    -0.479 OA
ENDBRANCH  10  19
ENDBRANCH   7  16
ENDBRANCH   1   7
BRANCH   4  20
ATOM     20  N   UNL     1       5.474  -1.488   5.051  0.00  0.00    -0.255 NA
ATOM     21  C   UNL     1       6.729  -1.133   5.054  0.00  0.00    +0.123 C 
BRANCH  21  22
ATOM     22  C   UNL     1       7.398  -0.809   6.323  0.00  0.00    +0.037 A 
ATOM     23  C   UNL     1       8.744  -0.428   6.331  0.00  0.00    +0.033 A 
ATOM     24  C   UNL     1       9.365  -0.126   7.524  0.00  0.00    +0.043 A 
ATOM     25  C   UNL     1       8.662  -0.198   8.717  0.00  0.00    +0.043 A 
ATOM     26  C   UNL     1       7.331  -0.574   8.723  0.00  0.00    +0.084 A 
ATOM     27  C   UNL     1       6.689  -0.876   7.531  0.00  0.00    +0.144 A 
ATOM     28 CL   UNL     1       6.462  -0.661  10.223  0.00  0.00    -0.080 Cl
ATOM     29 CL   UNL     1      11.035   0.347   7.533  0.00  0.00    -0.083 Cl
BRANCH  27  30
ATOM     30  O   UNL     1       5.381  -1.239   7.535  0.00  0.00    -0.505 OA
ATOM     31  H   UNL     1       5.237  -2.191   7.628  0.00  0.00    +0.292 HD
ENDBRANCH  27  30
ENDBRANCH  21  22
ENDBRANCH   4  20
TORSDOF 6
