REMARK  Name = ZINC20323611
REMARK  7 active torsions:
REMARK  status: ('A' for Active; 'I' for Inactive)
REMARK    1  A    between atoms: C_1  and  C_2
REMARK    2  A    between atoms: C_5  and  S_8
REMARK    3  A    between atoms: S_8  and  N_11
REMARK    4  A    between atoms: N_11  and  N_12
REMARK    5  A    between atoms: C_14  and  C_23
REMARK    6  A    between atoms: N_25  and  C_26
REMARK    7  A    between atoms: C_29  and  C_33
REMARK                            x       y       z     vdW  Elec       q    Type
REMARK                         _______ _______ _______ _____ _____    ______ ____
ROOT
ATOM      1  N   UNL     1      -2.776   1.267   2.931  0.00  0.00    -0.260 N 
ATOM      2  C   UNL     1      -3.526   1.238   3.996  0.00  0.00    +0.225 A 
ATOM      3  C   UNL     1      -4.168   2.469   4.512  0.00  0.00    +0.099 A 
ATOM      4  C   UNL     1      -5.333   2.314   5.230  0.00  0.00    +0.030 A 
ATOM      5  C   UNL     1      -5.833   0.949   5.431  0.00  0.00    +0.018 A 
ATOM      6  C   UNL     1      -7.128   0.726   5.911  0.00  0.00    +0.011 A 
ATOM      7  C   UNL     1      -7.577  -0.565   6.085  0.00  0.00    +0.001 A 
ATOM      8  C   UNL     1      -6.755  -1.640   5.788  0.00  0.00    +0.004 A 
ATOM      9  C   UNL     1      -5.472  -1.434   5.315  0.00  0.00    +0.047 A 
ATOM     10  C   UNL     1      -5.001  -0.144   5.134  0.00  0.00    +0.137 A 
ATOM     11  O   UNL     1      -3.742   0.072   4.673  0.00  0.00    -0.437 OA
ATOM     12  H   UNL     1      -2.546   2.227   2.446  0.00  0.00    +0.189 HD
ENDROOT
BRANCH   3  13
ATOM     13  C   UNL     1      -3.587   3.798   4.264  0.00  0.00    +0.253 C 
ATOM     14  O   UNL     1      -4.046   4.777   4.823  0.00  0.00    -0.270 OA
ATOM     15  N   UNL     1      -2.547   3.932   3.418  0.00  0.00    -0.281 N 
ATOM     16  H   UNL     1      -2.185   3.062   2.849  0.00  0.00    +0.155 HD
BRANCH  15  17
ATOM     17  C   UNL     1      -1.926   5.176   3.263  0.00  0.00    +0.035 A 
ATOM     18  C   UNL     1      -1.398   5.541   2.031  0.00  0.00    +0.023 A 
ATOM     19  C   UNL     1      -0.786   6.770   1.881  0.00  0.00    +0.006 A 
ATOM     20  C   UNL     1      -0.698   7.637   2.955  0.00  0.00    -0.032 A 
ATOM     21  C   UNL     1      -1.223   7.276   4.184  0.00  0.00    +0.046 A 
ATOM     22  C   UNL     1      -1.842   6.050   4.339  0.00  0.00    +0.043 A 
ATOM     23 CL   UNL     1      -1.111   8.367   5.529  0.00  0.00    -0.083 Cl
ATOM     24  C   UNL     1      -0.030   8.977   2.788  0.00  0.00    +0.045 C 
ENDBRANCH  15  17
ENDBRANCH   3  13
BRANCH   1  25
ATOM     25  N   UNL     1      -2.260   0.075   2.404  0.00  0.00    -0.157 N 
ATOM     26  H   UNL     1      -2.518  -0.777   2.789  0.00  0.00    +0.194 HD
BRANCH  25  27
ATOM     27  S   UNL     1      -1.211   0.122   1.124  0.00  0.00    +0.085 S 
ATOM     28  O   UNL     1      -1.845   0.884   0.106  0.00  0.00    -0.149 OA
ATOM     29  O   UNL     1      -0.769  -1.212   0.913  0.00  0.00    -0.149 OA
BRANCH  27  34
ATOM     30  C   UNL     1       3.624   3.276   2.877  0.00  0.00    +0.044 C 
ATOM     31  C   UNL     1       2.415   2.489   2.442  0.00  0.00    -0.050 A 
ATOM     32  C   UNL     1       2.321   1.143   2.744  0.00  0.00    +0.005 A 
ATOM     33  C   UNL     1       1.212   0.421   2.344  0.00  0.00    +0.029 A 
ATOM     34  C   UNL     1       0.199   1.044   1.639  0.00  0.00    +0.110 A 
ATOM     35  C   UNL     1       0.290   2.391   1.343  0.00  0.00    +0.029 A 
ATOM     36  C   UNL     1       1.399   3.113   1.742  0.00  0.00    +0.005 A 
ENDBRANCH  27  34
ENDBRANCH  25  27
ENDBRANCH   1  25
TORSDOF 5
