REMARK  Name = ZINC39000167
REMARK  7 active torsions:
REMARK  status: ('A' for Active; 'I' for Inactive)
REMARK    1  A    between atoms: C_4  and  O_37
REMARK    2  A    between atoms: C_5  and  C_7
REMARK    3  A    between atoms: C_10  and  C_12
REMARK    4  A    between atoms: N_14  and  C_15
REMARK    5  A    between atoms: C_17  and  C_27
REMARK    6  A    between atoms: N_29  and  C_30
REMARK    7  A    between atoms: C_30  and  C_31
REMARK                            x       y       z     vdW  Elec       q    Type
REMARK                         _______ _______ _______ _____ _____    ______ ____
ROOT
ATOM      1  C   UNL     1       0.285  -8.208   0.058  0.00  0.00    +0.144 C 
ATOM      2  C   UNL     1       0.946  -9.195  -0.917  0.00  0.00    +0.109 C 
ATOM      3  C   UNL     1       0.024  -9.727  -1.997  0.00  0.00    +0.016 C 
ATOM      4  C   UNL     1       0.157  -8.871  -3.279  0.00  0.00    +0.005 C 
ATOM      5  C   UNL     1      -1.169  -9.158  -4.026  0.00  0.00    +0.001 C 
ATOM      6  C   UNL     1      -2.225  -9.237  -2.905  0.00  0.00    +0.014 C 
ATOM      7  C   UNL     1      -1.476  -9.598  -1.622  0.00  0.00    +0.052 C 
ATOM      8  S   UNL     1      -1.463  -8.146  -0.499  0.00  0.00    -0.134 S 
ENDROOT
BRANCH   1  11
ATOM      9  C   UNL     1       0.222  -5.787   0.326  0.00  0.00    +0.261 C 
ATOM     10  O   UNL     1      -0.941  -5.884   0.672  0.00  0.00    -0.269 OA
ATOM     11  N   UNL     1       0.907  -6.886  -0.048  0.00  0.00    -0.298 N 
ATOM     12  H   UNL     1       1.812  -6.801  -0.387  0.00  0.00    +0.150 HD
BRANCH   9  16
ATOM     13  C   UNL     1       1.445  -2.196   0.478  0.00  0.00    +0.080 C 
ATOM     14  N   UNL     1       2.421  -2.971   0.061  0.00  0.00    -0.153 NA
ATOM     15  N   UNL     1       2.110  -4.205  -0.025  0.00  0.00    -0.148 NA
ATOM     16  C   UNL     1       0.877  -4.476   0.317  0.00  0.00    +0.131 C 
ATOM     17  C   UNL     1       0.274  -3.137   0.709  0.00  0.00    +0.120 C 
BRANCH  13  22
ATOM     18  C   UNL     1       0.383   1.292   1.329  0.00  0.00    +0.001 A 
ATOM     19  C   UNL     1       1.545   2.001   1.067  0.00  0.00    +0.004 A 
ATOM     20  C   UNL     1       2.676   1.350   0.614  0.00  0.00    +0.046 A 
ATOM     21  C   UNL     1       2.656  -0.022   0.417  0.00  0.00    +0.126 A 
ATOM     22  C   UNL     1       1.480  -0.747   0.681  0.00  0.00    +0.040 A 
ATOM     23  C   UNL     1       0.341  -0.071   1.141  0.00  0.00    +0.013 A 
BRANCH  21  24
ATOM     24  O   UNL     1       3.766  -0.663  -0.029  0.00  0.00    -0.506 OA
ATOM     25  H   UNL     1       4.351  -0.972   0.675  0.00  0.00    +0.292 HD
ENDBRANCH  21  24
ENDBRANCH  13  22
ENDBRANCH   9  16
ENDBRANCH   1  11
BRANCH   2  26
ATOM     26  C   UNL     1       1.474 -10.365  -0.127  0.00  0.00    +0.219 C 
ATOM     27  O   UNL     1       1.049 -11.481  -0.339  0.00  0.00    -0.275 OA
ATOM     28  N   UNL     1       2.419 -10.172   0.815  0.00  0.00    -0.313 N 
ATOM     29  H   UNL     1       2.759  -9.279   0.984  0.00  0.00    +0.149 HD
BRANCH  28  30
ATOM     30  C   UNL     1       2.932 -11.309   1.583  0.00  0.00    +0.135 C 
BRANCH  30  31
ATOM     31  C   UNL     1       3.986 -10.819   2.577  0.00  0.00    +0.135 C 
ATOM     32  C   UNL     1       4.619 -12.024   3.306  0.00  0.00    +0.035 C 
ATOM     33  C   UNL     1       4.771 -11.489   4.756  0.00  0.00    +0.031 C 
ATOM     34  C   UNL     1       3.520 -10.582   4.868  0.00  0.00    +0.160 C 
ATOM     35  O   UNL     1       3.370  -9.987   3.567  0.00  0.00    -0.375 OA
ENDBRANCH  30  31
ENDBRANCH  28  30
ENDBRANCH   2  26
TORSDOF 7
