REMARK  Name = ZINC63637875
REMARK  1 active torsions:
REMARK  status: ('A' for Active; 'I' for Inactive)
REMARK    1  A    between atoms: C_11  and  C_23
REMARK                            x       y       z     vdW  Elec       q    Type
REMARK                         _______ _______ _______ _____ _____    ______ ____
ROOT
ATOM      1  C   UNL     1      -0.017   1.393   0.010  0.00  0.00    +0.001 A 
ATOM      2  C   UNL     1       1.140   2.137   0.003  0.00  0.00    +0.001 A 
ATOM      3  C   UNL     1       2.403   1.535  -0.014  0.00  0.00    +0.012 A 
ATOM      4  C   UNL     1       2.437   0.154  -0.021  0.00  0.00    +0.031 A 
ATOM      5  C   UNL     1       1.246  -0.615  -0.012  0.00  0.00    +0.007 A 
ATOM      6  C   UNL     1       0.002  -0.004   0.002  0.00  0.00    +0.010 A 
ATOM      7  C   UNL     1       1.643  -2.028  -0.020  0.00  0.00    +0.047 C 
ATOM      8  C   UNL     1       3.009  -2.110  -0.034  0.00  0.00    +0.030 C 
ATOM      9  C   UNL     1       3.562  -0.805  -0.040  0.00  0.00    +0.192 C 
ATOM     10  O   UNL     1       4.745  -0.526  -0.057  0.00  0.00    -0.287 OA
ATOM     11  C   UNL     1       3.771  -3.415  -0.036  0.00  0.00    +0.073 C 
ATOM     12  C   UNL     1       2.821  -4.532  -0.492  0.00  0.00    +0.148 C 
ATOM     13  C   UNL     1       1.486  -4.345   0.182  0.00  0.00    +0.106 C 
ATOM     14  N   UNL     1       0.954  -5.261   0.934  0.00  0.00    -0.151 NA
ATOM     15  C   UNL     1       1.554  -6.435   1.177  0.00  0.00    +0.331 C 
ATOM     16  O   UNL     1       0.994  -7.253   1.883  0.00  0.00    -0.250 OA
ATOM     17  N   UNL     1       2.757  -6.730   0.661  0.00  0.00    -0.238 N 
ATOM     18  C   UNL     1       3.404  -5.867  -0.127  0.00  0.00    +0.231 C 
ATOM     19  O   UNL     1       4.492  -6.177  -0.562  0.00  0.00    -0.275 OA
ATOM     20  N   UNL     1       0.831  -3.152  -0.017  0.00  0.00    -0.303 N 
ATOM     21  H   UNL     1       3.165  -7.585   0.868  0.00  0.00    +0.159 HD
ATOM     22  H   UNL     1      -0.129  -3.100  -0.145  0.00  0.00    +0.153 HD
ENDROOT
BRANCH  11  23
ATOM     23  C   UNL     1       4.276  -3.709   1.353  0.00  0.00    -0.037 A 
ATOM     24  C   UNL     1       3.381  -3.855   2.397  0.00  0.00    +0.007 A 
ATOM     25  C   UNL     1       3.842  -4.125   3.671  0.00  0.00    +0.040 A 
ATOM     26  C   UNL     1       5.202  -4.250   3.903  0.00  0.00    +0.137 A 
ATOM     27  C   UNL     1       6.098  -4.104   2.857  0.00  0.00    +0.053 A 
ATOM     28  C   UNL     1       5.633  -3.839   1.581  0.00  0.00    +0.022 A 
ATOM     29 BR   UNL     1       7.955  -4.274   3.171  0.00  0.00    -0.047 Br
ATOM     30  F   UNL     1       5.654  -4.513   5.148  0.00  0.00    -0.204 F 
ENDBRANCH  11  23
TORSDOF 1
