REMARK  Name = ZINC09244792
REMARK  3 active torsions:
REMARK  status: ('A' for Active; 'I' for Inactive)
REMARK    1  A    between atoms: C_18  and  C_22
REMARK    2  A    between atoms: C_22  and  C_23
REMARK    3  A    between atoms: N_25  and  C_26
REMARK                            x       y       z     vdW  Elec       q    Type
REMARK                         _______ _______ _______ _____ _____    ______ ____
ROOT
ATOM      1  C   UNL     1      -2.415   1.392   0.027  0.00  0.00    +0.001 A 
ATOM      2  C   UNL     1      -2.411   0.009   0.012  0.00  0.00    +0.004 A 
ATOM      3  C   UNL     1      -1.215  -0.677   0.004  0.00  0.00    +0.046 A 
ATOM      4  C   UNL     1      -0.007   0.014   0.010  0.00  0.00    +0.135 A 
ATOM      5  C   UNL     1      -0.016   1.402   0.016  0.00  0.00    +0.004 A 
ATOM      6  C   UNL     1      -1.220   2.084   0.028  0.00  0.00    +0.008 A 
ATOM      7  C   UNL     1       1.270   2.171   0.004  0.00  0.00    +0.080 C 
ATOM      8  C   UNL     1       1.204   3.484   0.686  0.00  0.00    +0.033 A 
ATOM      9  C   UNL     1       2.199   4.138   1.330  0.00  0.00    +0.087 A 
ATOM     10  N   UNL     1       1.867   5.364   1.857  0.00  0.00    -0.311 N 
ATOM     11  H   UNL     1       2.538   5.884   2.327  0.00  0.00    +0.170 HD
ATOM     12  C   UNL     1       0.616   5.848   1.727  0.00  0.00    +0.289 A 
ATOM     13  O   UNL     1       0.158   6.902   2.132  0.00  0.00    -0.260 OA
ATOM     14  S   UNL     1      -0.178   4.587   0.837  0.00  0.00    -0.030 S 
ATOM     15  S   UNL     1       3.825   3.423   1.468  0.00  0.00    -0.106 S 
ATOM     16  C   UNL     1       3.730   1.997   0.338  0.00  0.00    +0.095 C 
ATOM     17  C   UNL     1       2.390   1.304   0.579  0.00  0.00    +0.097 C 
ATOM     18  C   UNL     1       2.314  -0.038  -0.107  0.00  0.00    +0.321 C 
ATOM     19  O   UNL     1       3.246  -0.490  -0.730  0.00  0.00    -0.250 OA
ATOM     20  O   UNL     1       1.147  -0.706   0.016  0.00  0.00    -0.425 OA
ENDROOT
BRANCH  17  21
ATOM     21  C   UNL     1       2.174   1.121   2.082  0.00  0.00    +0.116 C 
BRANCH  21  22
ATOM     22  C   UNL     1       3.240   0.213   2.637  0.00  0.00    +0.218 C 
ATOM     23  O   UNL     1       4.090  -0.244   1.902  0.00  0.00    -0.275 OA
ATOM     24  N   UNL     1       3.250  -0.092   3.950  0.00  0.00    -0.285 N 
ATOM     25  H   UNL     1       2.611   0.325   4.549  0.00  0.00    +0.155 HD
BRANCH  24  26
ATOM     26  C   UNL     1       4.180  -1.011   4.448  0.00  0.00    +0.033 A 
ATOM     27  C   UNL     1       3.829  -1.863   5.487  0.00  0.00    +0.025 A 
ATOM     28  C   UNL     1       4.748  -2.773   5.973  0.00  0.00    +0.022 A 
ATOM     29  C   UNL     1       6.021  -2.828   5.433  0.00  0.00    +0.041 A 
ATOM     30  C   UNL     1       6.375  -1.977   4.401  0.00  0.00    +0.022 A 
ATOM     31  C   UNL     1       5.458  -1.069   3.908  0.00  0.00    +0.025 A 
ATOM     32 CL   UNL     1       7.175  -3.967   6.051  0.00  0.00    -0.084 Cl
ENDBRANCH  24  26
ENDBRANCH  21  22
ENDBRANCH  17  21
TORSDOF 3
