REMARK  Name = ZINC02650614
REMARK  12 active torsions:
REMARK  status: ('A' for Active; 'I' for Inactive)
REMARK    1  A    between atoms: C_1  and  C_2
REMARK    2  A    between atoms: C_2  and  C_4
REMARK    3  A    between atoms: C_2  and  S_20
REMARK    4  A    between atoms: C_9  and  C_12
REMARK    5  A    between atoms: S_20  and  C_21
REMARK    6  A    between atoms: C_24  and  C_26
REMARK    7  A    between atoms: C_28  and  O_36
REMARK    8  A    between atoms: C_29  and  O_34
REMARK    9  A    between atoms: C_30  and  O_32
REMARK   10  A    between atoms: O_32  and  C_33
REMARK   11  A    between atoms: O_34  and  C_35
REMARK   12  A    between atoms: O_36  and  C_37
REMARK                            x       y       z     vdW  Elec       q    Type
REMARK                         _______ _______ _______ _____ _____    ______ ____
ROOT
ATOM      1  C   UNL     1      -0.019   1.526   0.010  0.00  0.00    +0.029 C 
ATOM      2  C   UNL     1       0.002  -0.004   0.002  0.00  0.00    +0.139 C 
ENDROOT
BRANCH   2   3
ATOM      3  C   UNL     1       0.707  -0.490  -1.238  0.00  0.00    +0.232 C 
ATOM      4  O   UNL     1       1.864  -0.849  -1.176  0.00  0.00    -0.274 OA
ATOM      5  N   UNL     1       0.053  -0.526  -2.415  0.00  0.00    -0.264 N 
ATOM      6  C   UNL     1       0.703  -0.974  -3.559  0.00  0.00    +0.165 A 
ATOM      7  N   UNL     1       0.246  -1.080  -4.792  0.00  0.00    -0.225 NA
ATOM      8  C   UNL     1       1.012  -1.532  -5.774  0.00  0.00    +0.080 A 
ATOM      9  C   UNL     1       2.302  -1.896  -5.503  0.00  0.00    +0.076 A 
ATOM     10  S   UNL     1       2.383  -1.553  -3.750  0.00  0.00    -0.060 S 
ATOM     11  H   UNL     1      -0.873  -0.239  -2.465  0.00  0.00    +0.157 HD
BRANCH   8  12
ATOM     12  C   UNL     1       0.477  -1.642  -7.152  0.00  0.00    +0.002 A 
ATOM     13  C   UNL     1       1.285  -2.124  -8.180  0.00  0.00    +0.011 A 
ATOM     14  C   UNL     1       0.782  -2.225  -9.461  0.00  0.00    +0.022 A 
ATOM     15  C   UNL     1      -0.523  -1.848  -9.727  0.00  0.00    +0.059 A 
ATOM     16  C   UNL     1      -1.331  -1.368  -8.709  0.00  0.00    +0.060 A 
ATOM     17  C   UNL     1      -0.839  -1.269  -7.423  0.00  0.00    +0.031 A 
ATOM     18 CL   UNL     1      -2.967  -0.897  -9.050  0.00  0.00    -0.082 Cl
ATOM     19 CL   UNL     1      -1.149  -1.977 -11.341  0.00  0.00    -0.082 Cl
ENDBRANCH   8  12
ENDBRANCH   2   3
BRANCH   2  20
ATOM     20  S   UNL     1       0.879  -0.605   1.472  0.00  0.00    -0.053 S 
BRANCH  20  21
ATOM     21  C   UNL     1      -0.136  -0.087   2.816  0.00  0.00    +0.278 A 
ATOM     22  N   UNL     1      -1.265   0.575   2.725  0.00  0.00    -0.101 NA
ATOM     23  N   UNL     1      -1.735   0.784   3.905  0.00  0.00    -0.106 NA
ATOM     24  C   UNL     1      -0.925   0.264   4.795  0.00  0.00    +0.249 A 
ATOM     25  O   UNL     1       0.102  -0.303   4.124  0.00  0.00    -0.411 OA
BRANCH  24  26
ATOM     26  C   UNL     1      -1.104   0.288   6.261  0.00  0.00    +0.046 A 
ATOM     27  C   UNL     1      -0.151  -0.304   7.092  0.00  0.00    +0.063 A 
ATOM     28  C   UNL     1      -0.321  -0.279   8.465  0.00  0.00    +0.166 A 
ATOM     29  C   UNL     1      -1.440   0.336   9.017  0.00  0.00    +0.204 A 
ATOM     30  C   UNL     1      -2.392   0.926   8.191  0.00  0.00    +0.166 A 
ATOM     31  C   UNL     1      -2.224   0.909   6.818  0.00  0.00    +0.063 A 
BRANCH  30  32
ATOM     32  O   UNL     1      -3.485   1.526   8.735  0.00  0.00    -0.491 OA
ATOM     33  C   UNL     1      -4.421   2.112   7.828  0.00  0.00    +0.277 C 
ENDBRANCH  30  32
BRANCH  29  34
ATOM     34  O   UNL     1      -1.605   0.358  10.367  0.00  0.00    -0.488 OA
ATOM     35  C   UNL     1      -1.050   1.472  11.070  0.00  0.00    +0.277 C 
ENDBRANCH  29  34
BRANCH  28  36
ATOM     36  O   UNL     1       0.606  -0.857   9.275  0.00  0.00    -0.491 OA
ATOM     37  C   UNL     1       1.730  -1.470   8.640  0.00  0.00    +0.277 C 
ENDBRANCH  28  36
ENDBRANCH  24  26
ENDBRANCH  20  21
ENDBRANCH   2  20
TORSDOF 8
