REMARK  Name = ZINC35034028
REMARK  11 active torsions:
REMARK  status: ('A' for Active; 'I' for Inactive)
REMARK    1  A    between atoms: C_1  and  C_2
REMARK    2  A    between atoms: C_2  and  N_3
REMARK    3  A    between atoms: C_13  and  C_14
REMARK    4  A    between atoms: C_14  and  C_16
REMARK    5  A    between atoms: C_14  and  N_17
REMARK    6  A    between atoms: N_17  and  C_18
REMARK    7  A    between atoms: C_18  and  C_19
REMARK    8  A    between atoms: C_19  and  N_20
REMARK    9  A    between atoms: N_20  and  C_21
REMARK   10  A    between atoms: N_20  and  C_22
REMARK   11  A    between atoms: N_25  and  C_26
REMARK                            x       y       z     vdW  Elec       q    Type
REMARK                         _______ _______ _______ _____ _____    ______ ____
ROOT
ATOM      1  N   UNL     1      -1.990  -0.765   3.880  0.00  0.00    -0.277 N 
ATOM      2  C   UNL     1      -2.466   0.218   4.669  0.00  0.00    +0.307 C 
ATOM      3  O   UNL     1      -2.585   1.346   4.230  0.00  0.00    -0.252 OA
ATOM      4  N   UNL     1      -2.812  -0.048   5.944  0.00  0.00    -0.268 N 
ATOM      5  H   UNL     1      -2.657  -0.931   6.314  0.00  0.00    +0.156 HD
ENDROOT
BRANCH   4   6
ATOM      6  C   UNL     1      -3.394   0.951   6.734  0.00  0.00    +0.049 A 
ATOM      7  C   UNL     1      -3.113   2.287   6.485  0.00  0.00    +0.024 A 
ATOM      8  C   UNL     1      -3.688   3.270   7.267  0.00  0.00    +0.002 A 
ATOM      9  C   UNL     1      -4.544   2.924   8.296  0.00  0.00    +0.001 A 
ATOM     10  C   UNL     1      -4.827   1.594   8.548  0.00  0.00    +0.017 A 
ATOM     11  C   UNL     1      -4.258   0.606   7.766  0.00  0.00    +0.039 A 
ATOM     12 BR   UNL     1      -4.650  -1.212   8.106  0.00  0.00    -0.048 Br
ENDBRANCH   4   6
BRANCH   1  13
ATOM     13  C   UNL     1      -1.614  -0.476   2.494  0.00  0.00    +0.141 C 
ATOM     14  C   UNL     1      -2.563  -1.210   1.545  0.00  0.00    +0.036 C 
BRANCH  13  25
ATOM     15  N   UNL     1       0.749  -0.003   1.992  0.00  0.00    -0.295 N 
ATOM     16  C   UNL     1       2.033  -0.367   1.770  0.00  0.00    +0.262 A 
ATOM     17  O   UNL     1       2.895   0.463   1.544  0.00  0.00    -0.267 OA
ATOM     18  C   UNL     1       2.347  -1.802   1.815  0.00  0.00    +0.065 A 
ATOM     19  C   UNL     1       3.638  -2.281   1.601  0.00  0.00    +0.017 A 
ATOM     20  C   UNL     1       3.878  -3.626   1.654  0.00  0.00    +0.021 A 
ATOM     21  C   UNL     1       2.847  -4.521   1.918  0.00  0.00    +0.043 A 
ATOM     22  C   UNL     1       1.561  -4.072   2.133  0.00  0.00    +0.048 A 
ATOM     23  C   UNL     1       1.293  -2.703   2.084  0.00  0.00    +0.080 A 
ATOM     24  N   UNL     1       0.045  -2.214   2.290  0.00  0.00    -0.232 NA
ATOM     25  C   UNL     1      -0.201  -0.939   2.249  0.00  0.00    +0.133 A 
ATOM     26 CL   UNL     1       3.182  -6.223   1.977  0.00  0.00    -0.083 Cl
BRANCH  15  28
ATOM     27  C   UNL     1       0.435   1.988   3.377  0.00  0.00    +0.027 C 
ATOM     28  C   UNL     1       0.380   1.415   1.960  0.00  0.00    +0.123 C 
ENDBRANCH  15  28
ENDBRANCH  13  25
ENDBRANCH   1  13
BRANCH   1  29
ATOM     29  C   UNL     1      -1.847  -2.124   4.410  0.00  0.00    +0.091 C 
BRANCH  29  30
ATOM     30  C   UNL     1      -0.519  -2.243   5.158  0.00  0.00    -0.060 C 
BRANCH  30  31
ATOM     31  N   UNL     1      -0.317  -3.636   5.580  0.00  0.00    +0.377 N 
ATOM     32  C   UNL     1       1.011  -3.775   6.192  0.00  0.00    -0.097 C 
ATOM     33  C   UNL     1      -1.349  -4.006   6.558  0.00  0.00    -0.097 C 
ATOM     34  H   UNL     1      -0.382  -4.243   4.776  0.00  0.00    -0.083 HD
ENDBRANCH  30  31
ENDBRANCH  29  30
ENDBRANCH   1  29
TORSDOF 7
