REMARK  Name = ZINC12309487
REMARK  11 active torsions:
REMARK  status: ('A' for Active; 'I' for Inactive)
REMARK    1  A    between atoms: C_1  and  C_2
REMARK    2  A    between atoms: C_2  and  C_3
REMARK    3  A    between atoms: C_9  and  N_10
REMARK    4  A    between atoms: N_10  and  O_11
REMARK    5  A    between atoms: O_11  and  C_12
REMARK    6  A    between atoms: C_12  and  C_13
REMARK    7  A    between atoms: N_15  and  C_16
REMARK    8  A    between atoms: C_19  and  O_22
REMARK    9  A    between atoms: O_22  and  C_23
REMARK   10  A    between atoms: N_26  and  C_31
REMARK   11  A    between atoms: N_29  and  C_30
REMARK                            x       y       z     vdW  Elec       q    Type
REMARK                         _______ _______ _______ _____ _____    ______ ____
ROOT
ATOM      1  C   UNL     1       1.275   6.067  -0.272  0.00  0.00    -0.006 A 
ATOM      2  C   UNL     1       2.388   5.317  -0.260  0.00  0.00    +0.090 A 
ATOM      3  N   UNL     1       2.357   3.983   0.043  0.00  0.00    -0.347 N 
ATOM      4  H   UNL     1       3.292   3.449   0.273  0.00  0.00    +0.167 HD
ATOM      5  C   UNL     1       1.197   3.276   0.074  0.00  0.00    +0.129 A 
ATOM      6  C   UNL     1      -0.023   3.946   0.084  0.00  0.00    +0.106 A 
ATOM      7  C   UNL     1      -0.014   5.421   0.049  0.00  0.00    +0.082 A 
ATOM      8  C   UNL     1      -1.226   3.204   0.126  0.00  0.00    +0.268 A 
ATOM      9  O   UNL     1      -2.304   3.770   0.138  0.00  0.00    -0.267 OA
ATOM     10  N   UNL     1      -1.156   1.855   0.146  0.00  0.00    -0.263 N 
ATOM     11  C   UNL     1       0.033   1.228   0.139  0.00  0.00    +0.333 A 
ATOM     12  O   UNL     1       0.058   0.013   0.161  0.00  0.00    -0.246 OA
ATOM     13  N   UNL     1       1.195   1.905   0.101  0.00  0.00    -0.282 N 
ATOM     14  C   UNL     1       2.465   1.174   0.089  0.00  0.00    +0.155 C 
ATOM     15  C   UNL     1      -2.390   1.067   0.183  0.00  0.00    +0.157 C 
ENDROOT
BRANCH   1  17
ATOM     16  C   UNL     1       1.167   7.726  -2.112  0.00  0.00    +0.009 C 
ATOM     17  C   UNL     1       1.338   7.536  -0.603  0.00  0.00    +0.035 C 
ENDBRANCH   1  17
BRANCH   7  18
ATOM     18  N   UNL     1      -1.097   6.124   0.290  0.00  0.00    -0.264 N 
ATOM     19  H   UNL     1      -1.185   7.150  -0.096  0.00  0.00    +0.194 HD
BRANCH  18  20
ATOM     20  O   UNL     1      -2.153   5.561   1.048  0.00  0.00    -0.265 OA
BRANCH  20  21
ATOM     21  C   UNL     1      -3.267   6.436   1.232  0.00  0.00    +0.288 C 
BRANCH  21  22
ATOM     22  C   UNL     1      -4.325   5.738   2.048  0.00  0.00    +0.246 C 
ATOM     23  O   UNL     1      -4.142   4.602   2.433  0.00  0.00    -0.273 OA
ATOM     24  N   UNL     1      -5.473   6.375   2.349  0.00  0.00    -0.284 N 
ATOM     25  H   UNL     1      -5.678   7.369   1.926  0.00  0.00    +0.155 HD
BRANCH  24  26
ATOM     26  C   UNL     1      -6.407   5.770   3.201  0.00  0.00    +0.034 A 
ATOM     27  C   UNL     1      -7.766   5.969   2.996  0.00  0.00    +0.027 A 
ATOM     28  C   UNL     1      -8.685   5.370   3.833  0.00  0.00    +0.047 A 
ATOM     29  C   UNL     1      -8.252   4.577   4.886  0.00  0.00    +0.120 A 
ATOM     30  C   UNL     1      -6.894   4.382   5.095  0.00  0.00    +0.047 A 
ATOM     31  C   UNL     1      -5.974   4.977   4.255  0.00  0.00    +0.027 A 
BRANCH  29  32
ATOM     32  O   UNL     1      -9.158   3.992   5.714  0.00  0.00    -0.495 OA
ATOM     33  C   UNL     1     -10.539   4.236   5.440  0.00  0.00    +0.277 C 
ENDBRANCH  29  32
ENDBRANCH  24  26
ENDBRANCH  21  22
ENDBRANCH  20  21
ENDBRANCH  18  20
ENDBRANCH   7  18
TORSDOF 7
