REMARK  Name = ZINC13500686
REMARK  9 active torsions:
REMARK  status: ('A' for Active; 'I' for Inactive)
REMARK    1  A    between atoms: C_1  and  C_2
REMARK    2  A    between atoms: C_2  and  C_3
REMARK    3  A    between atoms: C_2  and  C_4
REMARK    4  A    between atoms: C_4  and  C_6
REMARK    5  A    between atoms: C_4  and  N_72
REMARK    6  A    between atoms: N_10  and  C_11
REMARK    7  A    between atoms: C_17  and  C_18
REMARK    8  A    between atoms: C_17  and  N_72
REMARK    9  A    between atoms: C_33  and  N_72
REMARK                            x       y       z     vdW  Elec       q    Type
REMARK                         _______ _______ _______ _____ _____    ______ ____
ROOT
ATOM      1  N   UNL     1      -0.392   0.926   0.105  0.00  0.00    +0.391 N 
ATOM      2  H   UNL     1      -1.321   0.501   0.002  0.00  0.00    -0.080 HD
ENDROOT
BRANCH   1   3
ATOM      3  C   UNL     1       0.044   0.792   1.511  0.00  0.00    -0.067 C 
ATOM      4  C   UNL     1       0.338  -0.690   1.824  0.00  0.00    -0.015 C 
ATOM      5  C   UNL     1      -0.183  -0.883   3.270  0.00  0.00    -0.002 C 
ATOM      6  C   UNL     1      -1.468  -0.017   3.290  0.00  0.00    -0.002 C 
ATOM      7  C   UNL     1      -1.103   1.220   2.443  0.00  0.00    -0.015 C 
ENDBRANCH   1   3
BRANCH   1   8
ATOM      8  C   UNL     1       0.557   0.227  -0.787  0.00  0.00    +0.006 C 
BRANCH   8   9
ATOM      9  C   UNL     1       0.339  -1.258  -0.657  0.00  0.00    +0.139 A 
ATOM     10  N   UNL     1      -0.808  -1.889  -0.714  0.00  0.00    -0.115 NA
ATOM     11  N   UNL     1      -0.579  -3.147  -0.560  0.00  0.00    -0.023 NA
ATOM     12  N   UNL     1       0.685  -3.336  -0.406  0.00  0.00    -0.044 NA
ATOM     13  N   UNL     1       1.286  -2.196  -0.466  0.00  0.00    -0.228 N 
BRANCH  13  14
ATOM     14  C   UNL     1       2.727  -1.964  -0.344  0.00  0.00    +0.111 C 
ATOM     15  C   UNL     1       3.461  -2.718  -1.454  0.00  0.00    +0.027 C 
ATOM     16  C   UNL     1       4.966  -2.477  -1.327  0.00  0.00    +0.002 C 
ATOM     17  C   UNL     1       5.450  -2.978   0.035  0.00  0.00    +0.000 C 
ATOM     18  C   UNL     1       4.716  -2.224   1.146  0.00  0.00    +0.002 C 
ATOM     19  C   UNL     1       3.211  -2.466   1.019  0.00  0.00    +0.027 C 
ENDBRANCH  13  14
ENDBRANCH   8   9
BRANCH   8  21
ATOM     20  C   UNL     1      -1.208   0.824  -2.452  0.00  0.00    +0.006 C 
ATOM     21  C   UNL     1       0.297   0.656  -2.233  0.00  0.00    -0.024 C 
ATOM     22  C   UNL     1       1.004   1.985  -2.505  0.00  0.00    +0.006 C 
ENDBRANCH   8  21
ENDBRANCH   1   8
BRANCH   1  23
ATOM     23  C   UNL     1      -0.474   2.355  -0.264  0.00  0.00    -0.036 C 
BRANCH  23  24
ATOM     24  C   UNL     1      -1.453   3.042   0.653  0.00  0.00    +0.001 A 
ATOM     25  C   UNL     1      -1.000   3.739   1.726  0.00  0.00    +0.017 A 
ATOM     26  C   UNL     1      -1.974   4.399   2.593  0.00  0.00    +0.002 A 
ATOM     27  C   UNL     1      -1.563   5.135   3.712  0.00  0.00    +0.059 A 
ATOM     28  C   UNL     1      -2.505   5.743   4.512  0.00  0.00    +0.167 A 
ATOM     29  C   UNL     1      -3.868   5.628   4.211  0.00  0.00    +0.168 A 
ATOM     30  C   UNL     1      -4.282   4.902   3.110  0.00  0.00    +0.075 A 
ATOM     31  C   UNL     1      -3.345   4.282   2.293  0.00  0.00    +0.053 A 
ATOM     32  N   UNL     1      -3.741   3.553   1.190  0.00  0.00    -0.322 N 
ATOM     33  H   UNL     1      -4.685   3.472   0.984  0.00  0.00    +0.169 HD
ATOM     34  C   UNL     1      -2.836   2.953   0.396  0.00  0.00    +0.251 A 
ATOM     35  O   UNL     1      -3.222   2.317  -0.570  0.00  0.00    -0.268 OA
ATOM     36  O   UNL     1      -4.578   6.317   5.150  0.00  0.00    -0.453 OA
ATOM     37  C   UNL     1      -3.629   7.192   5.787  0.00  0.00    +0.466 C 
ATOM     38  O   UNL     1      -2.373   6.504   5.639  0.00  0.00    -0.453 OA
ENDBRANCH  23  24
ENDBRANCH   1  23
TORSDOF 7
