REMARK  Name = ZINC63386252
REMARK  10 active torsions:
REMARK  status: ('A' for Active; 'I' for Inactive)
REMARK    1  A    between atoms: C_1  and  C_2
REMARK    2  A    between atoms: C_2  and  C_3
REMARK    3  A    between atoms: C_16  and  C_19
REMARK    4  A    between atoms: N_25  and  C_28
REMARK    5  A    between atoms: C_28  and  C_29
REMARK    6  A    between atoms: C_29  and  C_30
REMARK    7  A    between atoms: C_33  and  O_38
REMARK    8  A    between atoms: C_34  and  O_36
REMARK    9  A    between atoms: O_36  and  C_37
REMARK   10  A    between atoms: O_38  and  C_39
REMARK                            x       y       z     vdW  Elec       q    Type
REMARK                         _______ _______ _______ _____ _____    ______ ____
ROOT
ATOM      1  C   UNL     1       0.085  -0.096  -2.513  0.00  0.00    +0.070 A 
ATOM      2  H   UNL     1       2.260   1.871  -3.889  0.00  0.00    +0.173 HD
ATOM      3  C   UNL     1       0.592   0.815  -3.393  0.00  0.00    +0.259 A 
ATOM      4  N   UNL     1       1.895   1.224  -3.266  0.00  0.00    -0.275 N 
ATOM      5  C   UNL     1       2.671   0.732  -2.282  0.00  0.00    +0.332 A 
ATOM      6  O   UNL     1       3.824   1.106  -2.186  0.00  0.00    -0.246 OA
ATOM      7  N   UNL     1       2.189  -0.167  -1.404  0.00  0.00    -0.260 N 
ATOM      8  C   UNL     1       0.913  -0.591  -1.490  0.00  0.00    +0.262 A 
ATOM      9  O   UNL     1       0.480  -1.401  -0.689  0.00  0.00    -0.267 OA
ATOM     10  O   UNL     1      -0.183   1.309  -4.381  0.00  0.00    -0.267 OA
ENDROOT
BRANCH   1  22
ATOM     11  C   UNL     1      -2.007   1.773  -2.426  0.00  0.00    -0.067 C 
ATOM     12  C   UNL     1      -2.545   1.614  -0.992  0.00  0.00    +0.018 C 
ATOM     13  C   UNL     1      -1.905   0.363  -0.443  0.00  0.00    -0.041 C 
ATOM     14  C   UNL     1      -1.272   0.105   0.691  0.00  0.00    -0.001 A 
ATOM     15  C   UNL     1      -1.075   0.905   1.911  0.00  0.00    +0.010 A 
ATOM     16  C   UNL     1      -0.335   0.329   2.894  0.00  0.00    +0.001 A 
ATOM     17  C   UNL     1       0.224  -0.949   2.788  0.00  0.00    +0.002 A 
ATOM     18  C   UNL     1       0.085  -1.759   1.708  0.00  0.00    +0.026 A 
ATOM     19  C   UNL     1      -0.683  -1.267   0.613  0.00  0.00    +0.043 A 
ATOM     20  N   UNL     1      -0.998  -1.835  -0.515  0.00  0.00    -0.379 N 
ATOM     21  C   UNL     1      -1.881  -0.932  -1.250  0.00  0.00    +0.097 C 
ATOM     22  C   UNL     1      -1.343  -0.560  -2.632  0.00  0.00    -0.003 C 
ATOM     23  N   UNL     1      -2.175   0.523  -3.171  0.00  0.00    +0.387 N 
ATOM     24  H   UNL     1      -3.144   0.245  -3.132  0.00  0.00    -0.085 HD
ATOM     25  H   UNL     1      -0.698  -2.706  -0.816  0.00  0.00    +0.160 HD
ATOM     26  H   UNL     1      -1.919   0.679  -4.135  0.00  0.00    -0.085 HD
BRANCH  11  28
ATOM     27  C   UNL     1      -0.335   3.401  -1.533  0.00  0.00    +0.002 C 
ATOM     28  C   UNL     1      -0.522   2.136  -2.373  0.00  0.00    -0.019 C 
ENDBRANCH  11  28
ENDBRANCH   1  22
BRANCH   7  29
ATOM     29  C   UNL     1       3.058  -0.684  -0.344  0.00  0.00    +0.134 C 
BRANCH  29  30
ATOM     30  C   UNL     1       2.940   0.208   0.893  0.00  0.00    +0.057 C 
BRANCH  30  31
ATOM     31  C   UNL     1       3.833  -0.324   1.984  0.00  0.00    -0.042 A 
ATOM     32  C   UNL     1       3.344  -1.252   2.885  0.00  0.00    +0.007 A 
ATOM     33  C   UNL     1       4.159  -1.743   3.887  0.00  0.00    +0.049 A 
ATOM     34  C   UNL     1       5.470  -1.306   3.990  0.00  0.00    +0.161 A 
ATOM     35  C   UNL     1       5.963  -0.373   3.083  0.00  0.00    +0.162 A 
ATOM     36  C   UNL     1       5.141   0.112   2.078  0.00  0.00    +0.053 A 
BRANCH  35  37
ATOM     37  O   UNL     1       7.248   0.059   3.181  0.00  0.00    -0.491 OA
ATOM     38  C   UNL     1       7.686   1.018   2.216  0.00  0.00    +0.277 C 
ENDBRANCH  35  37
BRANCH  34  39
ATOM     39  O   UNL     1       6.273  -1.788   4.976  0.00  0.00    -0.491 OA
ATOM     40  C   UNL     1       5.700  -2.744   5.871  0.00  0.00    +0.277 C 
ENDBRANCH  34  39
ENDBRANCH  30  31
ENDBRANCH  29  30
ENDBRANCH   7  29
TORSDOF 7
