REMARK  Name = ZINC10450728
REMARK  9 active torsions:
REMARK  status: ('A' for Active; 'I' for Inactive)
REMARK    1  A    between atoms: C_3  and  C_10
REMARK    2  A    between atoms: C_5  and  N_7
REMARK    3  A    between atoms: C_11  and  C_12
REMARK    4  A    between atoms: N_14  and  C_15
REMARK    5  A    between atoms: C_15  and  N_17
REMARK    6  A    between atoms: N_17  and  N_18
REMARK    7  A    between atoms: C_19  and  C_21
REMARK    8  A    between atoms: C_21  and  O_22
REMARK    9  A    between atoms: O_22  and  C_23
REMARK                            x       y       z     vdW  Elec       q    Type
REMARK                         _______ _______ _______ _____ _____    ______ ____
ROOT
ATOM      1  C   UNL     1       6.044   6.283  -0.024  0.00  0.00    +0.153 C 
ATOM      2  S   UNL     1       7.535   5.443  -0.043  0.00  0.00    -0.017 S 
ENDROOT
BRANCH   1   5
ATOM      3  C   UNL     1       4.898   4.249  -0.023  0.00  0.00    +0.242 C 
ATOM      4  O   UNL     1       5.958   3.652  -0.037  0.00  0.00    -0.270 OA
ATOM      5  N   UNL     1       4.884   5.597  -0.016  0.00  0.00    -0.263 N 
ATOM      6  H   UNL     1       4.039   6.073  -0.006  0.00  0.00    +0.157 HD
BRANCH   3   8
ATOM      7  C   UNL     1       3.653   2.156  -0.022  0.00  0.00    +0.013 C 
ATOM      8  C   UNL     1       3.639   3.504  -0.015  0.00  0.00    +0.068 C 
BRANCH   7  11
ATOM      9  C   UNL     1      -0.017   1.380   0.010  0.00  0.00    +0.003 A 
ATOM     10  C   UNL     1       1.166   2.089   0.002  0.00  0.00    +0.008 A 
ATOM     11  C   UNL     1       2.386   1.406  -0.013  0.00  0.00    -0.023 A 
ATOM     12  C   UNL     1       2.397   0.008  -0.021  0.00  0.00    +0.040 A 
ATOM     13  C   UNL     1       1.206  -0.687  -0.013  0.00  0.00    +0.127 A 
ATOM     14  C   UNL     1       0.002  -0.004   0.002  0.00  0.00    +0.033 A 
BRANCH  13  15
ATOM     15  N   UNL     1       1.215  -2.167  -0.022  0.00  0.00    +0.056 N 
ATOM     16  O   UNL     1       2.265  -2.765  -0.035  0.00  0.00    -0.126 OA
ATOM     17  O   UNL     1       0.172  -2.778  -0.015  0.00  0.00    -0.126 OA
ENDBRANCH  13  15
ENDBRANCH   7  11
ENDBRANCH   3   8
ENDBRANCH   1   5
BRANCH   1  18
ATOM     18  N   UNL     1       6.030   7.631  -0.017  0.00  0.00    -0.245 N 
ATOM     19  H   UNL     1       6.864   8.125  -0.023  0.00  0.00    +0.172 HD
BRANCH  18  20
ATOM     20  N   UNL     1       4.809   8.318  -0.002  0.00  0.00    -0.232 N 
ATOM     21  C   UNL     1       4.795   9.666   0.005  0.00  0.00    +0.267 C 
ATOM     22  O   UNL     1       5.839  10.284  -0.002  0.00  0.00    -0.271 OA
ATOM     23  H   UNL     1       3.974   7.824   0.004  0.00  0.00    +0.173 HD
BRANCH  21  24
ATOM     24  C   UNL     1       3.482  10.406   0.022  0.00  0.00    +0.326 C 
BRANCH  24  25
ATOM     25  O   UNL     1       3.728  11.813   0.026  0.00  0.00    -0.482 OA
BRANCH  25  26
ATOM     26  C   UNL     1       2.642  12.630   0.041  0.00  0.00    +0.135 A 
ATOM     27  C   UNL     1       1.365  12.087   0.057  0.00  0.00    +0.048 A 
ATOM     28  C   UNL     1       0.262  12.919   0.072  0.00  0.00    +0.023 A 
ATOM     29  C   UNL     1       0.429  14.292   0.071  0.00  0.00    +0.042 A 
ATOM     30  C   UNL     1       1.701  14.836   0.056  0.00  0.00    +0.039 A 
ATOM     31  C   UNL     1       2.808  14.008   0.046  0.00  0.00    +0.061 A 
ATOM     32 BR   UNL     1       4.547  14.751   0.033  0.00  0.00    -0.046 Br
ATOM     33 CL   UNL     1      -0.959  15.335   0.090  0.00  0.00    -0.084 Cl
ENDBRANCH  25  26
ENDBRANCH  24  25
ENDBRANCH  21  24
ENDBRANCH  18  20
ENDBRANCH   1  18
TORSDOF 9
