REMARK  Name = ZINC39659016
REMARK  6 active torsions:
REMARK  status: ('A' for Active; 'I' for Inactive)
REMARK    1  A    between atoms: C_1  and  C_2
REMARK    2  A    between atoms: C_2  and  C_39
REMARK    3  A    between atoms: C_5  and  C_8
REMARK    4  A    between atoms: C_8  and  N_9
REMARK    5  A    between atoms: C_10  and  C_12
REMARK    6  A    between atoms: C_23  and  C_25
REMARK                            x       y       z     vdW  Elec       q    Type
REMARK                         _______ _______ _______ _____ _____    ______ ____
ROOT
ATOM      1  C   UNL     1       3.578  -1.831   5.116  0.00  0.00    +0.100 C 
ATOM      2  C   UNL     1       2.463  -1.190   5.973  0.00  0.00    +0.121 C 
ATOM      3  N   UNL     1       2.959  -1.287   7.366  0.00  0.00    -0.296 N 
ATOM      4  C   UNL     1       4.409  -0.995   7.262  0.00  0.00    +0.115 C 
ATOM      5  C   UNL     1       4.853  -1.700   5.966  0.00  0.00    -0.004 C 
ATOM      6  C   UNL     1       5.891  -0.854   5.234  0.00  0.00    -0.010 C 
ATOM      7  C   UNL     1       7.171  -0.787   6.072  0.00  0.00    -0.082 C 
ATOM      8  N   UNL     1       7.685  -2.144   6.293  0.00  0.00    +0.379 N 
ATOM      9  C   UNL     1       6.719  -2.923   7.078  0.00  0.00    -0.082 C 
ATOM     10  C   UNL     1       5.420  -3.080   6.283  0.00  0.00    -0.010 C 
ATOM     11  C   UNL     1       2.252  -1.576   8.476  0.00  0.00    +0.247 C 
ATOM     12  O   UNL     1       2.787  -1.531   9.567  0.00  0.00    -0.270 OA
ATOM     13  H   UNL     1       7.834  -2.595   5.403  0.00  0.00    -0.086 HD
ATOM     14  H   UNL     1       8.560  -2.093   6.793  0.00  0.00    -0.086 HD
ENDROOT
BRANCH  11  15
ATOM     15  C   UNL     1       0.826  -1.946   8.368  0.00  0.00    +0.045 A 
ATOM     16  C   UNL     1      -0.054  -1.149   7.626  0.00  0.00    +0.014 A 
ATOM     17  C   UNL     1      -1.384  -1.492   7.523  0.00  0.00    +0.001 A 
ATOM     18  C   UNL     1      -1.867  -2.630   8.152  0.00  0.00    +0.012 A 
ATOM     19  C   UNL     1      -1.010  -3.435   8.894  0.00  0.00    +0.031 A 
ATOM     20  C   UNL     1       0.349  -3.101   9.003  0.00  0.00    +0.006 A 
ATOM     21  C   UNL     1       1.026  -4.125   9.837  0.00  0.00    -0.006 A 
ATOM     22  C   UNL     1       2.346  -4.259  10.249  0.00  0.00    +0.009 A 
ATOM     23  C   UNL     1       2.718  -5.334  11.041  0.00  0.00    +0.001 A 
ATOM     24  C   UNL     1       1.785  -6.277  11.425  0.00  0.00    +0.001 A 
ATOM     25  C   UNL     1       0.465  -6.157  11.022  0.00  0.00    +0.012 A 
ATOM     26  C   UNL     1       0.078  -5.084  10.229  0.00  0.00    +0.030 A 
ATOM     27  C   UNL     1      -1.233  -4.684   9.662  0.00  0.00    +0.194 C 
ATOM     28  O   UNL     1      -2.286  -5.274   9.791  0.00  0.00    -0.287 OA
ENDBRANCH  11  15
BRANCH   1  30
ATOM     29  N   UNL     1       4.299  -1.694   2.754  0.00  0.00    -0.312 N 
ATOM     30  C   UNL     1       3.735  -1.086   3.816  0.00  0.00    +0.218 C 
ATOM     31  O   UNL     1       3.353   0.062   3.725  0.00  0.00    -0.275 OA
ATOM     32  H   UNL     1       4.604  -2.612   2.827  0.00  0.00    +0.149 HD
BRANCH  29  33
ATOM     33  C   UNL     1       4.452  -0.970   1.490  0.00  0.00    +0.138 C 
BRANCH  33  38
ATOM     34  C   UNL     1       3.072  -2.780  -2.107  0.00  0.00    +0.074 C 
ATOM     35  C   UNL     1       4.387  -3.082  -1.385  0.00  0.00    +0.165 C 
ATOM     36  O   UNL     1       5.405  -2.171  -1.833  0.00  0.00    -0.347 OA
ATOM     37  C   UNL     1       5.405  -1.105  -0.853  0.00  0.00    +0.196 C 
ATOM     38  C   UNL     1       5.116  -1.881   0.456  0.00  0.00    +0.164 C 
ATOM     39  O   UNL     1       4.209  -2.917   0.028  0.00  0.00    -0.342 OA
ATOM     40  C   UNL     1       4.819  -4.519  -1.684  0.00  0.00    +0.074 C 
ENDBRANCH  33  38
ENDBRANCH  29  33
ENDBRANCH   1  30
TORSDOF 4
