REMARK  Name = ZINC36564334
REMARK  17 active torsions:
REMARK  status: ('A' for Active; 'I' for Inactive)
REMARK    1  A    between atoms: C_1  and  C_2
REMARK    2  A    between atoms: C_2  and  C_3
REMARK    3  A    between atoms: C_3  and  C_4
REMARK    4  A    between atoms: C_4  and  C_5
REMARK    5  A    between atoms: C_5  and  C_7
REMARK    6  A    between atoms: C_5  and  C_9
REMARK    7  A    between atoms: C_7  and  C_8
REMARK    8  A    between atoms: N_11  and  C_12
REMARK    9  A    between atoms: N_11  and  C_15
REMARK   10  A    between atoms: C_12  and  C_13
REMARK   11  A    between atoms: C_13  and  C_14
REMARK   12  A    between atoms: C_15  and  C_17
REMARK   13  A    between atoms: C_15  and  C_26
REMARK   14  A    between atoms: C_18  and  O_25
REMARK   15  A    between atoms: C_20  and  O_24
REMARK   16  A    between atoms: C_22  and  O_23
REMARK   17  A    between atoms: N_28  and  C_29
REMARK                            x       y       z     vdW  Elec       q    Type
REMARK                         _______ _______ _______ _____ _____    ______ ____
ROOT
ATOM      1  C   UNL     1       2.812  -5.663   3.202  0.00  0.00    +0.199 C 
ENDROOT
BRANCH   1   2
ATOM      2  C   UNL     1       2.528  -6.748   4.208  0.00  0.00    +0.065 A 
ATOM      3  C   UNL     1       2.472  -6.444   5.559  0.00  0.00    +0.129 A 
ATOM      4  C   UNL     1       2.211  -7.443   6.485  0.00  0.00    +0.091 A 
ATOM      5  C   UNL     1       2.005  -8.746   6.059  0.00  0.00    +0.124 A 
ATOM      6  C   UNL     1       2.060  -9.051   4.707  0.00  0.00    +0.091 A 
ATOM      7  C   UNL     1       2.317  -8.051   3.781  0.00  0.00    +0.129 A 
BRANCH   7   8
ATOM      8  O   UNL     1       2.366  -8.348   2.456  0.00  0.00    -0.506 OA
ATOM      9  H   UNL     1       3.246  -8.597   2.141  0.00  0.00    +0.292 HD
ENDBRANCH   7   8
BRANCH   5  10
ATOM     10  O   UNL     1       1.750  -9.726   6.966  0.00  0.00    -0.507 OA
ATOM     11  H   UNL     1       0.810  -9.849   7.158  0.00  0.00    +0.292 HD
ENDBRANCH   5  10
BRANCH   3  12
ATOM     12  O   UNL     1       2.674  -5.167   5.977  0.00  0.00    -0.506 OA
ATOM     13  H   UNL     1       1.859  -4.664   6.113  0.00  0.00    +0.292 HD
ENDBRANCH   3  12
ENDBRANCH   1   2
BRANCH   1  14
ATOM     14  C   UNL     1       4.239  -5.200   3.351  0.00  0.00    +0.239 C 
ATOM     15  O   UNL     1       4.477  -4.032   3.573  0.00  0.00    -0.273 OA
ATOM     16  N   UNL     1       5.249  -6.085   3.238  0.00  0.00    -0.311 N 
ATOM     17  H   UNL     1       5.058  -7.019   3.061  0.00  0.00    +0.149 HD
BRANCH  16  18
ATOM     18  C   UNL     1       6.636  -5.636   3.383  0.00  0.00    +0.073 C 
ATOM     19  C   UNL     1       7.144  -5.107   2.040  0.00  0.00    +0.022 C 
ATOM     20  C   UNL     1       8.592  -4.637   2.192  0.00  0.00    +0.002 C 
ATOM     21  C   UNL     1       9.464  -5.811   2.640  0.00  0.00    +0.000 C 
ATOM     22  C   UNL     1       8.957  -6.340   3.983  0.00  0.00    +0.002 C 
ATOM     23  C   UNL     1       7.508  -6.810   3.832  0.00  0.00    +0.022 C 
ENDBRANCH  16  18
ENDBRANCH   1  14
BRANCH   1  26
ATOM     24  C   UNL     1       0.649  -4.571   2.950  0.00  0.00    +0.220 C 
ATOM     25  O   UNL     1      -0.125  -3.673   3.206  0.00  0.00    -0.275 OA
ATOM     26  N   UNL     1       1.906  -4.535   3.432  0.00  0.00    -0.285 N 
BRANCH  24  27
ATOM     27  C   UNL     1       0.204  -5.727   2.091  0.00  0.00    +0.075 C 
BRANCH  27  28
ATOM     28  C   UNL     1      -0.133  -5.220   0.688  0.00  0.00    +0.009 C 
ATOM     29  C   UNL     1       1.153  -4.783  -0.018  0.00  0.00    +0.004 C 
ENDBRANCH  27  28
BRANCH  27  30
ATOM     30  C   UNL     1      -1.037  -6.374   2.711  0.00  0.00    +0.013 C 
BRANCH  30  31
ATOM     31  C   UNL     1      -1.415  -7.622   1.910  0.00  0.00    +0.000 C 
BRANCH  31  33
ATOM     32  C   UNL     1      -3.033  -9.516   1.728  0.00  0.00    +0.004 C 
ATOM     33  C   UNL     1      -2.655  -8.269   2.529  0.00  0.00    -0.003 C 
ENDBRANCH  31  33
ENDBRANCH  30  31
ENDBRANCH  27  30
ENDBRANCH  24  27
BRANCH  26  34
ATOM     34  C   UNL     1       2.368  -3.367   4.188  0.00  0.00    +0.108 C 
BRANCH  34  35
ATOM     35  C   UNL     1       2.822  -2.277   3.215  0.00  0.00    +0.016 C 
ATOM     36  C   UNL     1       3.291  -1.053   4.003  0.00  0.00    +0.005 C 
ENDBRANCH  34  35
ENDBRANCH  26  34
ENDBRANCH   1  26
TORSDOF 14
