REMARK  Name = ZINC63392691
REMARK  6 active torsions:
REMARK  status: ('A' for Active; 'I' for Inactive)
REMARK    1  A    between atoms: C_1  and  C_2
REMARK    2  A    between atoms: C_5  and  C_8
REMARK    3  A    between atoms: C_11  and  C_20
REMARK    4  A    between atoms: N_13  and  C_14
REMARK    5  A    between atoms: C_20  and  C_21
REMARK    6  A    between atoms: C_21  and  C_22
REMARK                            x       y       z     vdW  Elec       q    Type
REMARK                         _______ _______ _______ _____ _____    ______ ____
ROOT
ATOM      1  C   UNL     1       0.059  -4.275  -0.021  0.00  0.00    +0.134 C 
ATOM      2  C   UNL     1      -1.342  -4.839   0.290  0.00  0.00    +0.081 C 
ATOM      3  C   UNL     1      -1.138  -5.625   1.566  0.00  0.00    +0.040 C 
ATOM      4  N   UNL     1       0.077  -5.551   1.927  0.00  0.00    -0.188 NA
ATOM      5  N   UNL     1       0.888  -4.790   1.081  0.00  0.00    -0.217 N 
ENDROOT
BRANCH   1  10
ATOM      6  C   UNL     1      -0.018   1.503   0.010  0.00  0.00    +0.044 C 
ATOM      7  C   UNL     1       0.002  -0.004   0.002  0.00  0.00    -0.050 A 
ATOM      8  C   UNL     1       0.006  -0.689  -1.199  0.00  0.00    +0.004 A 
ATOM      9  C   UNL     1       0.025  -2.071  -1.206  0.00  0.00    +0.006 A 
ATOM     10  C   UNL     1       0.040  -2.768  -0.013  0.00  0.00    -0.025 A 
ATOM     11  C   UNL     1       0.037  -2.084   1.188  0.00  0.00    +0.006 A 
ATOM     12  C   UNL     1       0.023  -0.702   1.195  0.00  0.00    +0.004 A 
ENDBRANCH   1  10
BRANCH   5  13
ATOM     13  C   UNL     1       2.253  -4.555   1.252  0.00  0.00    +0.052 A 
ATOM     14  C   UNL     1       2.945  -3.770   0.336  0.00  0.00    +0.025 A 
ATOM     15  C   UNL     1       4.295  -3.540   0.508  0.00  0.00    +0.002 A 
ATOM     16  C   UNL     1       4.960  -4.090   1.589  0.00  0.00    +0.000 A 
ATOM     17  C   UNL     1       4.276  -4.871   2.502  0.00  0.00    +0.002 A 
ATOM     18  C   UNL     1       2.924  -5.101   2.340  0.00  0.00    +0.025 A 
ENDBRANCH   5  13
BRANCH   3  19
ATOM     19  C   UNL     1      -2.216  -6.383   2.299  0.00  0.00    +0.057 C 
BRANCH  19  20
ATOM     20  C   UNL     1      -1.618  -7.046   3.541  0.00  0.00    +0.039 C 
BRANCH  20  21
ATOM     21  C   UNL     1      -2.695  -7.803   4.274  0.00  0.00    -0.041 C 
ATOM     22  C   UNL     1      -2.985  -9.119   4.160  0.00  0.00    -0.001 A 
ATOM     23  C   UNL     1      -2.407 -10.198   3.350  0.00  0.00    +0.010 A 
ATOM     24  C   UNL     1      -2.923 -11.444   3.453  0.00  0.00    +0.001 A 
ATOM     25  C   UNL     1      -3.993 -11.730   4.312  0.00  0.00    +0.002 A 
ATOM     26  C   UNL     1      -4.577 -10.792   5.087  0.00  0.00    +0.026 A 
ATOM     27  C   UNL     1      -4.114  -9.447   5.059  0.00  0.00    +0.043 A 
ATOM     28  N   UNL     1      -4.507  -8.376   5.704  0.00  0.00    -0.380 N 
ATOM     29  C   UNL     1      -3.667  -7.246   5.290  0.00  0.00    +0.144 C 
ATOM     30  H   UNL     1      -5.231  -8.336   6.349  0.00  0.00    +0.160 HD
ENDBRANCH  20  21
ENDBRANCH  19  20
ENDBRANCH   3  19
TORSDOF 5
