REMARK  Name = ZINC44707869
REMARK  8 active torsions:
REMARK  status: ('A' for Active; 'I' for Inactive)
REMARK    1  A    between atoms: C_1  and  C_2
REMARK    2  A    between atoms: C_8  and  C_12
REMARK    3  A    between atoms: C_12  and  C_13
REMARK    4  A    between atoms: C_13  and  N_14
REMARK    5  A    between atoms: C_15  and  C_17
REMARK    6  A    between atoms: C_28  and  C_30
REMARK    7  A    between atoms: C_32  and  C_36
REMARK    8  A    between atoms: N_33  and  C_35
REMARK                            x       y       z     vdW  Elec       q    Type
REMARK                         _______ _______ _______ _____ _____    ______ ____
ROOT
ATOM      1  C   UNL     1      -2.531  -2.013   7.793  0.00  0.00    +0.100 C 
ATOM      2  C   UNL     1      -2.086  -3.288   8.543  0.00  0.00    +0.121 C 
ATOM      3  N   UNL     1      -2.925  -3.317   9.764  0.00  0.00    -0.295 N 
ATOM      4  C   UNL     1      -4.259  -2.862   9.305  0.00  0.00    +0.115 C 
ATOM      5  C   UNL     1      -3.958  -1.737   8.295  0.00  0.00    -0.004 C 
ATOM      6  C   UNL     1      -4.947  -1.792   7.135  0.00  0.00    -0.010 C 
ATOM      7  C   UNL     1      -6.349  -1.457   7.649  0.00  0.00    -0.082 C 
ATOM      8  N   UNL     1      -6.345  -0.118   8.251  0.00  0.00    +0.379 N 
ATOM      9  C   UNL     1      -5.462  -0.100   9.424  0.00  0.00    -0.082 C 
ATOM     10  C   UNL     1      -4.022  -0.378   8.985  0.00  0.00    -0.010 C 
ATOM     11  C   UNL     1      -2.558  -3.675  11.011  0.00  0.00    +0.267 C 
ATOM     12  O   UNL     1      -3.369  -3.645  11.915  0.00  0.00    -0.268 OA
ATOM     13  H   UNL     1      -6.016   0.553   7.574  0.00  0.00    -0.086 HD
ATOM     14  H   UNL     1      -7.283   0.124   8.534  0.00  0.00    -0.086 HD
ENDROOT
BRANCH  11  15
ATOM     15  C   UNL     1      -1.169  -4.103  11.277  0.00  0.00    +0.147 A 
ATOM     16  C   UNL     1      -0.639  -4.510  12.524  0.00  0.00    +0.057 A 
ATOM     17  C   UNL     1       0.660  -4.806  12.285  0.00  0.00    +0.037 A 
ATOM     18  N   UNL     1       0.885  -4.587  10.972  0.00  0.00    -0.271 N 
ATOM     19  N   UNL     1      -0.191  -4.183  10.398  0.00  0.00    -0.167 NA
ATOM     20  C   UNL     1       2.171  -4.786  10.297  0.00  0.00    +0.172 C 
ATOM     21  C   UNL     1       1.667  -5.291  13.296  0.00  0.00    +0.065 C 
ENDBRANCH  11  15
BRANCH   1  23
ATOM     22  N   UNL     1      -2.321  -1.229   5.457  0.00  0.00    -0.315 N 
ATOM     23  C   UNL     1      -2.535  -2.253   6.305  0.00  0.00    +0.218 C 
ATOM     24  O   UNL     1      -2.732  -3.369   5.872  0.00  0.00    -0.275 OA
ATOM     25  H   UNL     1      -2.164  -0.337   5.803  0.00  0.00    +0.149 HD
BRANCH  22  26
ATOM     26  C   UNL     1      -2.325  -1.463   4.010  0.00  0.00    +0.109 C 
BRANCH  26  27
ATOM     27  C   UNL     1      -2.059  -0.145   3.280  0.00  0.00    +0.056 C 
BRANCH  27  35
ATOM     28  C   UNL     1      -6.949  -0.136   0.297  0.00  0.00    +0.044 C 
ATOM     29  C   UNL     1      -5.471  -0.321   0.070  0.00  0.00    -0.050 A 
ATOM     30  C   UNL     1      -4.997  -0.576  -1.210  0.00  0.00    +0.005 A 
ATOM     31  C   UNL     1      -3.650  -0.748  -1.438  0.00  0.00    +0.026 A 
ATOM     32  C   UNL     1      -2.753  -0.667  -0.378  0.00  0.00    +0.047 A 
ATOM     33  C   UNL     1      -3.238  -0.409   0.917  0.00  0.00    +0.003 A 
ATOM     34  C   UNL     1      -4.608  -0.232   1.125  0.00  0.00    +0.013 A 
ATOM     35  C   UNL     1      -2.064  -0.386   1.792  0.00  0.00    -0.021 A 
ATOM     36  C   UNL     1      -0.993  -0.619   1.018  0.00  0.00    +0.087 A 
ATOM     37  N   UNL     1      -1.385  -0.789  -0.282  0.00  0.00    -0.360 N 
ATOM     38  H   UNL     1      -0.788  -0.969  -1.025  0.00  0.00    +0.165 HD
ENDBRANCH  27  35
ENDBRANCH  26  27
ENDBRANCH  22  26
ENDBRANCH   1  23
TORSDOF 5
