REMARK  Name = ZINC06822109
REMARK  17 active torsions:
REMARK  status: ('A' for Active; 'I' for Inactive)
REMARK    1  A    between atoms: C_1  and  C_2
REMARK    2  A    between atoms: C_2  and  C_3
REMARK    3  A    between atoms: C_6  and  N_9
REMARK    4  A    between atoms: N_9  and  C_10
REMARK    5  A    between atoms: C_10  and  C_12
REMARK    6  A    between atoms: C_10  and  C_16
REMARK    7  A    between atoms: C_12  and  C_13
REMARK    8  A    between atoms: C_13  and  C_14
REMARK    9  A    between atoms: C_13  and  C_15
REMARK   10  A    between atoms: N_18  and  C_19
REMARK   11  A    between atoms: C_19  and  C_20
REMARK   12  A    between atoms: C_20  and  C_21
REMARK   13  A    between atoms: C_21  and  C_22
REMARK   14  A    between atoms: C_21  and  C_23
REMARK   15  A    between atoms: C_24  and  C_26
REMARK   16  A    between atoms: C_27  and  N_34
REMARK   17  A    between atoms: C_28  and  C_31
REMARK                            x       y       z     vdW  Elec       q    Type
REMARK                         _______ _______ _______ _____ _____    ______ ____
ROOT
ATOM      1  N   UNL     1      -2.671   3.222   4.442  0.00  0.00    -0.255 N 
ATOM      2  C   UNL     1      -3.481   2.241   4.886  0.00  0.00    +0.261 C 
ATOM      3  O   UNL     1      -4.030   2.347   5.967  0.00  0.00    -0.269 OA
ENDROOT
BRANCH   1   7
ATOM      4  C   UNL     1      -1.037   3.001   0.617  0.00  0.00    -0.048 A 
ATOM      5  C   UNL     1      -2.225   3.677   0.821  0.00  0.00    +0.005 A 
ATOM      6  C   UNL     1      -2.773   3.748   2.087  0.00  0.00    +0.024 A 
ATOM      7  C   UNL     1      -2.122   3.148   3.158  0.00  0.00    +0.037 A 
ATOM      8  C   UNL     1      -0.926   2.474   2.950  0.00  0.00    +0.024 A 
ATOM      9  C   UNL     1      -0.387   2.403   1.681  0.00  0.00    +0.005 A 
BRANCH   4  11
ATOM     10  C   UNL     1      -0.975   1.673  -1.476  0.00  0.00    +0.009 C 
ATOM     11  C   UNL     1      -0.445   2.921  -0.767  0.00  0.00    +0.032 C 
ENDBRANCH   4  11
ENDBRANCH   1   7
BRANCH   2  12
ATOM     12  C   UNL     1      -3.699   1.046   4.069  0.00  0.00    +0.116 A 
ATOM     13  C   UNL     1      -4.566  -0.027   4.284  0.00  0.00    +0.076 A 
ATOM     14  C   UNL     1      -4.494  -0.984   3.271  0.00  0.00    +0.155 A 
ATOM     15  N   UNL     1      -3.657  -0.802   2.273  0.00  0.00    -0.203 NA
ATOM     16  S   UNL     1      -2.925   0.568   2.538  0.00  0.00    +0.019 S 
BRANCH  14  17
ATOM     17  C   UNL     1      -5.341  -2.189   3.323  0.00  0.00    +0.262 C 
ATOM     18  O   UNL     1      -6.112  -2.351   4.249  0.00  0.00    -0.269 OA
ATOM     19  N   UNL     1      -5.261  -3.111   2.343  0.00  0.00    -0.324 N 
ATOM     20  H   UNL     1      -4.646  -2.982   1.604  0.00  0.00    +0.145 HD
ATOM     21  H   UNL     1      -5.819  -3.904   2.377  0.00  0.00    +0.145 HD
ENDBRANCH  14  17
BRANCH  13  22
ATOM     22  N   UNL     1      -5.410  -0.129   5.382  0.00  0.00    -0.355 N 
ATOM     23  H   UNL     1      -5.419   0.571   6.053  0.00  0.00    +0.142 HD
ATOM     24  H   UNL     1      -5.991  -0.900   5.477  0.00  0.00    +0.142 HD
ENDBRANCH  13  22
ENDBRANCH   2  12
BRANCH   1  25
ATOM     25  C   UNL     1      -2.367   4.367   5.304  0.00  0.00    +0.168 C 
BRANCH  25  26
ATOM     26  C   UNL     1      -3.636   5.123   5.601  0.00  0.00    +0.234 C 
ATOM     27  O   UNL     1      -4.691   4.744   5.139  0.00  0.00    -0.274 OA
ATOM     28  N   UNL     1      -3.599   6.222   6.381  0.00  0.00    -0.314 N 
ATOM     29  H   UNL     1      -2.755   6.526   6.751  0.00  0.00    +0.149 HD
BRANCH  28  30
ATOM     30  C   UNL     1      -4.832   6.957   6.671  0.00  0.00    +0.104 C 
BRANCH  30  31
ATOM     31  C   UNL     1      -4.514   8.153   7.571  0.00  0.00    +0.022 C 
BRANCH  31  32
ATOM     32  C   UNL     1      -5.803   8.920   7.873  0.00  0.00    -0.016 C 
ATOM     33  C   UNL     1      -6.744   8.035   8.693  0.00  0.00    +0.007 C 
ATOM     34  C   UNL     1      -5.469  10.184   8.669  0.00  0.00    +0.007 C 
ENDBRANCH  31  32
ENDBRANCH  30  31
ENDBRANCH  28  30
ENDBRANCH  25  26
BRANCH  25  35
ATOM     35  C   UNL     1      -1.750   3.870   6.613  0.00  0.00    +0.035 C 
BRANCH  35  36
ATOM     36  C   UNL     1      -0.400   3.212   6.323  0.00  0.00    -0.015 C 
ATOM     37  C   UNL     1       0.571   4.259   5.774  0.00  0.00    +0.007 C 
ATOM     38  C   UNL     1       0.166   2.619   7.615  0.00  0.00    +0.007 C 
ENDBRANCH  35  36
ENDBRANCH  25  35
ENDBRANCH   1  25
TORSDOF 12
