REMARK  Name = ZINC06181520
REMARK  10 active torsions:
REMARK  status: ('A' for Active; 'I' for Inactive)
REMARK    1  A    between atoms: C_1  and  C_2
REMARK    2  A    between atoms: C_2  and  O_3
REMARK    3  A    between atoms: O_3  and  C_4
REMARK    4  A    between atoms: C_7  and  N_10
REMARK    5  A    between atoms: N_10  and  S_11
REMARK    6  A    between atoms: S_11  and  C_14
REMARK    7  A    between atoms: C_22  and  C_26
REMARK    8  A    between atoms: N_28  and  C_29
REMARK    9  A    between atoms: C_29  and  C_31
REMARK   10  A    between atoms: C_29  and  C_32
REMARK                            x       y       z     vdW  Elec       q    Type
REMARK                         _______ _______ _______ _____ _____    ______ ____
ROOT
ATOM      1  C   UNL     1       0.690   2.181   1.337  0.00  0.00    +0.109 A 
ATOM      2  C   UNL     1       1.256   0.917   1.435  0.00  0.00    +0.031 A 
ATOM      3  C   UNL     1       2.447   0.729   2.100  0.00  0.00    +0.028 A 
ATOM      4  C   UNL     1       3.097   1.814   2.684  0.00  0.00    +0.050 A 
ATOM      5  C   UNL     1       2.522   3.092   2.583  0.00  0.00    +0.048 A 
ATOM      6  C   UNL     1       1.315   3.268   1.906  0.00  0.00    +0.042 A 
ATOM      7  C   UNL     1       3.221   4.232   3.205  0.00  0.00    +0.202 A 
ATOM      8  O   UNL     1       2.768   5.362   3.149  0.00  0.00    -0.286 OA
ATOM      9  C   UNL     1       4.488   3.947   3.897  0.00  0.00    +0.100 A 
ATOM     10  C   UNL     1       4.952   2.649   3.929  0.00  0.00    +0.100 A 
ATOM     11  N   UNL     1       4.289   1.639   3.352  0.00  0.00    -0.360 N 
ATOM     12  H   UNL     1       4.664   0.746   3.406  0.00  0.00    +0.165 HD
ENDROOT
BRANCH   9  13
ATOM     13  C   UNL     1       5.247   5.030   4.543  0.00  0.00    +0.250 C 
ATOM     14  O   UNL     1       4.828   6.171   4.508  0.00  0.00    -0.270 OA
ATOM     15  N   UNL     1       6.406   4.756   5.174  0.00  0.00    -0.305 N 
ATOM     16  H   UNL     1       6.740   3.846   5.202  0.00  0.00    +0.150 HD
BRANCH  15  17
ATOM     17  C   UNL     1       7.162   5.834   5.818  0.00  0.00    +0.100 C 
ATOM     18  C   UNL     1       8.056   6.518   4.782  0.00  0.00    +0.033 C 
BRANCH  17  19
ATOM     19  C   UNL     1       8.016   5.260   6.919  0.00  0.00    -0.027 A 
ATOM     20  C   UNL     1       8.660   4.051   6.735  0.00  0.00    +0.005 A 
ATOM     21  C   UNL     1       9.447   3.527   7.743  0.00  0.00    +0.000 A 
ATOM     22  C   UNL     1       9.582   4.208   8.939  0.00  0.00    +0.000 A 
ATOM     23  C   UNL     1       8.934   5.415   9.125  0.00  0.00    +0.000 A 
ATOM     24  C   UNL     1       8.150   5.941   8.115  0.00  0.00    +0.005 A 
ENDBRANCH  17  19
ENDBRANCH  15  17
ENDBRANCH   9  13
BRANCH   1  25
ATOM     25  S   UNL     1      -0.831   2.396   0.474  0.00  0.00    +0.072 S 
ATOM     26  O   UNL     1      -0.817   3.717  -0.051  0.00  0.00    -0.150 OA
ATOM     27  O   UNL     1      -0.997   1.250  -0.350  0.00  0.00    -0.150 OA
BRANCH  25  28
ATOM     28  N   UNL     1      -2.044   2.349   1.601  0.00  0.00    -0.216 N 
ATOM     29  H   UNL     1      -2.605   3.127   1.742  0.00  0.00    +0.174 HD
BRANCH  28  33
ATOM     30  C   UNL     1      -2.686  -1.116   3.827  0.00  0.00    +0.121 A 
ATOM     31  C   UNL     1      -2.072  -0.019   4.414  0.00  0.00    +0.047 A 
ATOM     32  C   UNL     1      -1.859   1.129   3.676  0.00  0.00    +0.028 A 
ATOM     33  C   UNL     1      -2.260   1.186   2.348  0.00  0.00    +0.048 A 
ATOM     34  C   UNL     1      -2.879   0.089   1.764  0.00  0.00    +0.028 A 
ATOM     35  C   UNL     1      -3.086  -1.061   2.500  0.00  0.00    +0.047 A 
BRANCH  30  36
ATOM     36  O   UNL     1      -2.896  -2.246   4.554  0.00  0.00    -0.492 OA
BRANCH  36  38
ATOM     37  C   UNL     1      -3.682  -4.511   4.857  0.00  0.00    +0.048 C 
ATOM     38  C   UNL     1      -3.533  -3.337   3.887  0.00  0.00    +0.225 C 
ENDBRANCH  36  38
ENDBRANCH  30  36
ENDBRANCH  28  33
ENDBRANCH  25  28
ENDBRANCH   1  25
TORSDOF 8
