REMARK  Name = ZINC22611701
REMARK  6 active torsions:
REMARK  status: ('A' for Active; 'I' for Inactive)
REMARK    1  A    between atoms: C_5  and  C_7
REMARK    2  A    between atoms: N_8  and  N_9
REMARK    3  A    between atoms: C_10  and  S_12
REMARK    4  A    between atoms: S_12  and  C_13
REMARK    5  A    between atoms: N_18  and  C_21
REMARK    6  A    between atoms: C_24  and  C_27
REMARK                            x       y       z     vdW  Elec       q    Type
REMARK                         _______ _______ _______ _____ _____    ______ ____
ROOT
ATOM      1  S   UNL     1       3.465  -6.996  -0.178  0.00  0.00    -0.078 S 
ENDROOT
BRANCH   1   2
ATOM      2  C   UNL     1       5.278  -7.058  -0.164  0.00  0.00    +0.149 C 
ATOM      3  C   UNL     1       5.770  -8.505   0.044  0.00  0.00    +0.120 C 
ATOM      4  C   UNL     1       6.552  -8.799  -1.217  0.00  0.00    +0.228 C 
ATOM      5  O   UNL     1       7.115  -9.843  -1.466  0.00  0.00    -0.275 OA
ATOM      6  N   UNL     1       6.522  -7.724  -2.014  0.00  0.00    -0.209 N 
ATOM      7  C   UNL     1       5.833  -6.683  -1.521  0.00  0.00    +0.240 C 
ATOM      8  O   UNL     1       5.679  -5.614  -2.072  0.00  0.00    -0.274 OA
BRANCH   6   9
ATOM      9  C   UNL     1       7.157  -7.688  -3.258  0.00  0.00    +0.044 A 
ATOM     10  C   UNL     1       6.692  -8.486  -4.298  0.00  0.00    +0.025 A 
ATOM     11  C   UNL     1       7.315  -8.453  -5.525  0.00  0.00    +0.017 A 
ATOM     12  C   UNL     1       8.417  -7.615  -5.726  0.00  0.00    +0.063 A 
ATOM     13  C   UNL     1       8.881  -6.814  -4.677  0.00  0.00    +0.017 A 
ATOM     14  C   UNL     1       8.249  -6.848  -3.455  0.00  0.00    +0.025 A 
BRANCH  12  15
ATOM     15  C   UNL     1       9.087  -7.577  -7.037  0.00  0.00    +0.387 C 
ATOM     16  O   UNL     1       8.680  -8.279  -7.952  0.00  0.00    -0.241 OA
ATOM     17  O   UNL     1      10.051  -6.843  -7.210  0.00  0.00    -0.241 OA
ENDBRANCH  12  15
ENDBRANCH   6   9
ENDBRANCH   1   2
BRANCH   1  19
ATOM     18  N   UNL     1       1.789  -4.857  -0.384  0.00  0.00    -0.217 N 
ATOM     19  C   UNL     1       3.098  -5.280  -0.339  0.00  0.00    +0.146 C 
ATOM     20  N   UNL     1       4.068  -4.410  -0.416  0.00  0.00    -0.380 N 
ATOM     21  H   UNL     1       1.068  -5.504  -0.327  0.00  0.00    +0.176 HD
ATOM     22  H   UNL     1       4.990  -4.708  -0.384  0.00  0.00    +0.158 HD
ATOM     23  H   UNL     1       3.866  -3.466  -0.504  0.00  0.00    +0.158 HD
BRANCH  18  25
ATOM     24  C   UNL     1       0.263  -3.094  -0.554  0.00  0.00    +0.139 C 
ATOM     25  N   UNL     1       1.497  -3.493  -0.512  0.00  0.00    -0.188 NA
BRANCH  24  30
ATOM     26  C   UNL     1      -1.651   0.119  -0.862  0.00  0.00    +0.001 A 
ATOM     27  C   UNL     1      -0.621   1.040  -0.943  0.00  0.00    +0.001 A 
ATOM     28  C   UNL     1       0.697   0.620  -0.898  0.00  0.00    +0.020 A 
ATOM     29  C   UNL     1       0.992  -0.723  -0.771  0.00  0.00    +0.050 A 
ATOM     30  C   UNL     1      -0.044  -1.658  -0.689  0.00  0.00    +0.013 A 
ATOM     31  C   UNL     1      -1.371  -1.225  -0.735  0.00  0.00    +0.011 A 
ATOM     32 CL   UNL     1       2.646  -1.249  -0.716  0.00  0.00    -0.083 Cl
ENDBRANCH  24  30
ENDBRANCH  18  25
ENDBRANCH   1  19
TORSDOF 6
