REMARK  Name = ZINC08788921
REMARK  6 active torsions:
REMARK  status: ('A' for Active; 'I' for Inactive)
REMARK    1  A    between atoms: C_1  and  O_2
REMARK    2  A    between atoms: O_2  and  C_3
REMARK    3  A    between atoms: C_6  and  C_9
REMARK    4  A    between atoms: C_9  and  N_10
REMARK    5  A    between atoms: C_15  and  C_31
REMARK    6  A    between atoms: C_31  and  C_32
REMARK                            x       y       z     vdW  Elec       q    Type
REMARK                         _______ _______ _______ _____ _____    ______ ____
ROOT
ATOM      1  N   UNL     1       0.044   7.617   2.595  0.00  0.00    -0.237 N 
ATOM      2  C   UNL     1       0.071   7.707   3.929  0.00  0.00    +0.224 C 
ATOM      3  O   UNL     1      -0.838   7.401   4.670  0.00  0.00    -0.275 OA
ATOM      4  C   UNL     1       1.412   8.247   4.369  0.00  0.00    +0.073 C 
ATOM      5  C   UNL     1       1.220   9.659   4.961  0.00  0.00    -0.053 C 
ATOM      6  C   UNL     1       2.345   9.996   2.942  0.00  0.00    +0.050 C 
ATOM      7  C   UNL     1       2.166   8.475   3.029  0.00  0.00    +0.088 C 
ATOM      8  C   UNL     1       1.166   8.023   1.988  0.00  0.00    +0.225 C 
ATOM      9  O   UNL     1       1.352   8.026   0.790  0.00  0.00    -0.275 OA
ATOM     10  C   UNL     1       2.244  10.482   1.524  0.00  0.00    -0.028 A 
ATOM     11  C   UNL     1       1.257  10.416   0.567  0.00  0.00    +0.004 A 
ATOM     12  C   UNL     1       1.467  10.970  -0.684  0.00  0.00    +0.000 A 
ATOM     13  C   UNL     1       2.670  11.590  -0.969  0.00  0.00    +0.002 A 
ATOM     14  C   UNL     1       3.661  11.659  -0.013  0.00  0.00    +0.023 A 
ATOM     15  C   UNL     1       3.458  11.105   1.249  0.00  0.00    +0.036 A 
ATOM     16  N   UNL     1       4.294  11.050   2.367  0.00  0.00    -0.286 N 
ATOM     17  C   UNL     1       3.714  10.414   3.403  0.00  0.00    +0.211 C 
ATOM     18  O   UNL     1       4.202  10.218   4.496  0.00  0.00    -0.277 OA
ATOM     19  H   UNL     1       5.188  11.425   2.393  0.00  0.00    +0.155 HD
ATOM     20  N   UNL     1       1.310  10.546   3.799  0.00  0.00    +0.394 N 
ATOM     21  H   UNL     1       1.562  11.496   4.096  0.00  0.00    -0.083 HD
ATOM     22  H   UNL     1       0.412  10.570   3.301  0.00  0.00    -0.083 HD
ENDROOT
BRANCH   1  23
ATOM     23  C   UNL     1      -1.120   7.122   1.857  0.00  0.00    +0.151 C 
BRANCH  23  27
ATOM     24  C   UNL     1      -0.787   2.892   1.346  0.00  0.00    +0.120 A 
ATOM     25  C   UNL     1      -0.253   3.751   0.396  0.00  0.00    +0.046 A 
ATOM     26  C   UNL     1      -0.368   5.117   0.561  0.00  0.00    +0.009 A 
ATOM     27  C   UNL     1      -1.003   5.630   1.677  0.00  0.00    -0.029 A 
ATOM     28  C   UNL     1      -1.531   4.776   2.628  0.00  0.00    +0.009 A 
ATOM     29  C   UNL     1      -1.425   3.409   2.465  0.00  0.00    +0.046 A 
BRANCH  24  31
ATOM     30  C   UNL     1      -0.013   1.086   0.008  0.00  0.00    +0.277 C 
ATOM     31  O   UNL     1      -0.682   1.547   1.184  0.00  0.00    -0.495 OA
ENDBRANCH  24  31
ENDBRANCH  23  27
ENDBRANCH   1  23
BRANCH   5  32
ATOM     32  C   UNL     1      -0.146   9.769   5.643  0.00  0.00    +0.022 C 
BRANCH  32  33
ATOM     33  C   UNL     1      -0.264  11.111   6.318  0.00  0.00    -0.024 A 
ATOM     34  C   UNL     1       0.003  11.383   7.605  0.00  0.00    +0.087 A 
ATOM     35  N   UNL     1      -0.219  12.710   7.857  0.00  0.00    -0.360 N 
ATOM     36  H   UNL     1      -0.094  13.142   8.716  0.00  0.00    +0.165 HD
ATOM     37  C   UNL     1      -0.645  13.339   6.709  0.00  0.00    +0.047 A 
ATOM     38  C   UNL     1      -0.686  12.367   5.693  0.00  0.00    +0.003 A 
ATOM     39  C   UNL     1      -1.082  12.723   4.403  0.00  0.00    +0.010 A 
ATOM     40  C   UNL     1      -1.425  14.018   4.132  0.00  0.00    +0.001 A 
ATOM     41  C   UNL     1      -1.382  14.982   5.130  0.00  0.00    +0.002 A 
ATOM     42  C   UNL     1      -1.001  14.650   6.412  0.00  0.00    +0.026 A 
ENDBRANCH  32  33
ENDBRANCH   5  32
TORSDOF 5
