REMARK  Name = ZINC14980785
REMARK  8 active torsions:
REMARK  status: ('A' for Active; 'I' for Inactive)
REMARK    1  A    between atoms: C_1  and  O_2
REMARK    2  A    between atoms: O_2  and  C_3
REMARK    3  A    between atoms: C_6  and  N_9
REMARK    4  A    between atoms: C_10  and  C_12
REMARK    5  A    between atoms: C_16  and  C_21
REMARK    6  A    between atoms: C_21  and  O_34
REMARK    7  A    between atoms: C_26  and  C_27
REMARK    8  A    between atoms: C_26  and  N_66
REMARK                            x       y       z     vdW  Elec       q    Type
REMARK                         _______ _______ _______ _____ _____    ______ ____
ROOT
ATOM      1  C   UNL     1     -12.189  -2.839  -2.576  0.00  0.00    +0.191 A 
ATOM      2  C   UNL     1     -10.945  -3.220  -2.967  0.00  0.00    +0.063 A 
ATOM      3  C   UNL     1     -10.077  -2.066  -2.736  0.00  0.00    +0.021 A 
ATOM      4  C   UNL     1      -8.716  -1.818  -2.928  0.00  0.00    +0.018 A 
ATOM      5  C   UNL     1      -8.197  -0.597  -2.601  0.00  0.00    -0.015 A 
ATOM      6  C   UNL     1      -9.013   0.395  -2.075  0.00  0.00    +0.010 A 
ATOM      7  C   UNL     1     -10.360   0.173  -1.884  0.00  0.00    +0.047 A 
ATOM      8  C   UNL     1     -10.910  -1.062  -2.208  0.00  0.00    +0.136 A 
ATOM      9  O   UNL     1     -12.157  -1.566  -2.131  0.00  0.00    -0.450 OA
ENDROOT
BRANCH   5  10
ATOM     10  C   UNL     1      -6.729  -0.328  -2.807  0.00  0.00    +0.088 C 
ATOM     11  C   UNL     1      -6.518   1.160  -3.102  0.00  0.00    +0.021 C 
ATOM     12  C   UNL     1      -5.021   1.438  -3.250  0.00  0.00    -0.076 C 
ATOM     13  C   UNL     1      -4.476  -0.371  -1.732  0.00  0.00    -0.076 C 
ATOM     14  C   UNL     1      -5.957  -0.703  -1.539  0.00  0.00    +0.021 C 
ATOM     15  N   UNL     1      -4.339   1.079  -1.988  0.00  0.00    +0.380 N 
ATOM     16  H   UNL     1      -4.774   1.596  -1.215  0.00  0.00    -0.082 HD
BRANCH  10  17
ATOM     17  O   UNL     1      -6.251  -1.105  -3.906  0.00  0.00    -0.384 OA
ATOM     18  H   UNL     1      -6.353  -2.060  -3.787  0.00  0.00    +0.211 HD
ENDBRANCH  10  17
BRANCH  15  19
ATOM     19  C   UNL     1      -2.909   1.445  -2.065  0.00  0.00    -0.075 C 
BRANCH  19  20
ATOM     20  C   UNL     1      -2.281   1.270  -0.681  0.00  0.00    -0.024 C 
ATOM     21  C   UNL     1      -0.774   1.547  -0.760  0.00  0.00    +0.006 C 
ATOM     22  C   UNL     1      -0.146   1.194   0.589  0.00  0.00    +0.027 C 
ATOM     23  C   UNL     1      -0.925   1.831   1.702  0.00  0.00    -0.031 C 
ATOM     24  C   UNL     1      -2.125   2.294   1.578  0.00  0.00    -0.031 C 
ATOM     25  C   UNL     1      -2.906   2.268   0.297  0.00  0.00    +0.028 C 
ENDBRANCH  19  20
ENDBRANCH  15  19
ENDBRANCH   5  10
BRANCH   1  27
ATOM     26  N   UNL     1     -14.575  -3.201  -2.214  0.00  0.00    -0.279 N 
ATOM     27  C   UNL     1     -13.389  -3.686  -2.630  0.00  0.00    +0.284 C 
ATOM     28  O   UNL     1     -13.311  -4.825  -3.050  0.00  0.00    -0.266 OA
ATOM     29  H   UNL     1     -14.624  -2.321  -1.808  0.00  0.00    +0.155 HD
BRANCH  26  33
ATOM     30  C   UNL     1     -18.036  -5.480  -2.670  0.00  0.00    +0.120 A 
ATOM     31  C   UNL     1     -17.902  -4.634  -1.578  0.00  0.00    +0.047 A 
ATOM     32  C   UNL     1     -16.756  -3.879  -1.427  0.00  0.00    +0.027 A 
ATOM     33  C   UNL     1     -15.738  -3.967  -2.366  0.00  0.00    +0.034 A 
ATOM     34  C   UNL     1     -15.875  -4.810  -3.461  0.00  0.00    +0.027 A 
ATOM     35  C   UNL     1     -17.019  -5.569  -3.609  0.00  0.00    +0.047 A 
BRANCH  30  37
ATOM     36  C   UNL     1     -19.236  -7.073  -3.966  0.00  0.00    +0.277 C 
ATOM     37  O   UNL     1     -19.165  -6.223  -2.818  0.00  0.00    -0.495 OA
ENDBRANCH  30  37
ENDBRANCH  26  33
ENDBRANCH   1  27
TORSDOF 7
