REMARK  Name = ZINC67417894
REMARK  7 active torsions:
REMARK  status: ('A' for Active; 'I' for Inactive)
REMARK    1  A    between atoms: C_1  and  C_2
REMARK    2  A    between atoms: C_2  and  C_4
REMARK    3  A    between atoms: C_2  and  N_16
REMARK    4  A    between atoms: N_9  and  C_10
REMARK    5  A    between atoms: C_20  and  C_23
REMARK    6  A    between atoms: C_23  and  N_24
REMARK    7  A    between atoms: C_25  and  C_27
REMARK                            x       y       z     vdW  Elec       q    Type
REMARK                         _______ _______ _______ _____ _____    ______ ____
ROOT
ATOM      1  C   UNL     1      -0.557   1.414   0.134  0.00  0.00    -0.004 C 
ATOM      2  C   UNL     1       0.002  -0.004   0.002  0.00  0.00    +0.017 C 
ENDROOT
BRANCH   2   3
ATOM      3  C   UNL     1       0.673  -0.401   1.292  0.00  0.00    +0.207 C 
ATOM      4  O   UNL     1       0.041  -0.974   2.153  0.00  0.00    -0.277 OA
ATOM      5  N   UNL     1       1.977  -0.120   1.487  0.00  0.00    -0.242 N 
ATOM      6  C   UNL     1       2.577  -0.475   2.640  0.00  0.00    +0.306 C 
ATOM      7  O   UNL     1       1.943  -1.049   3.504  0.00  0.00    -0.252 OA
ATOM      8  N   UNL     1       3.881  -0.194   2.836  0.00  0.00    -0.296 N 
ATOM      9  H   UNL     1       2.483   0.338   0.798  0.00  0.00    +0.159 HD
ATOM     10  H   UNL     1       4.387   0.264   2.146  0.00  0.00    +0.151 HD
BRANCH   8  11
ATOM     11  C   UNL     1       4.533  -0.581   4.089  0.00  0.00    +0.074 C 
ATOM     12  C   UNL     1       4.293   0.502   5.144  0.00  0.00    +0.022 C 
ATOM     13  C   UNL     1       4.975   0.099   6.453  0.00  0.00    +0.002 C 
ATOM     14  C   UNL     1       6.478  -0.059   6.218  0.00  0.00    +0.000 C 
ATOM     15  C   UNL     1       6.718  -1.141   5.163  0.00  0.00    +0.002 C 
ATOM     16  C   UNL     1       6.037  -0.738   3.854  0.00  0.00    +0.022 C 
ENDBRANCH   8  11
ENDBRANCH   2   3
BRANCH   2  17
ATOM     17  N   UNL     1      -1.094  -0.938  -0.287  0.00  0.00    +0.387 N 
ATOM     18  C   UNL     1      -0.559  -2.300  -0.395  0.00  0.00    -0.078 C 
ATOM     19  C   UNL     1      -1.707  -3.288  -0.616  0.00  0.00    -0.018 C 
ATOM     20  C   UNL     1      -2.445  -2.924  -1.907  0.00  0.00    +0.001 C 
ATOM     21  C   UNL     1      -2.934  -1.476  -1.813  0.00  0.00    -0.011 C 
ATOM     22  C   UNL     1      -1.741  -0.556  -1.548  0.00  0.00    -0.073 C 
ATOM     23  H   UNL     1      -1.771  -0.903   0.461  0.00  0.00    -0.081 HD
BRANCH  21  24
ATOM     24  C   UNL     1      -3.606  -1.077  -3.129  0.00  0.00    +0.105 C 
BRANCH  24  25
ATOM     25  N   UNL     1      -4.814  -1.883  -3.324  0.00  0.00    -0.315 N 
ATOM     26  C   UNL     1      -5.573  -1.704  -4.424  0.00  0.00    +0.210 C 
ATOM     27  O   UNL     1      -5.255  -0.876  -5.251  0.00  0.00    -0.276 OA
ATOM     28  C   UNL     1      -6.815  -2.532  -4.625  0.00  0.00    +0.109 C 
ATOM     29  H   UNL     1      -5.068  -2.545  -2.663  0.00  0.00    +0.149 HD
ENDBRANCH  24  25
ENDBRANCH  21  24
ENDBRANCH   2  17
TORSDOF 5
