REMARK  Name = ZINC44707859
REMARK  8 active torsions:
REMARK  status: ('A' for Active; 'I' for Inactive)
REMARK    1  A    between atoms: C_1  and  C_2
REMARK    2  A    between atoms: C_8  and  C_12
REMARK    3  A    between atoms: C_12  and  C_13
REMARK    4  A    between atoms: C_13  and  N_14
REMARK    5  A    between atoms: C_15  and  C_17
REMARK    6  A    between atoms: C_28  and  C_30
REMARK    7  A    between atoms: C_31  and  C_41
REMARK    8  A    between atoms: C_34  and  C_35
REMARK                            x       y       z     vdW  Elec       q    Type
REMARK                         _______ _______ _______ _____ _____    ______ ____
ROOT
ATOM      1  C   UNL     1      -2.531  -2.013   7.793  0.00  0.00    +0.100 C 
ATOM      2  C   UNL     1      -2.086  -3.289   8.543  0.00  0.00    +0.121 C 
ATOM      3  N   UNL     1      -2.925  -3.317   9.764  0.00  0.00    -0.296 N 
ATOM      4  C   UNL     1      -4.260  -2.863   9.305  0.00  0.00    +0.115 C 
ATOM      5  C   UNL     1      -3.958  -1.737   8.295  0.00  0.00    -0.004 C 
ATOM      6  C   UNL     1      -4.022  -0.378   8.986  0.00  0.00    -0.010 C 
ATOM      7  C   UNL     1      -5.462  -0.102   9.426  0.00  0.00    -0.082 C 
ATOM      8  N   UNL     1      -6.346  -0.120   8.254  0.00  0.00    +0.379 N 
ATOM      9  C   UNL     1      -6.350  -1.457   7.650  0.00  0.00    -0.082 C 
ATOM     10  C   UNL     1      -4.947  -1.791   7.135  0.00  0.00    -0.010 C 
ATOM     11  C   UNL     1      -2.558  -3.675  11.010  0.00  0.00    +0.252 C 
ATOM     12  O   UNL     1      -3.370  -3.646  11.915  0.00  0.00    -0.270 OA
ATOM     13  H   UNL     1      -7.283   0.123   8.537  0.00  0.00    -0.086 HD
ATOM     14  H   UNL     1      -6.018   0.553   7.577  0.00  0.00    -0.086 HD
ENDROOT
BRANCH  11  15
ATOM     15  C   UNL     1      -1.174  -4.103  11.277  0.00  0.00    +0.106 A 
ATOM     16  C   UNL     1      -0.133  -3.303  11.645  0.00  0.00    +0.147 A 
ATOM     17  O   UNL     1       0.952  -4.068  11.790  0.00  0.00    -0.359 OA
ATOM     18  N   UNL     1       0.621  -5.413  11.509  0.00  0.00    -0.077 NA
ATOM     19  C   UNL     1      -0.650  -5.474  11.202  0.00  0.00    +0.126 A 
ATOM     20  C   UNL     1      -0.196  -1.812  11.854  0.00  0.00    +0.090 C 
BRANCH  19  21
ATOM     21  C   UNL     1      -1.414  -6.694  10.844  0.00  0.00    +0.004 A 
ATOM     22  C   UNL     1      -2.750  -6.819  11.222  0.00  0.00    +0.010 A 
ATOM     23  C   UNL     1      -3.456  -7.956  10.886  0.00  0.00    +0.001 A 
ATOM     24  C   UNL     1      -2.841  -8.971  10.176  0.00  0.00    +0.000 A 
ATOM     25  C   UNL     1      -1.516  -8.853   9.799  0.00  0.00    +0.001 A 
ATOM     26  C   UNL     1      -0.801  -7.718  10.124  0.00  0.00    +0.010 A 
ENDBRANCH  19  21
ENDBRANCH  11  15
BRANCH   1  28
ATOM     27  N   UNL     1      -2.321  -1.229   5.457  0.00  0.00    -0.315 N 
ATOM     28  C   UNL     1      -2.535  -2.253   6.305  0.00  0.00    +0.218 C 
ATOM     29  O   UNL     1      -2.732  -3.369   5.872  0.00  0.00    -0.275 OA
ATOM     30  H   UNL     1      -2.164  -0.337   5.803  0.00  0.00    +0.149 HD
BRANCH  27  31
ATOM     31  C   UNL     1      -2.325  -1.463   4.010  0.00  0.00    +0.109 C 
BRANCH  31  32
ATOM     32  C   UNL     1      -2.059  -0.145   3.280  0.00  0.00    +0.056 C 
BRANCH  32  40
ATOM     33  C   UNL     1      -6.950  -0.137   0.297  0.00  0.00    +0.044 C 
ATOM     34  C   UNL     1      -5.471  -0.321   0.070  0.00  0.00    -0.050 A 
ATOM     35  C   UNL     1      -4.997  -0.576  -1.210  0.00  0.00    +0.005 A 
ATOM     36  C   UNL     1      -3.650  -0.748  -1.438  0.00  0.00    +0.026 A 
ATOM     37  C   UNL     1      -2.753  -0.667  -0.378  0.00  0.00    +0.047 A 
ATOM     38  C   UNL     1      -3.238  -0.409   0.917  0.00  0.00    +0.003 A 
ATOM     39  C   UNL     1      -4.608  -0.232   1.125  0.00  0.00    +0.013 A 
ATOM     40  C   UNL     1      -2.064  -0.386   1.792  0.00  0.00    -0.021 A 
ATOM     41  C   UNL     1      -0.993  -0.619   1.018  0.00  0.00    +0.087 A 
ATOM     42  N   UNL     1      -1.385  -0.789  -0.282  0.00  0.00    -0.360 N 
ATOM     43  H   UNL     1      -0.788  -0.969  -1.025  0.00  0.00    +0.165 HD
ENDBRANCH  32  40
ENDBRANCH  31  32
ENDBRANCH  27  31
ENDBRANCH   1  28
TORSDOF 6
