REMARK  Name = ZINC13024003
REMARK  16 active torsions:
REMARK  status: ('A' for Active; 'I' for Inactive)
REMARK    1  A    between atoms: C_1  and  C_2
REMARK    2  A    between atoms: C_2  and  C_3
REMARK    3  A    between atoms: C_3  and  C_4
REMARK    4  A    between atoms: C_3  and  C_5
REMARK    5  A    between atoms: C_3  and  N_6
REMARK    6  A    between atoms: C_7  and  C_9
REMARK    7  A    between atoms: C_9  and  C_11
REMARK    8  A    between atoms: C_9  and  N_20
REMARK    9  A    between atoms: C_14  and  C_17
REMARK   10  A    between atoms: C_17  and  C_18
REMARK   11  A    between atoms: C_17  and  C_19
REMARK   12  A    between atoms: N_20  and  C_21
REMARK   13  A    between atoms: C_21  and  C_22
REMARK   14  A    between atoms: C_22  and  N_81
REMARK   15  A    between atoms: C_28  and  C_30
REMARK   16  A    between atoms: C_30  and  N_31
REMARK                            x       y       z     vdW  Elec       q    Type
REMARK                         _______ _______ _______ _____ _____    ______ ____
ROOT
ATOM      1  N   UNL     1      -5.495   4.147  -1.863  0.00  0.00    -0.286 N 
ATOM      2  C   UNL     1      -4.205   4.487  -1.671  0.00  0.00    +0.238 C 
ATOM      3  O   UNL     1      -3.344   4.032  -2.394  0.00  0.00    -0.274 OA
ENDROOT
BRANCH   1   4
ATOM      4  C   UNL     1      -5.857   3.228  -2.945  0.00  0.00    +0.192 C 
BRANCH   4   5
ATOM      5  C   UNL     1      -6.261   1.899  -2.361  0.00  0.00    -0.018 A 
ATOM      6  C   UNL     1      -6.817   1.839  -1.097  0.00  0.00    +0.006 A 
ATOM      7  C   UNL     1      -7.191   0.620  -0.563  0.00  0.00    +0.004 A 
ATOM      8  C   UNL     1      -7.000  -0.540  -1.290  0.00  0.00    -0.045 A 
ATOM      9  C   UNL     1      -6.440  -0.481  -2.552  0.00  0.00    +0.004 A 
ATOM     10  C   UNL     1      -6.070   0.738  -3.087  0.00  0.00    +0.006 A 
BRANCH   8  11
ATOM     11  C   UNL     1      -7.403  -1.870  -0.705  0.00  0.00    +0.013 C 
ATOM     12  C   UNL     1      -6.628  -2.113   0.591  0.00  0.00    +0.012 C 
ATOM     13  C   UNL     1      -8.904  -1.863  -0.408  0.00  0.00    +0.012 C 
ENDBRANCH   8  11
ENDBRANCH   4   5
BRANCH   4  15
ATOM     14  N   UNL     1      -7.047   3.669  -5.068  0.00  0.00    -0.308 N 
ATOM     15  C   UNL     1      -7.010   3.803  -3.728  0.00  0.00    +0.238 C 
ATOM     16  O   UNL     1      -7.903   4.387  -3.152  0.00  0.00    -0.273 OA
ATOM     17  H   UNL     1      -6.332   3.202  -5.529  0.00  0.00    +0.149 HD
BRANCH  14  18
ATOM     18  C   UNL     1      -8.167   4.228  -5.830  0.00  0.00    +0.029 C 
ATOM     19  C   UNL     1      -9.474   3.589  -5.358  0.00  0.00    +0.031 C 
ATOM     20  C   UNL     1      -8.230   5.741  -5.608  0.00  0.00    +0.031 C 
BRANCH  18  22
ATOM     21  C   UNL     1      -9.136   4.523  -8.114  0.00  0.00    +0.006 C 
ATOM     22  C   UNL     1      -7.966   3.939  -7.319  0.00  0.00    +0.022 C 
ENDBRANCH  18  22
ENDBRANCH  14  18
ENDBRANCH   4  15
ENDBRANCH   1   4
BRANCH   1  23
ATOM     23  C   UNL     1      -6.535   4.696  -0.989  0.00  0.00    +0.090 C 
BRANCH  23  24
ATOM     24  C   UNL     1      -6.772   6.167  -1.340  0.00  0.00    -0.059 C 
BRANCH  24  30
ATOM     25  C   UNL     1      -9.014   6.178  -0.423  0.00  0.00    -0.050 C 
ATOM     26  C   UNL     1      -9.898   6.790   0.666  0.00  0.00    +0.141 C 
ATOM     27  O   UNL     1      -9.922   8.211   0.511  0.00  0.00    -0.383 OA
ATOM     28  C   UNL     1      -8.630   8.820   0.582  0.00  0.00    +0.141 C 
ATOM     29  C   UNL     1      -7.733   8.229  -0.509  0.00  0.00    -0.050 C 
ATOM     30  N   UNL     1      -7.661   6.765  -0.321  0.00  0.00    +0.384 N 
ATOM     31  H   UNL     1      -7.280   6.566   0.612  0.00  0.00    -0.082 HD
ENDBRANCH  24  30
ENDBRANCH  23  24
ENDBRANCH   1  23
BRANCH   2  32
ATOM     32  C   UNL     1      -3.833   5.432  -0.558  0.00  0.00    +0.241 C 
BRANCH  32  33
ATOM     33  N   UNL     1      -2.383   5.641  -0.559  0.00  0.00    -0.235 N 
ATOM     34  C   UNL     1      -1.446   4.904   0.125  0.00  0.00    +0.090 A 
ATOM     35  C   UNL     1      -1.512   3.804   0.975  0.00  0.00    +0.029 A 
ATOM     36  C   UNL     1      -0.366   3.291   1.513  0.00  0.00    +0.002 A 
ATOM     37  C   UNL     1       0.869   3.852   1.211  0.00  0.00    +0.002 A 
ATOM     38  C   UNL     1       0.962   4.927   0.377  0.00  0.00    +0.032 A 
ATOM     39  C   UNL     1      -0.199   5.475  -0.184  0.00  0.00    +0.113 A 
ATOM     40  N   UNL     1      -0.419   6.509  -1.021  0.00  0.00    -0.129 NA
ATOM     41  N   UNL     1      -1.678   6.631  -1.258  0.00  0.00    -0.064 NA
ENDBRANCH  32  33
ENDBRANCH   2  32
TORSDOF 11
