REMARK  Name = ZINC58890907
REMARK  16 active torsions:
REMARK  status: ('A' for Active; 'I' for Inactive)
REMARK    1  A    between atoms: C_1  and  C_2
REMARK    2  A    between atoms: C_2  and  C_3
REMARK    3  A    between atoms: C_2  and  C_4
REMARK    4  A    between atoms: C_2  and  C_5
REMARK    5  A    between atoms: C_7  and  C_16
REMARK    6  A    between atoms: C_9  and  C_12
REMARK    7  A    between atoms: C_10  and  O_11
REMARK    8  A    between atoms: C_12  and  C_13
REMARK    9  A    between atoms: C_12  and  C_14
REMARK   10  A    between atoms: C_12  and  C_15
REMARK   11  A    between atoms: N_17  and  N_18
REMARK   12  A    between atoms: C_19  and  C_21
REMARK   13  A    between atoms: C_21  and  C_22
REMARK   14  A    between atoms: C_22  and  C_23
REMARK   15  A    between atoms: C_23  and  C_25
REMARK   16  A    between atoms: C_23  and  O_31
REMARK                            x       y       z     vdW  Elec       q    Type
REMARK                         _______ _______ _______ _____ _____    ______ ____
ROOT
ATOM      1  C   UNL     1       2.413   0.934  -4.261  0.00  0.00    +0.138 C 
ATOM      2  N   UNL     1       3.020   0.512  -5.327  0.00  0.00    -0.188 NA
ENDROOT
BRANCH   1   5
ATOM      3  C   UNL     1       0.707  -0.490  -1.238  0.00  0.00    +0.000 A 
ATOM      4  C   UNL     1       1.215   0.418  -2.141  0.00  0.00    +0.017 A 
ATOM      5  C   UNL     1       1.869  -0.034  -3.291  0.00  0.00    -0.005 A 
ATOM      6  C   UNL     1       2.005  -1.406  -3.518  0.00  0.00    +0.017 A 
ATOM      7  C   UNL     1       1.494  -2.307  -2.609  0.00  0.00    +0.000 A 
ATOM      8  C   UNL     1       0.850  -1.853  -1.465  0.00  0.00    +0.124 A 
BRANCH   3  10
ATOM      9  C   UNL     1      -0.019   1.526   0.010  0.00  0.00    +0.015 C 
ATOM     10  C   UNL     1       0.002  -0.004   0.002  0.00  0.00    -0.009 C 
ATOM     11  C   UNL     1       0.742  -0.511   1.242  0.00  0.00    +0.015 C 
ATOM     12  C   UNL     1      -1.433  -0.534   0.013  0.00  0.00    +0.015 C 
ENDBRANCH   3  10
BRANCH   7  13
ATOM     13  C   UNL     1       1.641  -3.787  -2.853  0.00  0.00    -0.009 C 
ATOM     14  C   UNL     1       2.388  -4.015  -4.169  0.00  0.00    +0.015 C 
ATOM     15  C   UNL     1       2.428  -4.418  -1.704  0.00  0.00    +0.015 C 
ATOM     16  C   UNL     1       0.255  -4.429  -2.936  0.00  0.00    +0.015 C 
ENDBRANCH   7  13
BRANCH   8  17
ATOM     17  O   UNL     1       0.354  -2.745  -0.569  0.00  0.00    -0.506 OA
ATOM     18  H   UNL     1      -0.559  -3.011  -0.744  0.00  0.00    +0.292 HD
ENDBRANCH   8  17
ENDBRANCH   1   5
BRANCH   2  19
ATOM     19  N   UNL     1       3.537   1.432  -6.249  0.00  0.00    -0.207 N 
ATOM     20  C   UNL     1       4.167   0.994  -7.357  0.00  0.00    +0.232 C 
ATOM     21  O   UNL     1       4.287  -0.196  -7.556  0.00  0.00    -0.274 OA
ATOM     22  H   UNL     1       3.441   2.384  -6.090  0.00  0.00    +0.177 HD
BRANCH  20  23
ATOM     23  C   UNL     1       4.723   1.984  -8.348  0.00  0.00    +0.100 C 
BRANCH  23  24
ATOM     24  C   UNL     1       5.383   1.230  -9.505  0.00  0.00    +0.045 C 
BRANCH  24  25
ATOM     25  C   UNL     1       5.948   2.235 -10.512  0.00  0.00    +0.145 C 
BRANCH  25  26
ATOM     26  C   UNL     1       6.704   1.498 -11.587  0.00  0.00    -0.019 A 
ATOM     27  C   UNL     1       6.029   0.989 -12.681  0.00  0.00    +0.006 A 
ATOM     28  C   UNL     1       6.722   0.313 -13.668  0.00  0.00    +0.000 A 
ATOM     29  C   UNL     1       8.090   0.145 -13.560  0.00  0.00    +0.000 A 
ATOM     30  C   UNL     1       8.765   0.654 -12.466  0.00  0.00    +0.000 A 
ATOM     31  C   UNL     1       8.072   1.335 -11.482  0.00  0.00    +0.006 A 
ENDBRANCH  25  26
BRANCH  25  32
ATOM     32  O   UNL     1       4.875   2.971 -11.103  0.00  0.00    -0.387 OA
ATOM     33  H   UNL     1       4.235   2.422 -11.576  0.00  0.00    +0.210 HD
ENDBRANCH  25  32
ENDBRANCH  24  25
ENDBRANCH  23  24
ENDBRANCH  20  23
ENDBRANCH   2  19
TORSDOF 10
