REMARK  Name = ZINC63295412
REMARK  8 active torsions:
REMARK  status: ('A' for Active; 'I' for Inactive)
REMARK    1  A    between atoms: C_1  and  O_2
REMARK    2  A    between atoms: O_2  and  C_3
REMARK    3  A    between atoms: C_5  and  C_10
REMARK    4  A    between atoms: C_8  and  O_9
REMARK    5  A    between atoms: C_13  and  C_32
REMARK    6  A    between atoms: N_20  and  C_21
REMARK    7  A    between atoms: C_21  and  C_22
REMARK    8  A    between atoms: C_22  and  C_23
REMARK                            x       y       z     vdW  Elec       q    Type
REMARK                         _______ _______ _______ _____ _____    ______ ____
ROOT
ATOM      1  C   UNL     1       2.403   0.379  -4.230  0.00  0.00    +0.137 C 
ATOM      2  C   UNL     1       3.900   0.435  -4.074  0.00  0.00    +0.017 C 
ATOM      3  C   UNL     1       5.084   0.383  -3.490  0.00  0.00    +0.097 C 
ATOM      4  N   UNL     1       6.057   0.178  -4.426  0.00  0.00    -0.153 NA
ATOM      5  N   UNL     1       5.672   0.350  -5.593  0.00  0.00    -0.170 NA
ATOM      6  C   UNL     1       4.279   0.776  -5.532  0.00  0.00    +0.244 C 
ATOM      7  C   UNL     1       3.315  -0.074  -6.314  0.00  0.00    +0.247 C 
ATOM      8  O   UNL     1       3.494  -0.511  -7.431  0.00  0.00    -0.273 OA
ATOM      9  N   UNL     1       2.206  -0.264  -5.550  0.00  0.00    -0.288 N 
ENDROOT
BRANCH   1  12
ATOM     10  C   UNL     1       0.606  -0.608  -1.056  0.00  0.00    +0.162 A 
ATOM     11  C   UNL     1       1.173   0.159  -2.062  0.00  0.00    +0.055 A 
ATOM     12  C   UNL     1       1.787  -0.456  -3.137  0.00  0.00    -0.019 A 
ATOM     13  C   UNL     1       1.837  -1.836  -3.212  0.00  0.00    +0.009 A 
ATOM     14  C   UNL     1       1.273  -2.606  -2.212  0.00  0.00    +0.049 A 
ATOM     15  C   UNL     1       0.662  -1.996  -1.129  0.00  0.00    +0.158 A 
BRANCH  10  17
ATOM     16  C   UNL     1      -0.017   1.425   0.010  0.00  0.00    +0.277 C 
ATOM     17  O   UNL     1       0.002  -0.004   0.002  0.00  0.00    -0.491 OA
ENDBRANCH  10  17
BRANCH  15  18
ATOM     18  O   UNL     1       0.112  -2.753  -0.142  0.00  0.00    -0.503 OA
ATOM     19  H   UNL     1      -0.816  -2.979  -0.291  0.00  0.00    +0.292 HD
ENDBRANCH  15  18
ENDBRANCH   1  12
BRANCH   3  20
ATOM     20  C   UNL     1       5.321   0.528  -2.033  0.00  0.00    +0.002 A 
ATOM     21  C   UNL     1       4.249   0.730  -1.166  0.00  0.00    +0.010 A 
ATOM     22  C   UNL     1       4.476   0.864   0.189  0.00  0.00    +0.001 A 
ATOM     23  C   UNL     1       5.765   0.798   0.686  0.00  0.00    +0.000 A 
ATOM     24  C   UNL     1       6.833   0.597  -0.169  0.00  0.00    +0.001 A 
ATOM     25  C   UNL     1       6.617   0.457  -1.525  0.00  0.00    +0.010 A 
ENDBRANCH   3  20
BRANCH   9  26
ATOM     26  C   UNL     1       1.005  -0.993  -5.964  0.00  0.00    +0.113 C 
BRANCH  26  27
ATOM     27  C   UNL     1       0.021  -0.024  -6.620  0.00  0.00    +0.052 C 
BRANCH  27  28
ATOM     28  C   UNL     1      -1.215  -0.774  -7.047  0.00  0.00    -0.040 C 
ATOM     29  C   UNL     1      -2.369  -0.901  -6.354  0.00  0.00    -0.001 A 
ATOM     30  C   UNL     1      -2.803  -0.399  -5.044  0.00  0.00    +0.010 A 
ATOM     31  C   UNL     1      -4.047  -0.699  -4.606  0.00  0.00    +0.001 A 
ATOM     32  C   UNL     1      -4.929  -1.476  -5.369  0.00  0.00    +0.002 A 
ATOM     33  C   UNL     1      -4.603  -1.973  -6.581  0.00  0.00    +0.026 A 
ATOM     34  C   UNL     1      -3.320  -1.719  -7.140  0.00  0.00    +0.043 A 
ATOM     35  N   UNL     1      -2.775  -2.083  -8.275  0.00  0.00    -0.380 N 
ATOM     36  C   UNL     1      -1.417  -1.532  -8.340  0.00  0.00    +0.144 C 
ATOM     37  H   UNL     1      -3.200  -2.624  -8.959  0.00  0.00    +0.160 HD
ENDBRANCH  27  28
ENDBRANCH  26  27
ENDBRANCH   9  26
TORSDOF 7
