REMARK  Name = ZINC35877085
REMARK  4 active torsions:
REMARK  status: ('A' for Active; 'I' for Inactive)
REMARK    1  A    between atoms: C_1  and  C_2
REMARK    2  A    between atoms: C_2  and  C_3
REMARK    3  A    between atoms: C_23  and  C_31
REMARK    4  A    between atoms: C_31  and  C_33
REMARK                            x       y       z     vdW  Elec       q    Type
REMARK                         _______ _______ _______ _____ _____    ______ ____
ROOT
ATOM      1  C   UNL     1       0.660  -0.499   1.213  0.00  0.00    -0.026 A 
ATOM      2  C   UNL     1       2.001  -0.809   1.117  0.00  0.00    +0.005 A 
ATOM      3  C   UNL     1       2.691  -1.273   2.221  0.00  0.00    +0.001 A 
ATOM      4  C   UNL     1       2.034  -1.427   3.430  0.00  0.00    +0.004 A 
ATOM      5  C   UNL     1       0.696  -1.118   3.529  0.00  0.00    -0.026 A 
ATOM      6  C   UNL     1      -0.008  -0.645   2.427  0.00  0.00    +0.039 A 
ATOM      7  N   UNL     1      -1.337  -0.397   2.773  0.00  0.00    -0.286 N 
ATOM      8  C   UNL     1      -1.585  -0.669   4.068  0.00  0.00    +0.212 C 
ATOM      9  O   UNL     1      -2.646  -0.547   4.642  0.00  0.00    -0.277 OA
ATOM     10  C   UNL     1      -0.292  -1.168   4.665  0.00  0.00    +0.060 C 
ATOM     11  C   UNL     1      -0.432  -2.581   5.216  0.00  0.00    +0.085 C 
ATOM     12  C   UNL     1      -1.871  -2.973   5.403  0.00  0.00    -0.011 A 
ATOM     13  C   UNL     1      -2.910  -2.441   6.132  0.00  0.00    +0.006 A 
ATOM     14  C   UNL     1      -4.156  -3.042   6.103  0.00  0.00    +0.000 A 
ATOM     15  C   UNL     1      -4.353  -4.180   5.341  0.00  0.00    +0.002 A 
ATOM     16  C   UNL     1      -3.314  -4.717   4.609  0.00  0.00    +0.023 A 
ATOM     17  C   UNL     1      -2.057  -4.117   4.633  0.00  0.00    +0.038 A 
ATOM     18  N   UNL     1      -0.868  -4.464   3.988  0.00  0.00    -0.285 N 
ATOM     19  C   UNL     1       0.134  -3.612   4.277  0.00  0.00    +0.228 C 
ATOM     20  O   UNL     1       1.272  -3.665   3.861  0.00  0.00    -0.275 OA
ATOM     21  C   UNL     1       0.322  -2.573   6.554  0.00  0.00    +0.066 C 
ATOM     22  C   UNL     1       0.256  -1.101   6.995  0.00  0.00    -0.055 C 
ATOM     23  N   UNL     1       0.135  -0.287   5.764  0.00  0.00    +0.395 N 
ATOM     24  C   UNL     1       1.502   0.207   5.456  0.00  0.00    -0.076 C 
ATOM     25  C   UNL     1       2.133   0.458   6.846  0.00  0.00    -0.020 C 
ATOM     26  C   UNL     1       1.551  -0.702   7.715  0.00  0.00    -0.016 C 
ATOM     27  H   UNL     1      -2.005  -0.066   2.153  0.00  0.00    +0.155 HD
ATOM     28  H   UNL     1      -0.774  -5.230   3.401  0.00  0.00    +0.155 HD
ATOM     29  H   UNL     1      -0.518   0.471   5.894  0.00  0.00    -0.079 HD
ENDROOT
BRANCH   1  31
ATOM     30  C   UNL     1      -0.096   1.536   0.014  0.00  0.00    +0.009 C 
ATOM     31  C   UNL     1      -0.083   0.006   0.003  0.00  0.00    +0.033 C 
ENDBRANCH   1  31
BRANCH  21  32
ATOM     32  C   UNL     1      -0.367  -3.462   7.557  0.00  0.00    +0.167 C 
ATOM     33  O   UNL     1      -1.165  -2.990   8.338  0.00  0.00    -0.292 OA
BRANCH  32  34
ATOM     34  C   UNL     1      -0.072  -4.903   7.587  0.00  0.00    +0.036 A 
ATOM     35  C   UNL     1       0.934  -5.432   6.772  0.00  0.00    +0.013 A 
ATOM     36  C   UNL     1       1.205  -6.783   6.806  0.00  0.00    +0.001 A 
ATOM     37  C   UNL     1       0.484  -7.617   7.644  0.00  0.00    +0.001 A 
ATOM     38  C   UNL     1      -0.512  -7.103   8.454  0.00  0.00    +0.021 A 
ATOM     39  C   UNL     1      -0.792  -5.751   8.436  0.00  0.00    +0.051 A 
ATOM     40 CL   UNL     1      -2.038  -5.106   9.459  0.00  0.00    -0.083 Cl
ENDBRANCH  32  34
ENDBRANCH  21  32
TORSDOF 3
