REMARK  Name = ZINC40120915
REMARK  9 active torsions:
REMARK  status: ('A' for Active; 'I' for Inactive)
REMARK    1  A    between atoms: C_1  and  C_2
REMARK    2  A    between atoms: C_2  and  C_4
REMARK    3  A    between atoms: C_2  and  N_18
REMARK    4  A    between atoms: N_6  and  C_7
REMARK    5  A    between atoms: C_7  and  C_8
REMARK    6  A    between atoms: C_8  and  N_15
REMARK    7  A    between atoms: N_15  and  C_16
REMARK    8  A    between atoms: N_15  and  C_17
REMARK    9  A    between atoms: C_19  and  C_21
REMARK                            x       y       z     vdW  Elec       q    Type
REMARK                         _______ _______ _______ _____ _____    ______ ____
ROOT
ATOM      1  C   UNL     1      -2.093  -2.637  -0.387  0.00  0.00    +0.233 C 
ATOM      2  O   UNL     1      -2.027  -2.182   0.736  0.00  0.00    -0.274 OA
ATOM      3  N   UNL     1      -2.849  -2.024  -1.319  0.00  0.00    -0.315 N 
ATOM      4  H   UNL     1      -2.901  -2.388  -2.217  0.00  0.00    +0.149 HD
ENDROOT
BRANCH   1   6
ATOM      5  C   UNL     1      -0.345  -3.583  -1.870  0.00  0.00    +0.038 C 
ATOM      6  C   UNL     1      -1.329  -3.888  -0.738  0.00  0.00    +0.156 C 
BRANCH   6   7
ATOM      7  N   UNL     1      -0.591  -4.356   0.437  0.00  0.00    -0.300 N 
ATOM      8  C   UNL     1      -0.259  -5.657   0.550  0.00  0.00    +0.246 C 
ATOM      9  O   UNL     1      -0.572  -6.442  -0.324  0.00  0.00    -0.270 OA
ATOM     10  H   UNL     1      -0.342  -3.730   1.135  0.00  0.00    +0.150 HD
BRANCH   8  11
ATOM     11  C   UNL     1       0.485  -6.130   1.736  0.00  0.00    +0.056 A 
ATOM     12  C   UNL     1       0.841  -5.232   2.744  0.00  0.00    +0.014 A 
ATOM     13  C   UNL     1       1.536  -5.679   3.849  0.00  0.00    +0.002 A 
ATOM     14  C   UNL     1       1.881  -7.014   3.961  0.00  0.00    +0.021 A 
ATOM     15  C   UNL     1       1.533  -7.911   2.966  0.00  0.00    +0.060 A 
ATOM     16  C   UNL     1       0.831  -7.478   1.856  0.00  0.00    +0.071 A 
ATOM     17 CL   UNL     1       0.388  -8.605   0.612  0.00  0.00    -0.081 Cl
ATOM     18 CL   UNL     1       1.972  -9.584   3.115  0.00  0.00    -0.082 Cl
ENDBRANCH   8  11
ENDBRANCH   6   7
ENDBRANCH   1   6
BRANCH   3  19
ATOM     19  C   UNL     1      -3.591  -0.809  -0.977  0.00  0.00    +0.092 C 
BRANCH  19  20
ATOM     20  C   UNL     1      -4.231  -0.229  -2.241  0.00  0.00    -0.050 C 
ATOM     21  C   UNL     1      -4.135   1.272  -2.213  0.00  0.00    -0.010 C 
ATOM     22  C   UNL     1      -4.041   1.830  -0.780  0.00  0.00    -0.001 C 
ATOM     23  C   UNL     1      -4.992   1.120   0.202  0.00  0.00    -0.000 C 
ATOM     24  C   UNL     1      -6.349   0.861  -0.396  0.00  0.00    -0.000 C 
ATOM     25  C   UNL     1      -6.359  -0.563  -0.989  0.00  0.00    -0.001 C 
ATOM     26  C   UNL     1      -5.721  -0.625  -2.295  0.00  0.00    -0.010 C 
BRANCH  20  27
ATOM     27  N   UNL     1      -3.538  -0.750  -3.427  0.00  0.00    +0.381 N 
ATOM     28  C   UNL     1      -4.122  -0.152  -4.636  0.00  0.00    -0.096 C 
ATOM     29  C   UNL     1      -2.112  -0.407  -3.352  0.00  0.00    -0.096 C 
ATOM     30  H   UNL     1      -3.642  -1.753  -3.464  0.00  0.00    -0.082 HD
ENDBRANCH  20  27
ENDBRANCH  19  20
ENDBRANCH   3  19
TORSDOF 6
