REMARK  Name = ZINC41630235
REMARK  6 active torsions:
REMARK  status: ('A' for Active; 'I' for Inactive)
REMARK    1  A    between atoms: C_1  and  C_2
REMARK    2  A    between atoms: C_12  and  C_14
REMARK    3  A    between atoms: C_14  and  C_16
REMARK    4  A    between atoms: C_14  and  S_17
REMARK    5  A    between atoms: S_17  and  C_18
REMARK    6  A    between atoms: C_24  and  N_26
REMARK                            x       y       z     vdW  Elec       q    Type
REMARK                         _______ _______ _______ _____ _____    ______ ____
ROOT
ATOM      1  C   UNL     1      -0.018   1.503   0.010  0.00  0.00    +0.044 C 
ATOM      2  C   UNL     1       0.002  -0.004   0.002  0.00  0.00    -0.049 A 
ATOM      3  C   UNL     1       0.006  -0.698  -1.199  0.00  0.00    +0.005 A 
ATOM      4  C   UNL     1       0.024  -2.068  -1.235  0.00  0.00    +0.029 A 
ATOM      5  C   UNL     1       0.040  -2.822  -0.038  0.00  0.00    +0.080 A 
ATOM      6  C   UNL     1       0.036  -2.081   1.166  0.00  0.00    +0.041 A 
ATOM      7  C   UNL     1       0.023  -0.709   1.191  0.00  0.00    +0.020 A 
ATOM      8  S   UNL     1       0.059  -3.361   2.397  0.00  0.00    -0.052 S 
ATOM      9  C   UNL     1       0.073  -4.752   1.275  0.00  0.00    +0.165 A 
ATOM     10  N   UNL     1       0.059  -4.165   0.101  0.00  0.00    -0.225 NA
ATOM     11  N   UNL     1       0.093  -6.106   1.569  0.00  0.00    -0.264 N 
ATOM     12  C   UNL     1       0.101  -7.012   0.571  0.00  0.00    +0.232 C 
ATOM     13  O   UNL     1       0.090  -6.643  -0.584  0.00  0.00    -0.274 OA
ATOM     14  H   UNL     1       0.101  -6.402   2.493  0.00  0.00    +0.157 HD
ENDROOT
BRANCH  12  15
ATOM     15  C   UNL     1       0.122  -8.485   0.891  0.00  0.00    +0.137 C 
ATOM     16  C   UNL     1      -1.307  -8.976   1.129  0.00  0.00    +0.029 C 
BRANCH  15  17
ATOM     17  S   UNL     1       0.851  -9.395  -0.499  0.00  0.00    -0.075 S 
BRANCH  17  18
ATOM     18  C   UNL     1       0.942 -11.056   0.080  0.00  0.00    +0.171 A 
ATOM     19  N   UNL     1       1.457 -12.020  -0.733  0.00  0.00    -0.302 N 
ATOM     20  H   UNL     1       1.770 -11.786  -1.621  0.00  0.00    +0.171 HD
ATOM     21  C   UNL     1       1.534 -13.297  -0.306  0.00  0.00    +0.254 A 
ATOM     22  O   UNL     1       1.996 -14.167  -1.029  0.00  0.00    -0.268 OA
ATOM     23  C   UNL     1       1.077 -13.609   0.978  0.00  0.00    +0.113 A 
ATOM     24  C   UNL     1       0.560 -12.591   1.768  0.00  0.00    +0.124 A 
ATOM     25  N   UNL     1       0.514 -11.341   1.293  0.00  0.00    -0.209 NA
BRANCH  24  26
ATOM     26  N   UNL     1       0.100 -12.867   3.040  0.00  0.00    -0.343 N 
ATOM     27  H   UNL     1       0.139 -13.773   3.383  0.00  0.00    +0.144 HD
ATOM     28  H   UNL     1      -0.261 -12.154   3.590  0.00  0.00    +0.144 HD
ENDBRANCH  24  26
ENDBRANCH  17  18
ENDBRANCH  15  17
ENDBRANCH  12  15
TORSDOF 4
