REMARK  Name = ZINC10731301
REMARK  11 active torsions:
REMARK  status: ('A' for Active; 'I' for Inactive)
REMARK    1  A    between atoms: C_1  and  C_2
REMARK    2  A    between atoms: C_2  and  O_3
REMARK    3  A    between atoms: O_3  and  C_4
REMARK    4  A    between atoms: C_7  and  N_10
REMARK    5  A    between atoms: C_11  and  C_13
REMARK    6  A    between atoms: C_16  and  N_19
REMARK    7  A    between atoms: C_20  and  C_22
REMARK    8  A    between atoms: C_22  and  O_23
REMARK    9  A    between atoms: O_23  and  C_24
REMARK   10  A    between atoms: C_24  and  C_26
REMARK   11  A    between atoms: C_31  and  N_32
REMARK                            x       y       z     vdW  Elec       q    Type
REMARK                         _______ _______ _______ _____ _____    ______ ____
ROOT
ATOM      1  C   UNL     1       0.623  -7.931  -3.208  0.00  0.00    +0.037 A 
ATOM      2  C   UNL     1       0.046  -8.826  -2.303  0.00  0.00    +0.015 A 
ATOM      3  C   UNL     1       0.152 -10.182  -2.515  0.00  0.00    +0.024 A 
ATOM      4  C   UNL     1       0.833 -10.663  -3.628  0.00  0.00    +0.034 A 
ATOM      5  C   UNL     1       1.409  -9.775  -4.532  0.00  0.00    +0.024 A 
ATOM      6  C   UNL     1       1.301  -8.418  -4.330  0.00  0.00    +0.015 A 
ENDROOT
BRANCH   1   8
ATOM      7  N   UNL     1      -0.142  -6.010  -1.903  0.00  0.00    -0.281 N 
ATOM      8  C   UNL     1       0.512  -6.477  -2.985  0.00  0.00    +0.248 C 
ATOM      9  O   UNL     1       1.011  -5.700  -3.776  0.00  0.00    -0.270 OA
ATOM     10  H   UNL     1      -0.469  -6.627  -1.230  0.00  0.00    +0.155 HD
BRANCH   7  14
ATOM     11  C   UNL     1      -0.758  -1.912  -1.449  0.00  0.00    +0.121 A 
ATOM     12  C   UNL     1      -0.553  -2.710  -0.333  0.00  0.00    +0.047 A 
ATOM     13  C   UNL     1      -0.349  -4.067  -0.482  0.00  0.00    +0.027 A 
ATOM     14  C   UNL     1      -0.349  -4.633  -1.750  0.00  0.00    +0.034 A 
ATOM     15  C   UNL     1      -0.555  -3.834  -2.867  0.00  0.00    +0.027 A 
ATOM     16  C   UNL     1      -0.764  -2.477  -2.716  0.00  0.00    +0.047 A 
BRANCH  11  17
ATOM     17  O   UNL     1      -0.960  -0.575  -1.301  0.00  0.00    -0.492 OA
BRANCH  17  19
ATOM     18  C   UNL     1      -1.184   1.450  -0.002  0.00  0.00    +0.048 C 
ATOM     19  C   UNL     1      -0.941  -0.060   0.032  0.00  0.00    +0.225 C 
ENDBRANCH  17  19
ENDBRANCH  11  17
ENDBRANCH   7  14
ENDBRANCH   1   8
BRANCH   4  20
ATOM     20  N   UNL     1       0.939 -12.037  -3.840  0.00  0.00    -0.283 N 
ATOM     21  C   UNL     1       1.037 -12.874  -2.788  0.00  0.00    +0.255 C 
ATOM     22  O   UNL     1       1.120 -12.429  -1.663  0.00  0.00    -0.272 OA
ATOM     23  H   UNL     1       0.942 -12.390  -4.743  0.00  0.00    +0.155 HD
BRANCH  21  24
ATOM     24  C   UNL     1       1.043 -14.365  -3.010  0.00  0.00    +0.328 C 
BRANCH  24  25
ATOM     25  O   UNL     1       1.155 -15.034  -1.752  0.00  0.00    -0.452 OA
BRANCH  25  26
ATOM     26  C   UNL     1       1.175 -16.381  -1.775  0.00  0.00    +0.341 C 
ATOM     27  O   UNL     1       1.099 -16.972  -2.835  0.00  0.00    -0.245 OA
BRANCH  26  28
ATOM     28  C   UNL     1       1.289 -17.137  -0.517  0.00  0.00    +0.080 A 
ATOM     29  C   UNL     1       1.248 -16.469   0.711  0.00  0.00    +0.018 A 
ATOM     30  C   UNL     1       1.354 -17.182   1.884  0.00  0.00    +0.021 A 
ATOM     31  C   UNL     1       1.502 -18.561   1.856  0.00  0.00    +0.043 A 
ATOM     32  C   UNL     1       1.544 -19.235   0.651  0.00  0.00    +0.043 A 
ATOM     33  C   UNL     1       1.433 -18.534  -0.543  0.00  0.00    +0.040 A 
ATOM     34 CL   UNL     1       1.635 -19.445   3.344  0.00  0.00    -0.083 Cl
BRANCH  33  35
ATOM     35  N   UNL     1       1.469 -19.209  -1.755  0.00  0.00    -0.357 N 
ATOM     36  H   UNL     1       1.560 -18.714  -2.584  0.00  0.00    +0.142 HD
ATOM     37  H   UNL     1       1.403 -20.177  -1.773  0.00  0.00    +0.142 HD
ENDBRANCH  33  35
ENDBRANCH  26  28
ENDBRANCH  25  26
ENDBRANCH  24  25
ENDBRANCH  21  24
ENDBRANCH   4  20
TORSDOF 10
