REMARK  Name = ZINC36075056
REMARK  13 active torsions:
REMARK  status: ('A' for Active; 'I' for Inactive)
REMARK    1  A    between atoms: C_1  and  C_2
REMARK    2  A    between atoms: C_7  and  N_12
REMARK    3  A    between atoms: C_9  and  C_11
REMARK    4  A    between atoms: N_12  and  C_13
REMARK    5  A    between atoms: C_13  and  C_14
REMARK    6  A    between atoms: N_16  and  C_17
REMARK    7  A    between atoms: C_20  and  N_36
REMARK    8  A    between atoms: C_22  and  C_23
REMARK    9  A    between atoms: N_25  and  C_26
REMARK   10  A    between atoms: C_28  and  O_34
REMARK   11  A    between atoms: C_30  and  O_32
REMARK   12  A    between atoms: O_32  and  C_33
REMARK   13  A    between atoms: O_34  and  C_35
REMARK                            x       y       z     vdW  Elec       q    Type
REMARK                         _______ _______ _______ _____ _____    ______ ____
ROOT
ATOM      1  C   UNL     1       3.329  -6.207   4.813  0.00  0.00    +0.046 A 
ATOM      2  C   UNL     1       3.720  -5.277   5.767  0.00  0.00    +0.026 A 
ATOM      3  C   UNL     1       4.441  -5.681   6.873  0.00  0.00    +0.034 A 
ATOM      4  C   UNL     1       4.780  -7.015   7.040  0.00  0.00    +0.127 A 
ATOM      5  C   UNL     1       4.401  -7.952   6.103  0.00  0.00    +0.047 A 
ATOM      6  C   UNL     1       3.666  -7.559   4.982  0.00  0.00    +0.060 A 
ENDROOT
BRANCH   1   9
ATOM      7  C   UNL     1       1.848  -4.686   3.753  0.00  0.00    +0.200 C 
ATOM      8  O   UNL     1       1.720  -4.093   4.803  0.00  0.00    -0.278 OA
ATOM      9  N   UNL     1       2.602  -5.802   3.697  0.00  0.00    -0.286 N 
ATOM     10  H   UNL     1       2.638  -6.322   2.879  0.00  0.00    +0.155 HD
BRANCH   7  11
ATOM     11  C   UNL     1       1.164  -4.176   2.511  0.00  0.00    +0.016 C 
BRANCH  11  12
ATOM     12  N   UNL     1       0.410  -2.957   2.833  0.00  0.00    +0.387 N 
ATOM     13  H   UNL     1       1.042  -2.252   3.182  0.00  0.00    -0.085 HD
ATOM     14  H   UNL     1      -0.283  -3.166   3.537  0.00  0.00    -0.085 HD
BRANCH  12  20
ATOM     15  C   UNL     1      -2.316   0.729   0.972  0.00  0.00    +0.008 C 
ATOM     16  C   UNL     1      -1.634  -0.606   0.667  0.00  0.00    -0.013 C 
ATOM     17  C   UNL     1      -2.683  -1.622   0.208  0.00  0.00    +0.003 C 
ATOM     18  C   UNL     1      -2.001  -2.957  -0.097  0.00  0.00    -0.001 C 
ATOM     19  C   UNL     1      -1.306  -3.475   1.164  0.00  0.00    -0.015 C 
ATOM     20  C   UNL     1      -0.257  -2.459   1.622  0.00  0.00    -0.068 C 
ATOM     21  C   UNL     1      -0.939  -1.124   1.928  0.00  0.00    -0.025 C 
ATOM     22  C   UNL     1      -1.976  -1.323   3.036  0.00  0.00    +0.006 C 
ENDBRANCH  12  20
ENDBRANCH  11  12
ENDBRANCH   7  11
ENDBRANCH   1   9
BRANCH   6  23
ATOM     23  C   UNL     1       3.251  -8.558   3.979  0.00  0.00    +0.250 C 
ATOM     24  O   UNL     1       2.695  -8.200   2.959  0.00  0.00    -0.270 OA
ATOM     25  N   UNL     1       3.490  -9.867   4.194  0.00  0.00    -0.281 N 
ATOM     26  H   UNL     1       4.006 -10.146   4.966  0.00  0.00    +0.155 HD
BRANCH  25  27
ATOM     27  C   UNL     1       2.992 -10.823   3.303  0.00  0.00    +0.041 A 
ATOM     28  C   UNL     1       3.625 -12.052   3.179  0.00  0.00    +0.069 A 
ATOM     29  C   UNL     1       3.131 -13.000   2.296  0.00  0.00    +0.125 A 
ATOM     30  C   UNL     1       2.005 -12.720   1.536  0.00  0.00    +0.091 A 
ATOM     31  C   UNL     1       1.373 -11.492   1.659  0.00  0.00    +0.125 A 
ATOM     32  C   UNL     1       1.862 -10.546   2.546  0.00  0.00    +0.069 A 
BRANCH  31  33
ATOM     33  O   UNL     1       0.270 -11.219   0.914  0.00  0.00    -0.495 OA
ATOM     34  C   UNL     1      -0.183 -12.242   0.025  0.00  0.00    +0.277 C 
ENDBRANCH  31  33
BRANCH  29  35
ATOM     35  O   UNL     1       3.751 -14.203   2.174  0.00  0.00    -0.495 OA
ATOM     36  C   UNL     1       3.188 -15.132   1.246  0.00  0.00    +0.277 C 
ENDBRANCH  29  35
ENDBRANCH  25  27
ENDBRANCH   6  23
BRANCH   4  37
ATOM     37  N   UNL     1       5.553  -7.434   8.230  0.00  0.00    +0.056 N 
ATOM     38  O   UNL     1       5.887  -6.614   9.054  0.00  0.00    -0.126 OA
ATOM     39  O   UNL     1       5.851  -8.596   8.379  0.00  0.00    -0.126 OA
ENDBRANCH   4  37
TORSDOF 9
