REMARK  Name = ZINC39636518
REMARK  8 active torsions:
REMARK  status: ('A' for Active; 'I' for Inactive)
REMARK    1  A    between atoms: C_1  and  C_2
REMARK    2  A    between atoms: C_5  and  C_36
REMARK    3  A    between atoms: C_6  and  C_8
REMARK    4  A    between atoms: C_8  and  N_9
REMARK    5  A    between atoms: C_10  and  C_12
REMARK    6  A    between atoms: C_23  and  C_25
REMARK    7  A    between atoms: C_28  and  O_31
REMARK    8  A    between atoms: O_31  and  C_32
REMARK                            x       y       z     vdW  Elec       q    Type
REMARK                         _______ _______ _______ _____ _____    ______ ____
ROOT
ATOM      1  C   UNL     1       3.756  -4.524   4.106  0.00  0.00    +0.100 C 
ATOM      2  C   UNL     1       4.402  -3.126   4.223  0.00  0.00    +0.121 C 
ATOM      3  N   UNL     1       4.384  -2.825   5.674  0.00  0.00    -0.296 N 
ATOM      4  C   UNL     1       4.715  -4.117   6.322  0.00  0.00    +0.115 C 
ATOM      5  C   UNL     1       3.967  -5.173   5.485  0.00  0.00    -0.004 C 
ATOM      6  C   UNL     1       4.812  -6.436   5.351  0.00  0.00    -0.010 C 
ATOM      7  C   UNL     1       4.959  -7.095   6.726  0.00  0.00    -0.082 C 
ATOM      8  N   UNL     1       3.631  -7.424   7.257  0.00  0.00    +0.379 N 
ATOM      9  C   UNL     1       2.857  -6.195   7.470  0.00  0.00    -0.082 C 
ATOM     10  C   UNL     1       2.622  -5.498   6.127  0.00  0.00    -0.010 C 
ATOM     11  C   UNL     1       4.126  -1.644   6.269  0.00  0.00    +0.247 C 
ATOM     12  O   UNL     1       3.746  -0.698   5.606  0.00  0.00    -0.270 OA
ATOM     13  H   UNL     1       3.144  -8.016   6.600  0.00  0.00    -0.086 HD
ATOM     14  H   UNL     1       3.732  -7.913   8.134  0.00  0.00    -0.086 HD
ENDROOT
BRANCH  11  15
ATOM     15  C   UNL     1       4.305  -1.498   7.727  0.00  0.00    +0.037 A 
ATOM     16  C   UNL     1       5.130  -2.385   8.424  0.00  0.00    +0.016 A 
ATOM     17  C   UNL     1       5.295  -2.245   9.784  0.00  0.00    +0.047 A 
ATOM     18  C   UNL     1       4.641  -1.224  10.464  0.00  0.00    +0.130 A 
ATOM     19  C   UNL     1       3.820  -0.340   9.774  0.00  0.00    +0.047 A 
ATOM     20  C   UNL     1       3.654  -0.469   8.413  0.00  0.00    +0.016 A 
BRANCH  18  21
ATOM     21  O   UNL     1       4.805  -1.090  11.804  0.00  0.00    -0.406 OA
BRANCH  21  22
ATOM     22  C   UNL     1       4.104  -0.019  12.440  0.00  0.00    +0.575 C 
ATOM     23  F   UNL     1       2.728  -0.181  12.244  0.00  0.00    -0.133 F 
ATOM     24  F   UNL     1       4.384  -0.027  13.811  0.00  0.00    -0.133 F 
ATOM     25  F   UNL     1       4.514   1.199  11.887  0.00  0.00    -0.133 F 
ENDBRANCH  21  22
ENDBRANCH  18  21
ENDBRANCH  11  15
BRANCH   1  27
ATOM     26  N   UNL     1       1.634  -5.410   3.196  0.00  0.00    -0.311 N 
ATOM     27  C   UNL     1       2.285  -4.400   3.805  0.00  0.00    +0.218 C 
ATOM     28  O   UNL     1       1.687  -3.390   4.110  0.00  0.00    -0.275 OA
ATOM     29  H   UNL     1       2.112  -6.218   2.952  0.00  0.00    +0.149 HD
BRANCH  26  30
ATOM     30  C   UNL     1       0.203  -5.289   2.902  0.00  0.00    +0.139 C 
BRANCH  30  36
ATOM     31  C   UNL     1      -1.054  -7.756  -1.266  0.00  0.00    +0.044 C 
ATOM     32  C   UNL     1      -0.881  -7.726   0.230  0.00  0.00    -0.050 A 
ATOM     33  C   UNL     1      -1.165  -8.851   0.982  0.00  0.00    +0.003 A 
ATOM     34  C   UNL     1      -1.006  -8.823   2.355  0.00  0.00    +0.004 A 
ATOM     35  C   UNL     1      -0.564  -7.670   2.976  0.00  0.00    -0.046 A 
ATOM     36  C   UNL     1      -0.279  -6.546   2.225  0.00  0.00    -0.027 A 
ATOM     37  C   UNL     1      -0.433  -6.575   0.851  0.00  0.00    +0.008 A 
ATOM     38  C   UNL     1      -0.392  -7.640   4.473  0.00  0.00    +0.044 C 
ENDBRANCH  30  36
ENDBRANCH  26  30
ENDBRANCH   1  27
TORSDOF 6
