REMARK  Name = ZINC60377222
REMARK  10 active torsions:
REMARK  status: ('A' for Active; 'I' for Inactive)
REMARK    1  A    between atoms: C_1  and  C_2
REMARK    2  A    between atoms: C_2  and  C_4
REMARK    3  A    between atoms: C_2  and  N_14
REMARK    4  A    between atoms: C_8  and  S_10
REMARK    5  A    between atoms: S_10  and  N_13
REMARK    6  A    between atoms: N_14  and  C_15
REMARK    7  A    between atoms: N_14  and  C_16
REMARK    8  A    between atoms: C_16  and  C_17
REMARK    9  A    between atoms: N_22  and  C_23
REMARK   10  A    between atoms: C_23  and  C_24
REMARK                            x       y       z     vdW  Elec       q    Type
REMARK                         _______ _______ _______ _____ _____    ______ ____
ROOT
ATOM      1  N   UNL     1       0.690  -0.478  -1.207  0.00  0.00    +0.388 N 
ATOM      2  C   UNL     1       2.068   0.031  -1.217  0.00  0.00    -0.095 C 
ATOM      3  H   UNL     1       0.202  -0.144  -2.024  0.00  0.00    -0.081 HD
ENDROOT
BRANCH   1   5
ATOM      4  C   UNL     1      -0.019   1.526   0.010  0.00  0.00    -0.008 C 
ATOM      5  C   UNL     1       0.002  -0.004   0.002  0.00  0.00    -0.040 C 
BRANCH   5   6
ATOM      6  C   UNL     1      -1.412  -0.526   0.013  0.00  0.00    -0.059 A 
ATOM      7  C   UNL     1      -2.142  -0.569  -1.161  0.00  0.00    +0.002 A 
ATOM      8  C   UNL     1      -3.438  -1.047  -1.151  0.00  0.00    +0.002 A 
ATOM      9  C   UNL     1      -4.005  -1.483   0.032  0.00  0.00    +0.028 A 
ATOM     10  C   UNL     1      -3.275  -1.441   1.205  0.00  0.00    +0.105 A 
ATOM     11  C   UNL     1      -1.977  -0.966   1.195  0.00  0.00    +0.030 A 
BRANCH  10  12
ATOM     12  S   UNL     1      -3.998  -1.996   2.713  0.00  0.00    +0.056 S 
ATOM     13  O   UNL     1      -3.297  -1.344   3.764  0.00  0.00    -0.153 OA
ATOM     14  O   UNL     1      -5.406  -1.885   2.554  0.00  0.00    -0.153 OA
BRANCH  12  15
ATOM     15  N   UNL     1      -3.663  -3.611   2.851  0.00  0.00    -0.204 NA
ATOM     16  H   UNL     1      -3.567  -4.014   3.729  0.00  0.00    +0.144 HD
ATOM     17  H   UNL     1      -3.563  -4.156   2.055  0.00  0.00    +0.144 HD
ENDBRANCH  12  15
ENDBRANCH  10  12
ENDBRANCH   5   6
ENDBRANCH   1   5
BRANCH   1  18
ATOM     18  C   UNL     1       0.710  -1.947  -1.215  0.00  0.00    +0.019 C 
BRANCH  18  19
ATOM     19  C   UNL     1       1.304  -2.434  -2.511  0.00  0.00    +0.204 C 
ATOM     20  O   UNL     1       1.675  -1.636  -3.345  0.00  0.00    -0.277 OA
ATOM     21  N   UNL     1       1.424  -3.756  -2.742  0.00  0.00    -0.242 N 
ATOM     22  C   UNL     1       1.956  -4.192  -3.901  0.00  0.00    +0.306 C 
ATOM     23  O   UNL     1       2.328  -3.392  -4.738  0.00  0.00    -0.252 OA
ATOM     24  N   UNL     1       2.076  -5.514  -4.133  0.00  0.00    -0.294 N 
ATOM     25  H   UNL     1       1.128  -4.394  -2.075  0.00  0.00    +0.159 HD
ATOM     26  H   UNL     1       1.780  -6.152  -3.465  0.00  0.00    +0.151 HD
BRANCH  24  27
ATOM     27  C   UNL     1       2.655  -5.988  -5.393  0.00  0.00    +0.148 C 
BRANCH  27  28
ATOM     28  C   UNL     1       2.675  -7.495  -5.401  0.00  0.00    +0.007 A 
ATOM     29  C   UNL     1       1.731  -8.359  -5.847  0.00  0.00    +0.013 A 
ATOM     30  C   UNL     1       1.968  -9.717  -5.754  0.00  0.00    +0.008 A 
ATOM     31  C   UNL     1       3.138 -10.145  -5.220  0.00  0.00    +0.045 A 
ATOM     32  S   UNL     1       3.953  -8.605  -4.834  0.00  0.00    -0.100 S 
ENDBRANCH  27  28
ENDBRANCH  24  27
ENDBRANCH  18  19
ENDBRANCH   1  18
TORSDOF 8
