REMARK  Name = ZINC47964336
REMARK  11 active torsions:
REMARK  status: ('A' for Active; 'I' for Inactive)
REMARK    1  A    between atoms: C_1  and  C_2
REMARK    2  A    between atoms: C_2  and  C_3
REMARK    3  A    between atoms: C_6  and  C_9
REMARK    4  A    between atoms: C_9  and  C_11
REMARK    5  A    between atoms: C_9  and  N_26
REMARK    6  A    between atoms: C_11  and  N_12
REMARK    7  A    between atoms: C_13  and  C_15
REMARK    8  A    between atoms: N_17  and  C_18
REMARK    9  A    between atoms: C_19  and  C_23
REMARK   10  A    between atoms: N_26  and  C_27
REMARK   11  A    between atoms: N_26  and  C_28
REMARK                            x       y       z     vdW  Elec       q    Type
REMARK                         _______ _______ _______ _____ _____    ______ ____
ROOT
ATOM      1  N   UNL     1       1.740  -0.176  -5.964  0.00  0.00    -0.309 N 
ATOM      2  C   UNL     1       1.855   0.932  -6.722  0.00  0.00    +0.299 C 
ATOM      3  O   UNL     1       2.952   1.398  -6.952  0.00  0.00    -0.265 OA
ATOM      4  H   UNL     1       0.863  -0.549  -5.780  0.00  0.00    +0.149 HD
ENDROOT
BRANCH   2   5
ATOM      5  C   UNL     1       0.634   1.586  -7.279  0.00  0.00    +0.304 C 
ATOM      6  O   UNL     1      -0.463   1.120  -7.049  0.00  0.00    -0.265 OA
ATOM      7  N   UNL     1       0.750   2.695  -8.037  0.00  0.00    -0.272 N 
ATOM      8  H   UNL     1       1.626   3.067  -8.220  0.00  0.00    +0.156 HD
BRANCH   7   9
ATOM      9  C   UNL     1      -0.382   3.301  -8.553  0.00  0.00    +0.084 A 
ATOM     10  C   UNL     1      -0.454   4.435  -9.351  0.00  0.00    +0.065 A 
ATOM     11  C   UNL     1      -1.775   4.858  -9.754  0.00  0.00    +0.022 A 
ATOM     12  C   UNL     1      -2.796   4.101  -9.308  0.00  0.00    +0.048 A 
ATOM     13  S   UNL     1      -1.982   2.831  -8.363  0.00  0.00    -0.081 S 
BRANCH  10  14
ATOM     14  C   UNL     1       0.749   5.165  -9.763  0.00  0.00    +0.244 C 
ATOM     15  O   UNL     1       1.847   4.781  -9.405  0.00  0.00    -0.270 OA
ATOM     16  N   UNL     1       0.638   6.262 -10.539  0.00  0.00    -0.325 N 
ATOM     17  H   UNL     1      -0.237   6.568 -10.824  0.00  0.00    +0.145 HD
ATOM     18  H   UNL     1       1.434   6.745 -10.811  0.00  0.00    +0.145 HD
ENDBRANCH  10  14
ENDBRANCH   7   9
ENDBRANCH   2   5
BRANCH   1  19
ATOM     19  C   UNL     1       2.938  -0.819  -5.418  0.00  0.00    +0.094 C 
BRANCH  19  20
ATOM     20  C   UNL     1       2.539  -2.099  -4.682  0.00  0.00    -0.021 C 
BRANCH  20  24
ATOM     21  C   UNL     1       0.108  -1.109  -1.312  0.00  0.00    -0.048 A 
ATOM     22  C   UNL     1      -0.479  -1.556  -2.481  0.00  0.00    +0.004 A 
ATOM     23  C   UNL     1       0.307  -1.876  -3.571  0.00  0.00    +0.002 A 
ATOM     24  C   UNL     1       1.682  -1.749  -3.493  0.00  0.00    -0.059 A 
ATOM     25  C   UNL     1       2.269  -1.302  -2.324  0.00  0.00    +0.002 A 
ATOM     26  C   UNL     1       1.482  -0.978  -1.235  0.00  0.00    +0.004 A 
BRANCH  21  28
ATOM     27  C   UNL     1      -1.144   0.716  -0.194  0.00  0.00    +0.009 C 
ATOM     28  C   UNL     1      -0.750  -0.760  -0.123  0.00  0.00    +0.032 C 
ENDBRANCH  21  28
ENDBRANCH  20  24
BRANCH  20  29
ATOM     29  N   UNL     1       3.748  -2.797  -4.224  0.00  0.00    +0.382 N 
ATOM     30  C   UNL     1       3.365  -4.003  -3.478  0.00  0.00    -0.096 C 
ATOM     31  C   UNL     1       4.563  -3.179  -5.386  0.00  0.00    -0.096 C 
ATOM     32  H   UNL     1       4.283  -2.187  -3.625  0.00  0.00    -0.082 HD
ENDBRANCH  20  29
ENDBRANCH  19  20
ENDBRANCH   1  19
TORSDOF 8
