REMARK  Name = ZINC59446088
REMARK  10 active torsions:
REMARK  status: ('A' for Active; 'I' for Inactive)
REMARK    1  A    between atoms: C_1  and  C_2
REMARK    2  A    between atoms: C_2  and  N_3
REMARK    3  A    between atoms: C_4  and  S_18
REMARK    4  A    between atoms: N_5  and  C_6
REMARK    5  A    between atoms: C_6  and  C_7
REMARK    6  A    between atoms: C_7  and  C_8
REMARK    7  A    between atoms: C_11  and  S_14
REMARK    8  A    between atoms: S_14  and  N_17
REMARK    9  A    between atoms: S_18  and  C_19
REMARK   10  A    between atoms: N_24  and  C_27
REMARK                            x       y       z     vdW  Elec       q    Type
REMARK                         _______ _______ _______ _____ _____    ______ ____
ROOT
ATOM      1  N   UNL     1      -0.962  -0.413   0.089  0.00  0.00    -0.326 N 
ATOM      2  C   UNL     1      -1.368  -1.722  -0.035  0.00  0.00    +0.129 C 
ATOM      3  N   UNL     1      -2.639  -2.009  -0.074  0.00  0.00    -0.367 N 
ATOM      4  H   UNL     1      -1.618   0.287   0.233  0.00  0.00    +0.148 HD
ATOM      5  H   UNL     1      -2.926  -2.932  -0.162  0.00  0.00    +0.161 HD
ENDROOT
BRANCH   1   7
ATOM      6  C   UNL     1       0.629   1.444   0.050  0.00  0.00    +0.024 C 
ATOM      7  C   UNL     1       0.461  -0.076   0.004  0.00  0.00    +0.100 C 
ENDBRANCH   1   7
BRANCH   3   8
ATOM      8  C   UNL     1      -3.636  -0.938   0.013  0.00  0.00    +0.119 C 
BRANCH   8   9
ATOM      9  C   UNL     1      -5.040  -1.542  -0.056  0.00  0.00    +0.056 C 
BRANCH   9  10
ATOM     10  C   UNL     1      -6.065  -0.440   0.035  0.00  0.00    -0.046 A 
ATOM     11  C   UNL     1      -6.543  -0.041   1.268  0.00  0.00    +0.005 A 
ATOM     12  C   UNL     1      -7.483   0.970   1.351  0.00  0.00    +0.029 A 
ATOM     13  C   UNL     1      -7.944   1.581   0.201  0.00  0.00    +0.105 A 
ATOM     14  C   UNL     1      -7.466   1.181  -1.033  0.00  0.00    +0.029 A 
ATOM     15  C   UNL     1      -6.522   0.174  -1.116  0.00  0.00    +0.005 A 
BRANCH  13  16
ATOM     16  S   UNL     1      -9.143   2.867   0.306  0.00  0.00    +0.056 S 
ATOM     17  O   UNL     1      -9.814   2.901  -0.946  0.00  0.00    -0.153 OA
ATOM     18  O   UNL     1      -9.832   2.681   1.535  0.00  0.00    -0.153 OA
BRANCH  16  19
ATOM     19  N   UNL     1      -8.317   4.296   0.439  0.00  0.00    -0.204 NA
ATOM     20  H   UNL     1      -8.703   5.114   0.088  0.00  0.00    +0.144 HD
ATOM     21  H   UNL     1      -7.448   4.316   0.869  0.00  0.00    +0.144 HD
ENDBRANCH  16  19
ENDBRANCH  13  16
ENDBRANCH   9  10
ENDBRANCH   8   9
ENDBRANCH   3   8
BRANCH   2  22
ATOM     22  S   UNL     1      -0.170  -3.009  -0.141  0.00  0.00    -0.079 S 
BRANCH  22  23
ATOM     23  C   UNL     1      -0.609  -4.130   1.216  0.00  0.00    +0.149 C 
ATOM     24  C   UNL     1       0.335  -5.349   1.240  0.00  0.00    +0.120 C 
ATOM     25  C   UNL     1       1.012  -5.247   2.589  0.00  0.00    +0.228 C 
ATOM     26  O   UNL     1       1.842  -6.020   3.018  0.00  0.00    -0.275 OA
ATOM     27  N   UNL     1       0.550  -4.169   3.233  0.00  0.00    -0.209 N 
ATOM     28  C   UNL     1      -0.369  -3.465   2.554  0.00  0.00    +0.240 C 
ATOM     29  O   UNL     1      -0.920  -2.459   2.947  0.00  0.00    -0.274 OA
BRANCH  27  30
ATOM     30  C   UNL     1       0.989  -3.804   4.514  0.00  0.00    +0.044 A 
ATOM     31  C   UNL     1       0.121  -3.882   5.595  0.00  0.00    +0.024 A 
ATOM     32  C   UNL     1       0.556  -3.522   6.855  0.00  0.00    +0.002 A 
ATOM     33  C   UNL     1       1.855  -3.085   7.041  0.00  0.00    +0.000 A 
ATOM     34  C   UNL     1       2.722  -3.006   5.967  0.00  0.00    +0.002 A 
ATOM     35  C   UNL     1       2.294  -3.370   4.705  0.00  0.00    +0.024 A 
ENDBRANCH  27  30
ENDBRANCH  22  23
ENDBRANCH   2  22
TORSDOF 9
