REMARK  Name = ZINC20609278
REMARK  9 active torsions:
REMARK  status: ('A' for Active; 'I' for Inactive)
REMARK    1  A    between atoms: C_1  and  C_2
REMARK    2  A    between atoms: C_2  and  O_3
REMARK    3  A    between atoms: O_3  and  C_4
REMARK    4  A    between atoms: C_4  and  C_6
REMARK    5  A    between atoms: C_7  and  N_31
REMARK    6  A    between atoms: N_8  and  C_26
REMARK    7  A    between atoms: C_26  and  C_27
REMARK    8  A    between atoms: C_27  and  O_29
REMARK    9  A    between atoms: O_29  and  C_30
REMARK                            x       y       z     vdW  Elec       q    Type
REMARK                         _______ _______ _______ _____ _____    ______ ____
ROOT
ATOM      1  C   UNL     1      -1.172   3.393   2.645  0.00  0.00    +0.098 C 
ATOM      2  C   UNL     1      -0.329   2.731   1.785  0.00  0.00    +0.100 C 
ATOM      3  N   UNL     1      -0.696   1.531   1.236  0.00  0.00    -0.277 N 
ATOM      4  C   UNL     1      -1.726   0.781   1.808  0.00  0.00    +0.040 A 
ATOM      5  C   UNL     1      -1.848  -0.569   1.503  0.00  0.00    +0.024 A 
ATOM      6  C   UNL     1      -2.862  -1.316   2.068  0.00  0.00    +0.002 A 
ATOM      7  C   UNL     1      -3.757  -0.719   2.938  0.00  0.00    +0.000 A 
ATOM      8  C   UNL     1      -3.639   0.624   3.242  0.00  0.00    +0.007 A 
ATOM      9  C   UNL     1      -2.626   1.380   2.679  0.00  0.00    +0.000 A 
ATOM     10  C   UNL     1      -2.513   2.839   3.016  0.00  0.00    +0.160 C 
ATOM     11  C   UNL     1      -3.615   3.623   2.364  0.00  0.00    +0.059 C 
ATOM     12  C   UNL     1      -4.347   4.168   3.368  0.00  0.00    +0.117 C 
ATOM     13  C   UNL     1      -5.560   5.032   3.083  0.00  0.00    +0.075 C 
ATOM     14  C   UNL     1      -6.144   4.604   1.732  0.00  0.00    +0.016 C 
ATOM     15  C   UNL     1      -5.077   4.692   0.640  0.00  0.00    +0.080 C 
ATOM     16  C   UNL     1      -3.904   3.807   1.001  0.00  0.00    +0.164 C 
ATOM     17  O   UNL     1      -3.233   3.273   0.140  0.00  0.00    -0.292 OA
ATOM     18  O   UNL     1      -3.859   3.839   4.568  0.00  0.00    -0.429 OA
ATOM     19  C   UNL     1      -2.772   3.050   4.495  0.00  0.00    +0.332 C 
ATOM     20  O   UNL     1      -2.134   2.602   5.418  0.00  0.00    -0.249 OA
ENDROOT
BRANCH   2  21
ATOM     21  N   UNL     1       0.888   3.278   1.470  0.00  0.00    -0.346 N 
ATOM     22  H   UNL     1       1.566   2.751   0.782  0.00  0.00    +0.143 HD
ATOM     23  H   UNL     1       1.187   4.243   1.905  0.00  0.00    +0.143 HD
ENDBRANCH   2  21
BRANCH   1  24
ATOM     24  C   UNL     1      -0.764   4.615   3.192  0.00  0.00    +0.340 C 
ATOM     25  O   UNL     1      -1.186   5.661   2.731  0.00  0.00    -0.245 OA
BRANCH  24  26
ATOM     26  O   UNL     1       0.098   4.635   4.233  0.00  0.00    -0.462 OA
BRANCH  26  28
ATOM     27  C   UNL     1       1.446   5.739   5.908  0.00  0.00    +0.048 C 
ATOM     28  C   UNL     1       0.472   5.917   4.741  0.00  0.00    +0.229 C 
ENDBRANCH  26  28
ENDBRANCH  24  26
ENDBRANCH   1  24
BRANCH   3  29
ATOM     29  C   UNL     1      -0.001   1.030   0.047  0.00  0.00    +0.232 C 
BRANCH  29  30
ATOM     30  C   UNL     1      -0.705   1.520  -1.191  0.00  0.00    +0.325 C 
ATOM     31  O   UNL     1      -1.688   2.216  -1.092  0.00  0.00    -0.249 OA
BRANCH  30  32
ATOM     32  O   UNL     1      -0.242   1.182  -2.405  0.00  0.00    -0.467 OA
ATOM     33  C   UNL     1      -0.971   1.690  -3.553  0.00  0.00    +0.280 C 
ENDBRANCH  30  32
ENDBRANCH  29  30
ENDBRANCH   3  29
TORSDOF 7
