REMARK  Name = ZINC39850338
REMARK  11 active torsions:
REMARK  status: ('A' for Active; 'I' for Inactive)
REMARK    1  A    between atoms: C_1  and  C_2
REMARK    2  A    between atoms: C_2  and  O_3
REMARK    3  A    between atoms: O_3  and  C_4
REMARK    4  A    between atoms: C_7  and  C_12
REMARK    5  A    between atoms: C_9  and  O_10
REMARK    6  A    between atoms: O_10  and  C_11
REMARK    7  A    between atoms: C_14  and  C_26
REMARK    8  A    between atoms: C_16  and  C_21
REMARK    9  A    between atoms: C_16  and  O_25
REMARK   10  A    between atoms: C_26  and  C_28
REMARK   11  A    between atoms: C_31  and  C_34
REMARK                            x       y       z     vdW  Elec       q    Type
REMARK                         _______ _______ _______ _____ _____    ______ ____
ROOT
ATOM      1  C   UNL     1       1.142  -6.055   1.766  0.00  0.00    +0.120 C 
ATOM      2  C   UNL     1      -0.124  -6.610   2.429  0.00  0.00    +0.144 C 
ATOM      3  C   UNL     1      -0.025  -8.139   2.465  0.00  0.00    +0.243 C 
ATOM      4  N   UNL     1       0.198  -8.638   1.107  0.00  0.00    -0.264 N 
ATOM      5  C   UNL     1       0.839  -7.900   0.189  0.00  0.00    +0.302 C 
ATOM      6  O   UNL     1       1.007  -8.366  -0.921  0.00  0.00    -0.253 OA
ATOM      7  N   UNL     1       1.303  -6.667   0.447  0.00  0.00    -0.292 N 
ATOM      8  H   UNL     1      -0.124  -9.521   0.867  0.00  0.00    +0.153 HD
ATOM      9  H   UNL     1       1.753  -6.171  -0.255  0.00  0.00    +0.151 HD
ENDROOT
BRANCH   1  13
ATOM     10  C   UNL     1       0.786  -1.815   1.336  0.00  0.00    +0.162 A 
ATOM     11  C   UNL     1       0.347  -2.656   0.326  0.00  0.00    +0.050 A 
ATOM     12  C   UNL     1       0.463  -4.026   0.468  0.00  0.00    +0.009 A 
ATOM     13  C   UNL     1       1.017  -4.560   1.617  0.00  0.00    -0.023 A 
ATOM     14  C   UNL     1       1.457  -3.727   2.628  0.00  0.00    +0.055 A 
ATOM     15  C   UNL     1       1.349  -2.353   2.490  0.00  0.00    +0.162 A 
BRANCH  15  16
ATOM     16  O   UNL     1       1.786  -1.531   3.481  0.00  0.00    -0.491 OA
ATOM     17  C   UNL     1       2.353  -2.153   4.636  0.00  0.00    +0.277 C 
ENDBRANCH  15  16
BRANCH  10  18
ATOM     18  O   UNL     1       0.672  -0.467   1.198  0.00  0.00    -0.489 OA
BRANCH  18  20
ATOM     19  C   UNL     1       0.042   1.543   0.013  0.00  0.00    +0.048 C 
ATOM     20  C   UNL     1       0.085   0.014  -0.013  0.00  0.00    +0.226 C 
ENDBRANCH  18  20
ENDBRANCH  10  18
ENDBRANCH   1  13
BRANCH   3  21
ATOM     21  C   UNL     1       1.144  -8.554   3.361  0.00  0.00    +0.436 C 
ATOM     22  F   UNL     1       0.934  -8.070   4.657  0.00  0.00    -0.166 F 
ATOM     23  F   UNL     1       1.234  -9.950   3.393  0.00  0.00    -0.166 F 
ATOM     24  F   UNL     1       2.334  -8.023   2.852  0.00  0.00    -0.166 F 
ENDBRANCH   3  21
BRANCH   3  25
ATOM     25  O   UNL     1      -1.241  -8.684   2.981  0.00  0.00    -0.364 OA
ATOM     26  H   UNL     1      -1.248  -9.650   3.032  0.00  0.00    +0.212 HD
ENDBRANCH   3  25
BRANCH   2  27
ATOM     27  C   UNL     1      -1.335  -6.197   1.633  0.00  0.00    +0.173 C 
ATOM     28  O   UNL     1      -1.270  -6.123   0.424  0.00  0.00    -0.292 OA
BRANCH  27  29
ATOM     29  C   UNL     1      -2.596  -5.881   2.323  0.00  0.00    +0.018 A 
ATOM     30  C   UNL     1      -2.673  -5.959   3.717  0.00  0.00    +0.011 A 
ATOM     31  C   UNL     1      -3.858  -5.661   4.356  0.00  0.00    +0.004 A 
ATOM     32  C   UNL     1      -4.970  -5.287   3.621  0.00  0.00    -0.050 A 
ATOM     33  C   UNL     1      -4.902  -5.208   2.241  0.00  0.00    +0.004 A 
ATOM     34  C   UNL     1      -3.722  -5.497   1.587  0.00  0.00    +0.011 A 
ATOM     35  C   UNL     1      -6.261  -4.963   4.327  0.00  0.00    +0.044 C 
ENDBRANCH  27  29
ENDBRANCH   2  27
TORSDOF 8
