REMARK  Name = ZINC20545672
REMARK  6 active torsions:
REMARK  status: ('A' for Active; 'I' for Inactive)
REMARK    1  A    between atoms: C_1  and  C_2
REMARK    2  A    between atoms: C_7  and  N_12
REMARK    3  A    between atoms: C_9  and  C_11
REMARK    4  A    between atoms: N_12  and  S_13
REMARK    5  A    between atoms: S_13  and  C_16
REMARK    6  A    between atoms: N_22  and  N_23
REMARK                            x       y       z     vdW  Elec       q    Type
REMARK                         _______ _______ _______ _____ _____    ______ ____
ROOT
ATOM      1  S   UNL     1      -2.092  -0.923   1.446  0.00  0.00    +0.060 S 
ATOM      2  O   UNL     1      -3.411  -1.347   1.131  0.00  0.00    -0.153 OA
ATOM      3  O   UNL     1      -1.170  -1.752   2.140  0.00  0.00    -0.153 OA
ENDROOT
BRANCH   1   4
ATOM      4  C   UNL     1      -2.251   0.555   2.392  0.00  0.00    +0.123 A 
ATOM      5  C   UNL     1      -3.393   1.338   2.283  0.00  0.00    +0.033 A 
ATOM      6  C   UNL     1      -3.478   2.490   3.044  0.00  0.00    +0.046 A 
ATOM      7  C   UNL     1      -2.423   2.824   3.888  0.00  0.00    +0.132 A 
ATOM      8  N   UNL     1      -1.351   2.051   3.963  0.00  0.00    -0.237 NA
ATOM      9  C   UNL     1      -1.245   0.943   3.253  0.00  0.00    +0.141 A 
ATOM     10  N   UNL     1      -2.496   3.978   4.658  0.00  0.00    -0.268 N 
ATOM     11  H   UNL     1      -3.384   4.624   4.598  0.00  0.00    +0.167 HD
BRANCH  10  12
ATOM     12  N   UNL     1      -1.464   4.311   5.488  0.00  0.00    -0.255 NA
ATOM     13  H   UNL     1      -1.701   5.250   6.010  0.00  0.00    +0.140 HD
ATOM     14  H   UNL     1      -1.313   3.509   6.225  0.00  0.00    +0.140 HD
ENDBRANCH  10  12
ENDBRANCH   1   4
BRANCH   1  15
ATOM     15  N   UNL     1      -1.372  -0.511   0.012  0.00  0.00    -0.187 NA
ATOM     16  H   UNL     1      -1.982  -0.465  -0.902  0.00  0.00    +0.148 HD
BRANCH  15  22
ATOM     17  C   UNL     1       2.894  -0.475  -0.028  0.00  0.00    +0.008 C 
ATOM     18  C   UNL     1       2.154   0.032  -1.268  0.00  0.00    -0.010 C 
ATOM     19  C   UNL     1       2.133   1.562  -1.259  0.00  0.00    +0.003 C 
ATOM     20  C   UNL     1       1.417   2.055  -0.000  0.00  0.00    +0.002 C 
ATOM     21  C   UNL     1      -0.019   1.526   0.010  0.00  0.00    +0.020 C 
ATOM     22  C   UNL     1       0.002  -0.004   0.002  0.00  0.00    +0.080 C 
ATOM     23  C   UNL     1       0.718  -0.497  -1.257  0.00  0.00    +0.007 C 
ATOM     24  C   UNL     1       0.739  -2.027  -1.265  0.00  0.00    +0.009 C 
ENDBRANCH  15  22
ENDBRANCH   1  15
TORSDOF 4
