REMARK  Name = ZINC15946183
REMARK  13 active torsions:
REMARK  status: ('A' for Active; 'I' for Inactive)
REMARK    1  A    between atoms: C_1  and  C_2
REMARK    2  A    between atoms: C_2  and  C_3
REMARK    3  A    between atoms: C_3  and  C_4
REMARK    4  A    between atoms: C_3  and  C_5
REMARK    5  A    between atoms: C_3  and  C_6
REMARK    6  A    between atoms: C_15  and  O_38
REMARK    7  A    between atoms: C_17  and  C_20
REMARK    8  A    between atoms: C_23  and  O_29
REMARK    9  A    between atoms: C_24  and  O_26
REMARK   10  A    between atoms: O_26  and  C_27
REMARK   11  A    between atoms: C_27  and  C_28
REMARK   12  A    between atoms: O_29  and  C_30
REMARK   13  A    between atoms: C_30  and  C_32
REMARK                            x       y       z     vdW  Elec       q    Type
REMARK                         _______ _______ _______ _____ _____    ______ ____
ROOT
ATOM      1  C   UNL     1      -1.311  -2.048   0.075  0.00  0.00    -0.000 C 
ATOM      2  C   UNL     1      -2.757  -2.552   0.088  0.00  0.00    +0.009 C 
ATOM      3  C   UNL     1      -2.787  -4.056  -0.189  0.00  0.00    +0.037 C 
ATOM      4  C   UNL     1      -1.834  -4.750   0.774  0.00  0.00    -0.023 A 
ATOM      5  C   UNL     1      -0.868  -4.058   1.421  0.00  0.00    -0.004 A 
ATOM      6  S   UNL     1      -0.030  -5.267   2.409  0.00  0.00    -0.078 S 
ATOM      7  C   UNL     1      -0.906  -6.613   1.996  0.00  0.00    +0.080 A 
ATOM      8  C   UNL     1      -1.866  -6.168   1.079  0.00  0.00    +0.068 A 
ATOM      9  C   UNL     1      -2.798  -7.180   0.518  0.00  0.00    +0.220 C 
ATOM     10  N   UNL     1      -2.833  -8.354   1.089  0.00  0.00    -0.223 NA
ATOM     11  C   UNL     1      -2.070  -8.718   2.276  0.00  0.00    +0.224 C 
ATOM     12  N   UNL     1      -0.829  -7.930   2.388  0.00  0.00    -0.313 N 
ATOM     13  C   UNL     1      -0.582  -2.592   1.312  0.00  0.00    +0.046 C 
ATOM     14  H   UNL     1      -0.004  -8.319   2.718  0.00  0.00    +0.149 HD
ENDROOT
BRANCH  11  15
ATOM     15  C   UNL     1      -2.917  -8.475   3.499  0.00  0.00    -0.002 A 
ATOM     16  C   UNL     1      -2.316  -8.131   4.696  0.00  0.00    +0.011 A 
ATOM     17  C   UNL     1      -3.088  -7.907   5.821  0.00  0.00    +0.050 A 
ATOM     18  C   UNL     1      -4.467  -8.026   5.750  0.00  0.00    +0.173 A 
ATOM     19  C   UNL     1      -5.071  -8.371   4.545  0.00  0.00    +0.163 A 
ATOM     20  C   UNL     1      -4.292  -8.590   3.420  0.00  0.00    +0.056 A 
BRANCH  19  21
ATOM     21  O   UNL     1      -6.424  -8.490   4.470  0.00  0.00    -0.489 OA
BRANCH  21  22
ATOM     22  C   UNL     1      -6.974  -8.848   3.201  0.00  0.00    +0.226 C 
ATOM     23  C   UNL     1      -8.498  -8.932   3.312  0.00  0.00    +0.048 C 
ENDBRANCH  21  22
ENDBRANCH  19  21
BRANCH  18  24
ATOM     24  O   UNL     1      -5.228  -7.806   6.855  0.00  0.00    -0.419 OA
BRANCH  24  25
ATOM     25  C   UNL     1      -5.649  -8.876   7.556  0.00  0.00    +0.345 C 
ATOM     26  O   UNL     1      -5.267  -9.989   7.254  0.00  0.00    -0.245 OA
BRANCH  25  27
ATOM     27  C   UNL     1      -6.575  -8.697   8.693  0.00  0.00    +0.059 A 
ATOM     28  C   UNL     1      -7.020  -7.420   9.040  0.00  0.00    +0.015 A 
ATOM     29  C   UNL     1      -7.885  -7.260  10.103  0.00  0.00    +0.001 A 
ATOM     30  C   UNL     1      -8.311  -8.361  10.825  0.00  0.00    +0.000 A 
ATOM     31  C   UNL     1      -7.873  -9.629  10.486  0.00  0.00    +0.001 A 
ATOM     32  C   UNL     1      -7.013  -9.804   9.422  0.00  0.00    +0.015 A 
ENDBRANCH  25  27
ENDBRANCH  24  25
ENDBRANCH  18  24
ENDBRANCH  11  15
BRANCH   1  33
ATOM     33  C   UNL     1      -1.301  -0.519   0.104  0.00  0.00    -0.032 C 
ATOM     34  C   UNL     1      -2.004  -0.028   1.371  0.00  0.00    +0.011 C 
ATOM     35  C   UNL     1      -2.033   0.020  -1.126  0.00  0.00    +0.011 C 
BRANCH  33  37
ATOM     36  C   UNL     1       0.156   1.511   0.127  0.00  0.00    +0.004 C 
ATOM     37  C   UNL     1       0.145  -0.018   0.097  0.00  0.00    +0.003 C 
ENDBRANCH  33  37
ENDBRANCH   1  33
BRANCH   9  38
ATOM     38  O   UNL     1      -3.582  -6.896  -0.547  0.00  0.00    -0.492 OA
ATOM     39  H   UNL     1      -4.148  -7.629  -0.826  0.00  0.00    +0.294 HD
ENDBRANCH   9  38
TORSDOF 9
