REMARK  Name = ZINC08991710
REMARK  10 active torsions:
REMARK  status: ('A' for Active; 'I' for Inactive)
REMARK    1  A    between atoms: C_1  and  C_2
REMARK    2  A    between atoms: C_2  and  C_4
REMARK    3  A    between atoms: C_2  and  N_14
REMARK    4  A    between atoms: N_6  and  C_7
REMARK    5  A    between atoms: C_7  and  C_8
REMARK    6  A    between atoms: C_15  and  C_17
REMARK    7  A    between atoms: C_21  and  C_25
REMARK    8  A    between atoms: C_25  and  N_26
REMARK    9  A    between atoms: N_26  and  S_27
REMARK   10  A    between atoms: S_27  and  C_30
REMARK                            x       y       z     vdW  Elec       q    Type
REMARK                         _______ _______ _______ _____ _____    ______ ____
ROOT
ATOM      1  C   UNL     1       0.271   1.481  -7.231  0.00  0.00    +0.075 C 
ATOM      2  C   UNL     1       1.780   1.448  -6.980  0.00  0.00    +0.013 C 
ATOM      3  C   UNL     1       2.496   0.955  -8.239  0.00  0.00    +0.005 C 
ATOM      4  C   UNL     1       2.193   1.901  -9.402  0.00  0.00    +0.005 C 
ATOM      5  C   UNL     1       0.684   1.934  -9.653  0.00  0.00    +0.005 C 
ATOM      6  C   UNL     1      -0.032   2.427  -8.395  0.00  0.00    +0.013 C 
ENDROOT
BRANCH   1   8
ATOM      7  N   UNL     1      -0.311   1.285  -4.835  0.00  0.00    -0.304 N 
ATOM      8  C   UNL     1      -0.434   1.967  -5.992  0.00  0.00    +0.217 C 
ATOM      9  O   UNL     1      -1.113   2.971  -6.034  0.00  0.00    -0.275 OA
ATOM     10  H   UNL     1       0.231   0.482  -4.801  0.00  0.00    +0.149 HD
BRANCH   7  12
ATOM     11  C   UNL     1      -2.432   1.228  -3.619  0.00  0.00    +0.038 C 
ATOM     12  C   UNL     1      -0.997   1.758  -3.630  0.00  0.00    +0.156 C 
BRANCH  12  13
ATOM     13  C   UNL     1      -0.268   1.258  -2.409  0.00  0.00    +0.233 C 
ATOM     14  O   UNL     1       0.726   0.575  -2.534  0.00  0.00    -0.274 OA
ATOM     15  N   UNL     1      -0.721   1.571  -1.179  0.00  0.00    -0.311 N 
ATOM     16  H   UNL     1      -1.516   2.118  -1.079  0.00  0.00    +0.149 HD
BRANCH  15  17
ATOM     17  C   UNL     1      -0.013   1.086   0.008  0.00  0.00    +0.135 C 
BRANCH  17  18
ATOM     18  C   UNL     1      -0.729   1.579   1.267  0.00  0.00    +0.135 C 
ATOM     19  C   UNL     1       0.070   1.185   2.529  0.00  0.00    +0.035 C 
ATOM     20  C   UNL     1      -1.019   0.833   3.567  0.00  0.00    +0.031 C 
ATOM     21  C   UNL     1      -2.346   1.055   2.809  0.00  0.00    +0.160 C 
ATOM     22  O   UNL     1      -2.003   0.915   1.414  0.00  0.00    -0.375 OA
ENDBRANCH  17  18
ENDBRANCH  15  17
ENDBRANCH  12  13
ENDBRANCH   7  12
ENDBRANCH   1   8
BRANCH   4  23
ATOM     23  C   UNL     1       2.909   1.408 -10.661  0.00  0.00    +0.109 C 
BRANCH  23  24
ATOM     24  N   UNL     1       4.358   1.490 -10.462  0.00  0.00    -0.190 NA
ATOM     25  H   UNL     1       4.718   2.013  -9.729  0.00  0.00    +0.148 HD
BRANCH  24  26
ATOM     26  S   UNL     1       5.381   0.690 -11.489  0.00  0.00    +0.058 S 
ATOM     27  O   UNL     1       6.703   0.983 -11.056  0.00  0.00    -0.153 OA
ATOM     28  O   UNL     1       4.892  -0.640 -11.595  0.00  0.00    -0.153 OA
BRANCH  26  29
ATOM     29  C   UNL     1       5.199   1.422 -13.082  0.00  0.00    +0.105 A 
ATOM     30  C   UNL     1       4.261   0.925 -13.967  0.00  0.00    +0.030 A 
ATOM     31  C   UNL     1       4.113   1.502 -15.214  0.00  0.00    +0.022 A 
ATOM     32  C   UNL     1       4.913   2.571 -15.580  0.00  0.00    +0.041 A 
ATOM     33  C   UNL     1       5.855   3.064 -14.696  0.00  0.00    +0.022 A 
ATOM     34  C   UNL     1       5.998   2.489 -13.447  0.00  0.00    +0.030 A 
ATOM     35 CL   UNL     1       4.732   3.292 -17.149  0.00  0.00    -0.084 Cl
ENDBRANCH  26  29
ENDBRANCH  24  26
ENDBRANCH  23  24
ENDBRANCH   4  23
TORSDOF 9
