REMARK  Name = ZINC39597564
REMARK  9 active torsions:
REMARK  status: ('A' for Active; 'I' for Inactive)
REMARK    1  A    between atoms: C_1  and  C_2
REMARK    2  A    between atoms: C_2  and  C_3
REMARK    3  A    between atoms: C_3  and  C_4
REMARK    4  A    between atoms: C_4  and  C_6
REMARK    5  A    between atoms: C_4  and  C_7
REMARK    6  A    between atoms: C_11  and  C_20
REMARK    7  A    between atoms: N_22  and  C_23
REMARK    8  A    between atoms: C_23  and  C_24
REMARK    9  A    between atoms: C_24  and  C_25
REMARK                            x       y       z     vdW  Elec       q    Type
REMARK                         _______ _______ _______ _____ _____    ______ ____
ROOT
ATOM      1  C   UNL     1      -2.538  -2.615  -0.002  0.00  0.00    +0.218 C 
ATOM      2  O   UNL     1      -3.404  -1.767   0.051  0.00  0.00    -0.275 OA
ATOM      3  N   UNL     1      -2.869  -3.920   0.065  0.00  0.00    -0.300 N 
ATOM      4  C   UNL     1      -1.961  -5.090   0.025  0.00  0.00    +0.121 C 
ATOM      5  C   UNL     1      -2.552  -6.079   1.054  0.00  0.00    +0.100 C 
ATOM      6  C   UNL     1      -4.037  -5.694   1.161  0.00  0.00    -0.004 C 
ATOM      7  C   UNL     1      -4.223  -4.509   0.202  0.00  0.00    +0.115 C 
ATOM      8  C   UNL     1      -4.918  -6.864   0.734  0.00  0.00    -0.010 C 
ATOM      9  C   UNL     1      -6.390  -6.476   0.903  0.00  0.00    -0.082 C 
ATOM     10  N   UNL     1      -6.648  -6.129   2.306  0.00  0.00    +0.379 N 
ATOM     11  C   UNL     1      -5.865  -4.946   2.682  0.00  0.00    -0.082 C 
ATOM     12  C   UNL     1      -4.371  -5.268   2.587  0.00  0.00    -0.010 C 
ATOM     13  H   UNL     1      -7.630  -5.934   2.428  0.00  0.00    -0.086 HD
ATOM     14  H   UNL     1      -6.387  -6.905   2.897  0.00  0.00    -0.086 HD
ENDROOT
BRANCH   5  15
ATOM     15  C   UNL     1      -1.869  -5.918   2.388  0.00  0.00    +0.218 C 
ATOM     16  O   UNL     1      -1.428  -4.837   2.717  0.00  0.00    -0.275 OA
ATOM     17  N   UNL     1      -1.748  -6.975   3.215  0.00  0.00    -0.315 N 
ATOM     18  H   UNL     1      -2.101  -7.840   2.952  0.00  0.00    +0.149 HD
BRANCH  17  19
ATOM     19  C   UNL     1      -1.084  -6.819   4.512  0.00  0.00    +0.109 C 
BRANCH  19  20
ATOM     20  C   UNL     1      -1.081  -8.160   5.248  0.00  0.00    +0.056 C 
BRANCH  20  21
ATOM     21  C   UNL     1      -0.398  -7.999   6.582  0.00  0.00    -0.021 A 
ATOM     22  C   UNL     1      -1.016  -7.537   7.827  0.00  0.00    +0.003 A 
ATOM     23  C   UNL     1      -2.304  -7.131   8.179  0.00  0.00    +0.010 A 
ATOM     24  C   UNL     1      -2.568  -6.748   9.464  0.00  0.00    +0.001 A 
ATOM     25  C   UNL     1      -1.565  -6.759  10.423  0.00  0.00    +0.002 A 
ATOM     26  C   UNL     1      -0.286  -7.156  10.098  0.00  0.00    +0.026 A 
ATOM     27  C   UNL     1       0.004  -7.550   8.796  0.00  0.00    +0.047 A 
ATOM     28  N   UNL     1       1.151  -7.989   8.172  0.00  0.00    -0.360 N 
ATOM     29  C   UNL     1       0.890  -8.257   6.856  0.00  0.00    +0.087 A 
ATOM     30  H   UNL     1       2.013  -8.097   8.602  0.00  0.00    +0.165 HD
ENDBRANCH  20  21
ENDBRANCH  19  20
ENDBRANCH  17  19
ENDBRANCH   5  15
BRANCH   1  31
ATOM     31  C   UNL     1      -1.094  -2.210  -0.141  0.00  0.00    +0.072 C 
ATOM     32  C   UNL     1      -0.520  -2.803  -1.430  0.00  0.00    +0.017 C 
BRANCH  31  33
ATOM     33  C   UNL     1      -0.995  -0.684  -0.194  0.00  0.00    +0.012 C 
BRANCH  33  35
ATOM     34  C   UNL     1       0.577   1.257  -0.262  0.00  0.00    +0.004 C 
ATOM     35  C   UNL     1       0.478  -0.269  -0.210  0.00  0.00    -0.003 C 
ENDBRANCH  33  35
ENDBRANCH  31  33
ENDBRANCH   1  31
TORSDOF 7
