REMARK  Name = ZINC64871166
REMARK  7 active torsions:
REMARK  status: ('A' for Active; 'I' for Inactive)
REMARK    1  A    between atoms: C_1  and  C_2
REMARK    2  A    between atoms: C_2  and  O_3
REMARK    3  A    between atoms: O_3  and  C_4
REMARK    4  A    between atoms: C_7  and  C_10
REMARK    5  A    between atoms: C_13  and  C_17
REMARK    6  A    between atoms: N_27  and  C_30
REMARK    7  A    between atoms: C_30  and  C_31
REMARK                            x       y       z     vdW  Elec       q    Type
REMARK                         _______ _______ _______ _____ _____    ______ ____
ROOT
ATOM      1  C   UNL     1      -0.266  -7.820  -4.738  0.00  0.00    -0.000 A 
ATOM      2  C   UNL     1      -0.673  -6.711  -5.465  0.00  0.00    +0.008 A 
ATOM      3  C   UNL     1      -1.208  -6.861  -6.727  0.00  0.00    +0.016 A 
ATOM      4  C   UNL     1      -1.337  -8.137  -7.270  0.00  0.00    +0.063 A 
ATOM      5  C   UNL     1      -0.925  -9.261  -6.533  0.00  0.00    +0.056 A 
ATOM      6  C   UNL     1      -0.385  -9.090  -5.267  0.00  0.00    +0.034 A 
ATOM      7  N   UNL     1      -1.066 -10.519  -7.099  0.00  0.00    -0.307 N 
ATOM      8  H   UNL     1      -0.786 -11.304  -6.602  0.00  0.00    +0.170 HD
ATOM      9  C   UNL     1      -1.587 -10.662  -8.330  0.00  0.00    +0.330 A 
ATOM     10  O   UNL     1      -1.694 -11.782  -8.790  0.00  0.00    -0.246 OA
ATOM     11  N   UNL     1      -1.995  -9.621  -9.072  0.00  0.00    -0.256 N 
ATOM     12  C   UNL     1      -1.902  -8.354  -8.614  0.00  0.00    +0.265 A 
ATOM     13  O   UNL     1      -2.273  -7.416  -9.293  0.00  0.00    -0.267 OA
ENDROOT
BRANCH   1  16
ATOM     14  C   UNL     1      -0.152  -6.857  -1.206  0.00  0.00    +0.180 C 
ATOM     15  N   UNL     1      -0.386  -6.545  -2.636  0.00  0.00    -0.265 NA
ATOM     16  C   UNL     1       0.316  -7.637  -3.361  0.00  0.00    +0.242 C 
ATOM     17  O   UNL     1       0.063  -8.799  -2.538  0.00  0.00    -0.274 OA
ATOM     18  N   UNL     1       0.142  -8.305  -1.150  0.00  0.00    -0.177 NA
ATOM     19  H   UNL     1      -1.372  -6.545  -2.849  0.00  0.00    +0.127 HD
ATOM     20  H   UNL     1       1.055  -8.473  -0.756  0.00  0.00    +0.156 HD
BRANCH  14  24
ATOM     21  C   UNL     1      -3.648  -5.972   1.087  0.00  0.00    +0.121 A 
ATOM     22  C   UNL     1      -2.804  -7.001   1.476  0.00  0.00    +0.046 A 
ATOM     23  C   UNL     1      -1.675  -7.286   0.734  0.00  0.00    +0.010 A 
ATOM     24  C   UNL     1      -1.385  -6.545  -0.398  0.00  0.00    -0.014 A 
ATOM     25  C   UNL     1      -2.225  -5.518  -0.788  0.00  0.00    +0.010 A 
ATOM     26  C   UNL     1      -3.359  -5.234  -0.052  0.00  0.00    +0.046 A 
BRANCH  21  27
ATOM     27  O   UNL     1      -4.760  -5.691   1.815  0.00  0.00    -0.492 OA
BRANCH  27  29
ATOM     28  C   UNL     1      -6.283  -6.030   3.661  0.00  0.00    +0.048 C 
ATOM     29  C   UNL     1      -4.995  -6.492   2.975  0.00  0.00    +0.225 C 
ENDBRANCH  27  29
ENDBRANCH  21  27
ENDBRANCH  14  24
ENDBRANCH   1  16
BRANCH  11  30
ATOM     30  C   UNL     1      -2.553  -9.864 -10.405  0.00  0.00    +0.165 C 
BRANCH  30  31
ATOM     31  C   UNL     1      -4.044 -10.055 -10.299  0.00  0.00    -0.027 A 
ATOM     32  C   UNL     1      -4.566 -11.319 -10.098  0.00  0.00    +0.008 A 
ATOM     33  C   UNL     1      -5.933 -11.495 -10.000  0.00  0.00    +0.038 A 
ATOM     34  C   UNL     1      -6.780 -10.405 -10.104  0.00  0.00    +0.123 A 
ATOM     35  C   UNL     1      -6.256  -9.139 -10.306  0.00  0.00    +0.038 A 
ATOM     36  C   UNL     1      -4.888  -8.965 -10.398  0.00  0.00    +0.008 A 
ATOM     37  F   UNL     1      -8.117 -10.576 -10.009  0.00  0.00    -0.205 F 
ENDBRANCH  30  31
ENDBRANCH  11  30
TORSDOF 6
