REMARK  Name = ZINC44714090
REMARK  12 active torsions:
REMARK  status: ('A' for Active; 'I' for Inactive)
REMARK    1  A    between atoms: C_1  and  C_2
REMARK    2  A    between atoms: C_4  and  C_11
REMARK    3  A    between atoms: N_5  and  C_7
REMARK    4  A    between atoms: C_7  and  C_8
REMARK    5  A    between atoms: C_7  and  C_9
REMARK    6  A    between atoms: C_7  and  C_10
REMARK    7  A    between atoms: C_15  and  C_24
REMARK    8  A    between atoms: N_26  and  C_27
REMARK    9  A    between atoms: C_27  and  C_29
REMARK   10  A    between atoms: C_27  and  C_30
REMARK   11  A    between atoms: C_31  and  C_37
REMARK   12  A    between atoms: C_35  and  C_36
REMARK                            x       y       z     vdW  Elec       q    Type
REMARK                         _______ _______ _______ _____ _____    ______ ____
ROOT
ATOM      1  C   UNL     1      -0.585  -3.699  -2.336  0.00  0.00    +0.265 C 
ATOM      2  O   UNL     1      -0.563  -3.789  -3.549  0.00  0.00    -0.268 OA
ATOM      3  N   UNL     1      -0.785  -4.798  -1.582  0.00  0.00    -0.295 N 
ATOM      4  C   UNL     1      -0.976  -4.870  -0.114  0.00  0.00    +0.121 C 
ATOM      5  C   UNL     1      -2.064  -5.949   0.085  0.00  0.00    +0.100 C 
ATOM      6  C   UNL     1      -1.984  -6.825  -1.177  0.00  0.00    -0.004 C 
ATOM      7  C   UNL     1      -0.871  -6.208  -2.035  0.00  0.00    +0.115 C 
ATOM      8  C   UNL     1      -1.630  -8.261  -0.802  0.00  0.00    -0.010 C 
ATOM      9  C   UNL     1      -1.613  -9.124  -2.066  0.00  0.00    -0.082 C 
ATOM     10  N   UNL     1      -2.931  -9.077  -2.711  0.00  0.00    +0.379 N 
ATOM     11  C   UNL     1      -3.224  -7.708  -3.151  0.00  0.00    -0.082 C 
ATOM     12  C   UNL     1      -3.309  -6.784  -1.933  0.00  0.00    -0.010 C 
ATOM     13  H   UNL     1      -2.936  -9.694  -3.509  0.00  0.00    -0.086 HD
ATOM     14  H   UNL     1      -3.636  -9.376  -2.053  0.00  0.00    -0.086 HD
ENDROOT
BRANCH   1  18
ATOM     15  C   UNL     1       0.111   0.011   1.051  0.00  0.00    +0.067 C 
ATOM     16  C   UNL     1      -0.088  -0.760  -0.228  0.00  0.00    +0.061 A 
ATOM     17  C   UNL     1      -0.237  -2.145  -0.339  0.00  0.00    +0.057 A 
ATOM     18  C   UNL     1      -0.393  -2.390  -1.692  0.00  0.00    +0.124 A 
ATOM     19  N   UNL     1      -0.331  -1.173  -2.310  0.00  0.00    -0.254 N 
ATOM     20  N   UNL     1      -0.159  -0.252  -1.432  0.00  0.00    -0.175 NA
BRANCH  19  21
ATOM     21  C   UNL     1      -0.448  -0.953  -3.753  0.00  0.00    +0.056 C 
ATOM     22  C   UNL     1      -1.754  -1.570  -4.259  0.00  0.00    +0.036 C 
ATOM     23  C   UNL     1      -0.449   0.550  -4.041  0.00  0.00    +0.036 C 
ATOM     24  C   UNL     1       0.736  -1.608  -4.468  0.00  0.00    +0.036 C 
ENDBRANCH  19  21
ENDBRANCH   1  18
BRANCH   5  25
ATOM     25  C   UNL     1      -1.771  -6.769   1.315  0.00  0.00    +0.219 C 
ATOM     26  O   UNL     1      -0.631  -6.874   1.716  0.00  0.00    -0.275 OA
ATOM     27  N   UNL     1      -2.775  -7.385   1.970  0.00  0.00    -0.308 N 
ATOM     28  H   UNL     1      -3.676  -7.361   1.609  0.00  0.00    +0.149 HD
BRANCH  27  29
ATOM     29  C   UNL     1      -2.507  -8.090   3.225  0.00  0.00    +0.104 C 
ATOM     30  C   UNL     1      -2.642  -7.115   4.397  0.00  0.00    +0.033 C 
BRANCH  29  31
ATOM     31  C   UNL     1      -3.497  -9.214   3.392  0.00  0.00    +0.015 A 
ATOM     32  C   UNL     1      -3.204 -10.488   3.740  0.00  0.00    +0.038 A 
ATOM     33  N   UNL     1      -4.362 -11.181   3.780  0.00  0.00    -0.281 N 
ATOM     34  H   UNL     1      -4.457 -12.120   4.003  0.00  0.00    +0.189 HD
ATOM     35  N   UNL     1      -5.401 -10.303   3.445  0.00  0.00    -0.179 NA
ATOM     36  C   UNL     1      -4.882  -9.123   3.218  0.00  0.00    +0.065 A 
ATOM     37  C   UNL     1      -5.645  -7.882   2.832  0.00  0.00    +0.068 C 
ATOM     38  C   UNL     1      -1.831 -11.036   4.032  0.00  0.00    +0.065 C 
ENDBRANCH  29  31
ENDBRANCH  27  29
ENDBRANCH   5  25
TORSDOF 5
