REMARK  Name = ZINC43764359
REMARK  14 active torsions:
REMARK  status: ('A' for Active; 'I' for Inactive)
REMARK    1  A    between atoms: C_1  and  C_2
REMARK    2  A    between atoms: C_2  and  O_3
REMARK    3  A    between atoms: O_3  and  C_4
REMARK    4  A    between atoms: C_4  and  C_6
REMARK    5  A    between atoms: C_9  and  C_37
REMARK    6  A    between atoms: C_15  and  C_36
REMARK    7  A    between atoms: C_25  and  C_35
REMARK    8  A    between atoms: C_28  and  O_31
REMARK    9  A    between atoms: O_31  and  C_32
REMARK   10  A    between atoms: C_32  and  C_34
REMARK   11  A    between atoms: C_37  and  C_43
REMARK   12  A    between atoms: N_38  and  O_39
REMARK   13  A    between atoms: O_39  and  C_40
REMARK   14  A    between atoms: C_40  and  C_42
REMARK                            x       y       z     vdW  Elec       q    Type
REMARK                         _______ _______ _______ _____ _____    ______ ____
ROOT
ATOM      1  C   UNL     1       1.341  -2.281  -2.703  0.00  0.00    +0.171 C 
ATOM      2  N   UNL     1       1.892  -1.559  -3.618  0.00  0.00    -0.081 NA
ATOM      3  O   UNL     1       2.519  -2.321  -4.625  0.00  0.00    -0.379 OA
ATOM      4  C   UNL     1       2.581  -3.695  -4.222  0.00  0.00    +0.193 C 
ATOM      5  C   UNL     1       1.581  -3.736  -3.018  0.00  0.00    +0.101 C 
ATOM      6  C   UNL     1       2.337  -4.421  -1.853  0.00  0.00    +0.019 C 
ATOM      7  C   UNL     1       3.520  -5.089  -2.561  0.00  0.00    +0.004 C 
ATOM      8  C   UNL     1       3.945  -4.006  -3.569  0.00  0.00    +0.020 C 
ATOM      9  C   UNL     1       5.014  -4.550  -4.479  0.00  0.00    +0.011 C 
ATOM     10  C   UNL     1       6.150  -5.215  -3.691  0.00  0.00    +0.005 C 
ATOM     11  C   UNL     1       5.993  -5.116  -2.186  0.00  0.00    +0.003 C 
ATOM     12  C   UNL     1       4.640  -5.614  -1.700  0.00  0.00    +0.000 C 
ATOM     13  C   UNL     1       4.598  -7.149  -1.804  0.00  0.00    +0.031 C 
ATOM     14  C   UNL     1       5.776  -7.763  -1.118  0.00  0.00    -0.027 C 
ATOM     15  C   UNL     1       6.910  -7.147  -0.974  0.00  0.00    -0.064 C 
ATOM     16  C   UNL     1       7.159  -5.749  -1.445  0.00  0.00    -0.008 C 
ATOM     17  C   UNL     1       8.428  -5.717  -2.296  0.00  0.00    +0.015 C 
ATOM     18  C   UNL     1       9.594  -6.363  -1.552  0.00  0.00    +0.046 C 
ATOM     19  C   UNL     1       9.280  -7.814  -1.195  0.00  0.00    +0.180 C 
ATOM     20  C   UNL     1       8.050  -7.880  -0.286  0.00  0.00    +0.075 C 
ATOM     21  C   UNL     1       7.402  -4.874  -0.207  0.00  0.00    +0.016 C 
ATOM     22  C   UNL     1       4.423  -2.712  -2.895  0.00  0.00    +0.016 C 
ENDROOT
BRANCH   4  23
ATOM     23  C   UNL     1       2.197  -4.644  -5.331  0.00  0.00    +0.102 C 
ATOM     24  N   UNL     1       2.514  -4.375  -6.542  0.00  0.00    -0.080 NA
ATOM     25  C   UNL     1       1.440  -5.908  -5.013  0.00  0.00    +0.068 C 
BRANCH  24  26
ATOM     26  O   UNL     1       3.324  -3.250  -6.828  0.00  0.00    -0.318 OA
BRANCH  26  27
ATOM     27  C   UNL     1       3.670  -3.141  -8.120  0.00  0.00    +0.333 C 
ATOM     28  O   UNL     1       3.215  -3.910  -8.934  0.00  0.00    -0.249 OA
ATOM     29  C   UNL     1       4.625  -2.060  -8.556  0.00  0.00    +0.138 C 
ENDBRANCH  26  27
ENDBRANCH  24  26
ENDBRANCH   4  23
BRANCH   1  30
ATOM     30  C   UNL     1       0.602  -1.754  -1.538  0.00  0.00    +0.357 C 
ATOM     31  O   UNL     1       0.122  -2.520  -0.726  0.00  0.00    -0.243 OA
BRANCH  30  32
ATOM     32  O   UNL     1       0.460  -0.424  -1.375  0.00  0.00    -0.461 OA
BRANCH  32  34
ATOM     33  C   UNL     1      -0.323   1.544  -0.211  0.00  0.00    +0.048 C 
ATOM     34  C   UNL     1      -0.267   0.015  -0.225  0.00  0.00    +0.229 C 
ENDBRANCH  32  34
ENDBRANCH  30  32
ENDBRANCH   1  30
BRANCH  19  35
ATOM     35  O   UNL     1       9.035  -8.562  -2.388  0.00  0.00    -0.461 OA
BRANCH  35  36
ATOM     36  C   UNL     1       9.349  -9.866  -2.364  0.00  0.00    +0.304 C 
ATOM     37  O   UNL     1       9.816 -10.357  -1.364  0.00  0.00    -0.251 OA
ATOM     38  C   UNL     1       9.119 -10.719  -3.585  0.00  0.00    +0.136 C 
ENDBRANCH  35  36
ENDBRANCH  19  35
TORSDOF 8
