REMARK  Name = ZINC35304163
REMARK  14 active torsions:
REMARK  status: ('A' for Active; 'I' for Inactive)
REMARK    1  A    between atoms: C_1  and  C_2
REMARK    2  A    between atoms: C_2  and  N_3
REMARK    3  A    between atoms: C_4  and  C_35
REMARK    4  A    between atoms: C_5  and  C_30
REMARK    5  A    between atoms: C_6  and  C_11
REMARK    6  A    between atoms: C_14  and  N_17
REMARK    7  A    between atoms: N_17  and  S_18
REMARK    8  A    between atoms: S_18  and  C_21
REMARK    9  A    between atoms: C_22  and  C_29
REMARK   10  A    between atoms: C_24  and  C_28
REMARK   11  A    between atoms: C_26  and  C_27
REMARK   12  A    between atoms: C_30  and  O_32
REMARK   13  A    between atoms: O_32  and  C_33
REMARK   14  A    between atoms: C_33  and  C_34
REMARK                            x       y       z     vdW  Elec       q    Type
REMARK                         _______ _______ _______ _____ _____    ______ ____
ROOT
ATOM      1  C   UNL     1       0.648  -1.424  -3.820  0.00  0.00    -0.022 A 
ATOM      2  C   UNL     1       0.666  -2.474  -2.921  0.00  0.00    +0.007 A 
ATOM      3  C   UNL     1       1.549  -3.521  -3.096  0.00  0.00    +0.025 A 
ATOM      4  C   UNL     1       2.421  -3.518  -4.178  0.00  0.00    +0.048 A 
ATOM      5  C   UNL     1       2.400  -2.462  -5.080  0.00  0.00    +0.025 A 
ATOM      6  C   UNL     1       1.510  -1.421  -4.901  0.00  0.00    +0.007 A 
ENDROOT
BRANCH   1  10
ATOM      7  N   UNL     1      -0.371   2.071  -5.076  0.00  0.00    -0.286 N 
ATOM      8  C   UNL     1       0.397   2.043  -3.949  0.00  0.00    +0.021 C 
ATOM      9  C   UNL     1       0.476   0.931  -3.186  0.00  0.00    +0.078 C 
ATOM     10  C   UNL     1      -0.317  -0.283  -3.625  0.00  0.00    +0.141 C 
ATOM     11  N   UNL     1      -1.115  -0.149  -4.856  0.00  0.00    -0.315 N 
ATOM     12  C   UNL     1      -1.096   1.031  -5.507  0.00  0.00    +0.138 C 
ATOM     13  S   UNL     1      -2.024   1.203  -6.936  0.00  0.00    -0.018 S 
ATOM     14  C   UNL     1       1.170   3.273  -3.549  0.00  0.00    +0.061 C 
ATOM     15  H   UNL     1      -1.644  -0.891  -5.188  0.00  0.00    +0.149 HD
BRANCH   7  17
ATOM     16  C   UNL     1       0.790   3.355  -6.803  0.00  0.00    +0.025 C 
ATOM     17  C   UNL     1      -0.410   3.311  -5.856  0.00  0.00    +0.109 C 
ENDBRANCH   7  17
BRANCH   9  18
ATOM     18  C   UNL     1       1.273   0.900  -2.018  0.00  0.00    +0.339 C 
ATOM     19  O   UNL     1       1.875   1.897  -1.666  0.00  0.00    -0.245 OA
BRANCH  18  20
ATOM     20  O   UNL     1       1.366  -0.235  -1.294  0.00  0.00    -0.462 OA
BRANCH  20  21
ATOM     21  C   UNL     1       2.095  -0.164  -0.067  0.00  0.00    +0.229 C 
ATOM     22  C   UNL     1       2.189  -1.560   0.552  0.00  0.00    +0.048 C 
ENDBRANCH  20  21
ENDBRANCH  18  20
ENDBRANCH   9  18
ENDBRANCH   1  10
BRANCH   4  23
ATOM     23  N   UNL     1       3.316  -4.575  -4.359  0.00  0.00    -0.216 N 
ATOM     24  H   UNL     1       4.263  -4.442  -4.196  0.00  0.00    +0.174 HD
BRANCH  23  25
ATOM     25  S   UNL     1       2.760  -6.056  -4.850  0.00  0.00    +0.073 S 
ATOM     26  O   UNL     1       3.904  -6.878  -5.033  0.00  0.00    -0.150 OA
ATOM     27  O   UNL     1       1.703  -6.406  -3.967  0.00  0.00    -0.150 OA
BRANCH  25  28
ATOM     28  C   UNL     1       2.036  -5.839  -6.441  0.00  0.00    +0.114 A 
ATOM     29  C   UNL     1       2.764  -6.135  -7.578  0.00  0.00    -0.023 A 
ATOM     30  C   UNL     1       2.196  -5.965  -8.827  0.00  0.00    +0.008 A 
ATOM     31  C   UNL     1       0.899  -5.499  -8.939  0.00  0.00    -0.050 A 
ATOM     32  C   UNL     1       0.171  -5.203  -7.801  0.00  0.00    +0.008 A 
ATOM     33  C   UNL     1       0.738  -5.378  -6.553  0.00  0.00    -0.023 A 
ATOM     34  C   UNL     1      -0.058  -5.061  -5.313  0.00  0.00    +0.046 C 
ATOM     35  C   UNL     1       0.280  -5.312 -10.300  0.00  0.00    +0.044 C 
ATOM     36  C   UNL     1       4.178  -6.643  -7.457  0.00  0.00    +0.046 C 
ENDBRANCH  25  28
ENDBRANCH  23  25
ENDBRANCH   4  23
TORSDOF 8
