REMARK  Name = ZINC03335562
REMARK  12 active torsions:
REMARK  status: ('A' for Active; 'I' for Inactive)
REMARK    1  A    between atoms: C_1  and  C_2
REMARK    2  A    between atoms: C_2  and  O_3
REMARK    3  A    between atoms: O_3  and  C_4
REMARK    4  A    between atoms: C_7  and  N_10
REMARK    5  A    between atoms: C_11  and  C_25
REMARK    6  A    between atoms: C_14  and  S_15
REMARK    7  A    between atoms: S_15  and  C_16
REMARK    8  A    between atoms: C_16  and  C_17
REMARK    9  A    between atoms: C_17  and  C_19
REMARK   10  A    between atoms: C_19  and  C_21
REMARK   11  A    between atoms: C_19  and  C_23
REMARK   12  A    between atoms: C_23  and  N_55
REMARK                            x       y       z     vdW  Elec       q    Type
REMARK                         _______ _______ _______ _____ _____    ______ ____
ROOT
ATOM      1  N   UNL     1      -2.321  -1.569   0.010  0.00  0.00    -0.270 N 
ATOM      2  C   UNL     1      -3.677  -1.329   0.029  0.00  0.00    +0.171 A 
ATOM      3  N   UNL     1      -3.836  -0.024   0.037  0.00  0.00    -0.128 NA
ATOM      4  N   UNL     1      -2.692   0.559   0.030  0.00  0.00    -0.122 NA
ATOM      5  C   UNL     1      -1.729  -0.334   0.017  0.00  0.00    +0.197 A 
ENDROOT
BRANCH   2   6
ATOM      6  C   UNL     1      -4.749  -2.344   0.033  0.00  0.00    +0.045 A 
ATOM      7  C   UNL     1      -4.590  -3.692   0.018  0.00  0.00    +0.095 A 
ATOM      8  N   UNL     1      -5.811  -4.301   0.032  0.00  0.00    -0.360 N 
ATOM      9  H   UNL     1      -5.953  -5.261   0.027  0.00  0.00    +0.165 HD
ATOM     10  C   UNL     1      -6.814  -3.356   0.047  0.00  0.00    +0.047 A 
ATOM     11  C   UNL     1      -6.200  -2.091   0.048  0.00  0.00    +0.010 A 
ATOM     12  C   UNL     1      -6.981  -0.937   0.062  0.00  0.00    +0.011 A 
ATOM     13  C   UNL     1      -8.354  -1.042   0.074  0.00  0.00    +0.001 A 
ATOM     14  C   UNL     1      -8.961  -2.290   0.072  0.00  0.00    +0.002 A 
ATOM     15  C   UNL     1      -8.203  -3.440   0.059  0.00  0.00    +0.026 A 
ENDBRANCH   2   6
BRANCH   1  19
ATOM     16  C   UNL     1      -0.416  -5.280  -0.046  0.00  0.00    +0.121 A 
ATOM     17  C   UNL     1      -0.271  -4.443   1.050  0.00  0.00    +0.047 A 
ATOM     18  C   UNL     1      -0.901  -3.214   1.069  0.00  0.00    +0.030 A 
ATOM     19  C   UNL     1      -1.681  -2.817  -0.009  0.00  0.00    +0.051 A 
ATOM     20  C   UNL     1      -1.831  -3.658  -1.103  0.00  0.00    +0.030 A 
ATOM     21  C   UNL     1      -1.195  -4.884  -1.124  0.00  0.00    +0.047 A 
BRANCH  16  22
ATOM     22  O   UNL     1       0.204  -6.490  -0.065  0.00  0.00    -0.492 OA
BRANCH  22  24
ATOM     23  C   UNL     1       0.780  -8.613  -1.064  0.00  0.00    +0.048 C 
ATOM     24  C   UNL     1       0.011  -7.301  -1.225  0.00  0.00    +0.225 C 
ENDBRANCH  22  24
ENDBRANCH  16  22
ENDBRANCH   1  19
BRANCH   5  25
ATOM     25  S   UNL     1       0.002  -0.004   0.002  0.00  0.00    -0.078 S 
BRANCH  25  26
ATOM     26  C   UNL     1      -0.022   1.806   0.012  0.00  0.00    +0.153 C 
BRANCH  26  27
ATOM     27  C   UNL     1       1.391   2.327   0.001  0.00  0.00    +0.166 C 
ATOM     28  O   UNL     1       2.320   1.555  -0.012  0.00  0.00    -0.295 OA
BRANCH  27  29
ATOM     29  C   UNL     1       1.647   3.813   0.007  0.00  0.00    +0.200 C 
BRANCH  29  30
ATOM     30  C   UNL     1       1.743   4.289   1.396  0.00  0.00    +0.079 C 
ATOM     31  N   UNL     1       1.817   4.656   2.469  0.00  0.00    -0.195 NA
ENDBRANCH  29  30
BRANCH  29  32
ATOM     32  C   UNL     1       2.938   4.103  -0.714  0.00  0.00    +0.003 C 
ATOM     33  C   UNL     1       2.936   4.877  -1.783  0.00  0.00    +0.028 C 
BRANCH  32  36
ATOM     34  H   UNL     1       4.129   2.987   0.532  0.00  0.00    +0.120 HD
ATOM     35  H   UNL     1       4.960   3.743  -0.718  0.00  0.00    +0.120 HD
ATOM     36  N   UNL     1       4.092   3.331  -0.414  0.00  0.00    -0.419 NA
ATOM     37  H   UNL     1       4.020   2.477  -0.979  0.00  0.00    +0.120 HD
ENDBRANCH  32  36
ENDBRANCH  29  32
ENDBRANCH  27  29
ENDBRANCH  26  27
ENDBRANCH  25  26
ENDBRANCH   5  25
TORSDOF 11
