REMARK  Name = ZINC39220969
REMARK  8 active torsions:
REMARK  status: ('A' for Active; 'I' for Inactive)
REMARK    1  A    between atoms: C_6  and  C_30
REMARK    2  A    between atoms: C_7  and  N_9
REMARK    3  A    between atoms: C_10  and  C_12
REMARK    4  A    between atoms: C_12  and  N_13
REMARK    5  A    between atoms: N_13  and  C_14
REMARK    6  A    between atoms: C_14  and  C_15
REMARK    7  A    between atoms: N_17  and  C_18
REMARK    8  A    between atoms: C_19  and  C_27
REMARK                            x       y       z     vdW  Elec       q    Type
REMARK                         _______ _______ _______ _____ _____    ______ ____
ROOT
ATOM      1  N   UNL     1       4.123  -4.527   6.113  0.00  0.00    +0.390 N 
ATOM      2  H   UNL     1       4.987  -4.269   5.659  0.00  0.00    -0.085 HD
ATOM      3  H   UNL     1       3.857  -3.804   6.765  0.00  0.00    -0.085 HD
ENDROOT
BRANCH   1   4
ATOM      4  C   UNL     1       3.068  -4.688   5.103  0.00  0.00    +0.016 C 
BRANCH   4   6
ATOM      5  N   UNL     1       1.957  -3.299   3.384  0.00  0.00    -0.281 N 
ATOM      6  C   UNL     1       2.879  -3.389   4.363  0.00  0.00    +0.201 C 
ATOM      7  O   UNL     1       3.556  -2.424   4.649  0.00  0.00    -0.278 OA
ATOM      8  H   UNL     1       1.416  -4.071   3.155  0.00  0.00    +0.155 HD
BRANCH   5  15
ATOM      9  C   UNL     1      -0.019   1.526   0.010  0.00  0.00    +0.005 C 
ATOM     10  C   UNL     1       1.414   2.067  -0.000  0.00  0.00    +0.005 C 
ATOM     11  C   UNL     1       2.067   1.772   1.358  0.00  0.00    +0.043 C 
ATOM     12  C   UNL     1       1.810   0.337   1.702  0.00  0.00    -0.004 A 
ATOM     13  C   UNL     1       0.907  -0.486   1.127  0.00  0.00    -0.023 A 
ATOM     14  C   UNL     1       0.892  -1.830   1.677  0.00  0.00    +0.068 A 
ATOM     15  C   UNL     1       1.783  -2.104   2.703  0.00  0.00    +0.084 A 
ATOM     16  S   UNL     1       2.603  -0.656   2.932  0.00  0.00    -0.077 S 
ATOM     17  C   UNL     1       0.002  -0.004   0.002  0.00  0.00    +0.037 C 
BRANCH  14  18
ATOM     18  C   UNL     1      -0.026  -2.853   1.169  0.00  0.00    +0.244 C 
ATOM     19  O   UNL     1       0.315  -3.576   0.251  0.00  0.00    -0.270 OA
ATOM     20  N   UNL     1      -1.249  -2.994   1.719  0.00  0.00    -0.325 N 
ATOM     21  H   UNL     1      -1.520  -2.418   2.451  0.00  0.00    +0.145 HD
ATOM     22  H   UNL     1      -1.857  -3.671   1.383  0.00  0.00    +0.145 HD
ENDBRANCH  14  18
ENDBRANCH   5  15
ENDBRANCH   4   6
ENDBRANCH   1   4
BRANCH   1  23
ATOM     23  C   UNL     1       4.307  -5.793   6.835  0.00  0.00    +0.016 C 
BRANCH  23  24
ATOM     24  C   UNL     1       5.389  -5.628   7.871  0.00  0.00    +0.201 C 
ATOM     25  O   UNL     1       5.951  -4.560   7.996  0.00  0.00    -0.278 OA
ATOM     26  N   UNL     1       5.732  -6.666   8.658  0.00  0.00    -0.281 N 
ATOM     27  H   UNL     1       5.283  -7.520   8.559  0.00  0.00    +0.155 HD
BRANCH  26  28
ATOM     28  C   UNL     1       6.728  -6.514   9.612  0.00  0.00    +0.084 A 
ATOM     29  C   UNL     1       7.211  -7.464  10.497  0.00  0.00    +0.068 A 
ATOM     30  C   UNL     1       8.268  -7.050  11.404  0.00  0.00    -0.023 A 
ATOM     31  C   UNL     1       8.647  -5.762  11.258  0.00  0.00    -0.004 A 
ATOM     32  S   UNL     1       7.629  -5.139   9.953  0.00  0.00    -0.077 S 
ATOM     33  C   UNL     1       9.702  -5.041  12.039  0.00  0.00    +0.043 C 
ATOM     34  C   UNL     1      10.032  -5.874  13.287  0.00  0.00    +0.005 C 
ATOM     35  C   UNL     1      10.250  -7.330  12.868  0.00  0.00    +0.005 C 
ATOM     36  C   UNL     1       8.920  -7.954  12.440  0.00  0.00    +0.037 C 
BRANCH  29  37
ATOM     37  C   UNL     1       6.678  -8.830  10.519  0.00  0.00    +0.244 C 
ATOM     38  O   UNL     1       7.180  -9.690   9.819  0.00  0.00    -0.270 OA
ATOM     39  N   UNL     1       5.633  -9.133  11.314  0.00  0.00    -0.325 N 
ATOM     40  H   UNL     1       5.233  -8.447  11.871  0.00  0.00    +0.145 HD
ATOM     41  H   UNL     1       5.280 -10.036  11.328  0.00  0.00    +0.145 HD
ENDBRANCH  29  37
ENDBRANCH  26  28
ENDBRANCH  23  24
ENDBRANCH   1  23
TORSDOF 8
