REMARK  Name = ZINC03115673
REMARK  6 active torsions:
REMARK  status: ('A' for Active; 'I' for Inactive)
REMARK    1  A    between atoms: C_1  and  C_2
REMARK    2  A    between atoms: C_2  and  C_30
REMARK    3  A    between atoms: C_3  and  C_26
REMARK    4  A    between atoms: C_5  and  C_7
REMARK    5  A    between atoms: N_9  and  N_10
REMARK    6  A    between atoms: C_11  and  C_12
REMARK                            x       y       z     vdW  Elec       q    Type
REMARK                         _______ _______ _______ _____ _____    ______ ____
ROOT
ATOM      1  N   UNL     1      -0.765  -2.690  -2.526  0.00  0.00    -0.188 NA
ATOM      2  C   UNL     1      -0.779  -3.990  -2.582  0.00  0.00    +0.139 C 
ENDROOT
BRANCH   2   3
ATOM      3  C   UNL     1      -1.173  -4.666  -3.822  0.00  0.00    +0.010 A 
ATOM      4  C   UNL     1      -1.071  -6.068  -3.934  0.00  0.00    -0.009 A 
ATOM      5  C   UNL     1      -0.591  -6.848  -2.867  0.00  0.00    +0.009 A 
ATOM      6  C   UNL     1      -0.505  -8.197  -3.008  0.00  0.00    +0.001 A 
ATOM      7  C   UNL     1      -0.881  -8.835  -4.189  0.00  0.00    +0.001 A 
ATOM      8  C   UNL     1      -1.363  -8.141  -5.252  0.00  0.00    +0.008 A 
ATOM      9  C   UNL     1      -1.472  -6.736  -5.174  0.00  0.00    -0.017 A 
ATOM     10  C   UNL     1      -1.946  -5.991  -6.254  0.00  0.00    +0.017 A 
ATOM     11  C   UNL     1      -2.045  -4.603  -6.154  0.00  0.00    -0.017 A 
ATOM     12  C   UNL     1      -1.653  -3.921  -4.918  0.00  0.00    -0.009 A 
ATOM     13  C   UNL     1      -1.766  -2.521  -4.851  0.00  0.00    +0.009 A 
ATOM     14  C   UNL     1      -2.232  -1.832  -5.926  0.00  0.00    +0.001 A 
ATOM     15  C   UNL     1      -2.606  -2.478  -7.104  0.00  0.00    +0.001 A 
ATOM     16  C   UNL     1      -2.522  -3.828  -7.233  0.00  0.00    +0.008 A 
ENDBRANCH   2   3
BRANCH   1  19
ATOM     17  C   UNL     1      -0.374  -0.698  -1.282  0.00  0.00    +0.236 C 
ATOM     18  O   UNL     1      -0.687  -0.045  -2.255  0.00  0.00    -0.274 OA
ATOM     19  N   UNL     1      -0.389  -2.045  -1.341  0.00  0.00    -0.207 N 
ATOM     20  H   UNL     1      -0.139  -2.567  -0.562  0.00  0.00    +0.177 HD
BRANCH  17  24
ATOM     21  C   UNL     1      -0.388   2.234  -1.296  0.00  0.00    +0.012 C 
ATOM     22  C   UNL     1       0.027   1.526  -0.004  0.00  0.00    -0.016 C 
ATOM     23  C   UNL     1       1.354   0.765  -0.010  0.00  0.00    +0.033 C 
ATOM     24  C   UNL     1       0.030  -0.004  -0.007  0.00  0.00    +0.090 C 
ATOM     25  C   UNL     1      -0.379   2.229   1.293  0.00  0.00    +0.012 C 
BRANCH  23  26
ATOM     26  C   UNL     1       2.162   0.764   1.262  0.00  0.00    +0.010 C 
ATOM     27  C   UNL     1       3.377   1.260   1.268  0.00  0.00    +0.103 C 
ATOM     28 CL   UNL     1       4.054   1.917  -0.190  0.00  0.00    -0.071 Cl
ATOM     29 CL   UNL     1       4.308   1.260   2.733  0.00  0.00    -0.071 Cl
ENDBRANCH  23  26
ENDBRANCH  17  24
ENDBRANCH   1  19
TORSDOF 4
