REMARK  Name = ZINC16804243
REMARK  13 active torsions:
REMARK  status: ('A' for Active; 'I' for Inactive)
REMARK    1  A    between atoms: C_1  and  C_2
REMARK    2  A    between atoms: N_4  and  C_5
REMARK    3  A    between atoms: C_8  and  S_11
REMARK    4  A    between atoms: S_11  and  N_14
REMARK    5  A    between atoms: N_14  and  C_15
REMARK    6  A    between atoms: C_15  and  C_16
REMARK    7  A    between atoms: C_16  and  O_18
REMARK    8  A    between atoms: O_18  and  C_19
REMARK    9  A    between atoms: C_19  and  C_20
REMARK   10  A    between atoms: N_22  and  C_23
REMARK   11  A    between atoms: N_22  and  C_28
REMARK   12  A    between atoms: C_23  and  C_24
REMARK   13  A    between atoms: C_24  and  C_25
REMARK                            x       y       z     vdW  Elec       q    Type
REMARK                         _______ _______ _______ _____ _____    ______ ____
ROOT
ATOM      1  C   UNL     1       0.242   9.305   3.224  0.00  0.00    +0.323 C 
ATOM      2  O   UNL     1      -0.648  10.107   3.378  0.00  0.00    -0.249 OA
ENDROOT
BRANCH   1   3
ATOM      3  C   UNL     1       0.234   8.390   2.027  0.00  0.00    +0.226 C 
BRANCH   3   4
ATOM      4  N   UNL     1      -0.949   8.668   1.208  0.00  0.00    -0.179 NA
ATOM      5  H   UNL     1      -1.680   9.190   1.574  0.00  0.00    +0.149 HD
BRANCH   4   6
ATOM      6  S   UNL     1      -1.037   8.091  -0.341  0.00  0.00    +0.059 S 
ATOM      7  O   UNL     1       0.190   8.432  -0.972  0.00  0.00    -0.153 OA
ATOM      8  O   UNL     1      -2.297   8.498  -0.855  0.00  0.00    -0.153 OA
BRANCH   6  12
ATOM      9  C   UNL     1      -1.145   3.571  -0.084  0.00  0.00    +0.033 A 
ATOM     10  C   UNL     1       0.072   4.234  -0.173  0.00  0.00    +0.025 A 
ATOM     11  C   UNL     1       0.101   5.612  -0.258  0.00  0.00    +0.030 A 
ATOM     12  C   UNL     1      -1.079   6.332  -0.241  0.00  0.00    +0.105 A 
ATOM     13  C   UNL     1      -2.292   5.675  -0.145  0.00  0.00    +0.030 A 
ATOM     14  C   UNL     1      -2.328   4.297  -0.067  0.00  0.00    +0.025 A 
BRANCH   9  18
ATOM     15  C   UNL     1      -2.163  -0.017  -0.594  0.00  0.00    +0.109 C 
ATOM     16  C   UNL     1      -2.180   1.490  -0.591  0.00  0.00    +0.214 C 
ATOM     17  O   UNL     1      -3.099   2.086  -1.111  0.00  0.00    -0.276 OA
ATOM     18  N   UNL     1      -1.178   2.174  -0.004  0.00  0.00    -0.286 N 
ATOM     19  H   UNL     1      -0.480   1.698   0.472  0.00  0.00    +0.155 HD
ENDBRANCH   9  18
ENDBRANCH   6  12
ENDBRANCH   4   6
ENDBRANCH   3   4
ENDBRANCH   1   3
BRANCH   1  20
ATOM     20  O   UNL     1       1.239   9.230   4.120  0.00  0.00    -0.454 OA
BRANCH  20  21
ATOM     21  C   UNL     1       1.182  10.142   5.248  0.00  0.00    +0.328 C 
BRANCH  21  22
ATOM     22  C   UNL     1       2.375   9.913   6.141  0.00  0.00    +0.258 C 
ATOM     23  O   UNL     1       3.192   9.064   5.854  0.00  0.00    -0.272 OA
ATOM     24  N   UNL     1       2.533  10.651   7.257  0.00  0.00    -0.268 N 
BRANCH  24  25
ATOM     25  C   UNL     1       3.692  10.512   8.030  0.00  0.00    +0.037 A 
ATOM     26  C   UNL     1       3.954   9.314   8.682  0.00  0.00    +0.026 A 
ATOM     27  C   UNL     1       5.101   9.178   9.439  0.00  0.00    +0.040 A 
ATOM     28  C   UNL     1       5.984  10.237   9.557  0.00  0.00    +0.124 A 
ATOM     29  C   UNL     1       5.723  11.434   8.912  0.00  0.00    +0.040 A 
ATOM     30  C   UNL     1       4.579  11.573   8.149  0.00  0.00    +0.026 A 
ATOM     31  F   UNL     1       7.103  10.103  10.302  0.00  0.00    -0.205 F 
ENDBRANCH  24  25
BRANCH  24  32
ATOM     32  C   UNL     1       1.492  11.598   7.662  0.00  0.00    +0.123 C 
BRANCH  32  33
ATOM     33  C   UNL     1       0.489  10.893   8.578  0.00  0.00    +0.115 C 
BRANCH  33  34
ATOM     34  C   UNL     1      -0.582  11.868   8.995  0.00  0.00    +0.212 C 
ATOM     35  O   UNL     1      -0.547  13.014   8.599  0.00  0.00    -0.276 OA
ATOM     36  N   UNL     1      -1.579  11.466   9.809  0.00  0.00    -0.329 N 
ATOM     37  H   UNL     1      -1.607  10.550  10.126  0.00  0.00    +0.145 HD
ATOM     38  H   UNL     1      -2.268  12.094  10.077  0.00  0.00    +0.145 HD
ENDBRANCH  33  34
ENDBRANCH  32  33
ENDBRANCH  24  32
ENDBRANCH  21  22
ENDBRANCH  20  21
ENDBRANCH   1  20
TORSDOF 12
