REMARK  Name = ZINC34868786
REMARK  3 active torsions:
REMARK  status: ('A' for Active; 'I' for Inactive)
REMARK    1  A    between atoms: C_1  and  C_2
REMARK    2  A    between atoms: N_24  and  C_27
REMARK    3  A    between atoms: C_32  and  C_33
REMARK                            x       y       z     vdW  Elec       q    Type
REMARK                         _______ _______ _______ _____ _____    ______ ____
ROOT
ATOM      1  C   UNL     1      -0.018   1.503   0.010  0.00  0.00    +0.045 C 
ATOM      2  C   UNL     1       0.002  -0.004   0.002  0.00  0.00    -0.029 A 
ATOM      3  C   UNL     1       0.006  -0.684  -1.198  0.00  0.00    +0.005 A 
ATOM      4  C   UNL     1       0.023  -2.066  -1.214  0.00  0.00    +0.001 A 
ATOM      5  C   UNL     1       0.038  -2.768  -0.023  0.00  0.00    +0.008 A 
ATOM      6  C   UNL     1       0.037  -2.097   1.180  0.00  0.00    +0.004 A 
ATOM      7  C   UNL     1       0.023  -0.703   1.206  0.00  0.00    +0.042 A 
ATOM      8  N   UNL     1       0.027  -0.245   2.525  0.00  0.00    -0.283 N 
ATOM      9  C   UNL     1       0.051  -1.256   3.414  0.00  0.00    +0.243 C 
ATOM     10  O   UNL     1       0.060  -1.159   4.623  0.00  0.00    -0.273 OA
ATOM     11  C   UNL     1       0.051  -2.531   2.615  0.00  0.00    +0.138 C 
ATOM     12  C   UNL     1      -1.111  -3.443   2.969  0.00  0.00    +0.123 C 
ATOM     13  C   UNL     1      -0.531  -4.754   2.311  0.00  0.00    +0.107 C 
ATOM     14  C   UNL     1       0.872  -4.803   2.758  0.00  0.00    +0.071 C 
ATOM     15  N   UNL     1       1.236  -3.350   2.943  0.00  0.00    -0.281 NA
ATOM     16  C   UNL     1       2.429  -3.027   2.172  0.00  0.00    +0.086 C 
ATOM     17  C   UNL     1       3.033  -4.369   1.703  0.00  0.00    +0.017 C 
ATOM     18  C   UNL     1       1.793  -5.318   1.627  0.00  0.00    +0.021 C 
ATOM     19  C   UNL     1      -1.699  -5.596   2.236  0.00  0.00    +0.232 C 
ATOM     20  O   UNL     1      -1.752  -6.802   2.354  0.00  0.00    -0.274 OA
ATOM     21  N   UNL     1      -2.739  -4.730   2.002  0.00  0.00    -0.209 N 
ATOM     22  C   UNL     1      -2.400  -3.409   2.208  0.00  0.00    +0.233 C 
ATOM     23  O   UNL     1      -3.008  -2.424   1.848  0.00  0.00    -0.274 OA
ATOM     24  H   UNL     1       0.014   0.693   2.772  0.00  0.00    +0.155 HD
ENDROOT
BRANCH  21  25
ATOM     25  C   UNL     1      -4.019  -5.144   1.605  0.00  0.00    +0.056 A 
ATOM     26  C   UNL     1      -4.985  -5.427   2.561  0.00  0.00    +0.024 A 
ATOM     27  C   UNL     1      -6.245  -5.834   2.168  0.00  0.00    +0.002 A 
ATOM     28  C   UNL     1      -6.544  -5.960   0.824  0.00  0.00    +0.001 A 
ATOM     29  C   UNL     1      -5.584  -5.678  -0.131  0.00  0.00    +0.014 A 
ATOM     30  C   UNL     1      -4.324  -5.265   0.257  0.00  0.00    +0.077 A 
BRANCH  30  31
ATOM     31  C   UNL     1      -3.280  -4.953  -0.784  0.00  0.00    +0.419 C 
ATOM     32  F   UNL     1      -3.820  -5.148  -2.060  0.00  0.00    -0.166 F 
ATOM     33  F   UNL     1      -2.870  -3.622  -0.649  0.00  0.00    -0.166 F 
ATOM     34  F   UNL     1      -2.179  -5.799  -0.609  0.00  0.00    -0.166 F 
ENDBRANCH  30  31
ENDBRANCH  21  25
TORSDOF 2
