REMARK  Name = ZINC21029844
REMARK  11 active torsions:
REMARK  status: ('A' for Active; 'I' for Inactive)
REMARK    1  A    between atoms: C_1  and  C_2
REMARK    2  A    between atoms: C_2  and  C_4
REMARK    3  A    between atoms: C_2  and  N_19
REMARK    4  A    between atoms: C_4  and  N_5
REMARK    5  A    between atoms: C_8  and  N_10
REMARK    6  A    between atoms: N_10  and  C_11
REMARK    7  A    between atoms: N_19  and  C_20
REMARK    8  A    between atoms: C_22  and  C_28
REMARK    9  A    between atoms: C_22  and  C_29
REMARK   10  A    between atoms: C_24  and  C_26
REMARK   11  A    between atoms: C_24  and  C_27
REMARK                            x       y       z     vdW  Elec       q    Type
REMARK                         _______ _______ _______ _____ _____    ______ ____
ROOT
ATOM      1  C   UNL     1      -0.841   1.527   0.834  0.00  0.00    +0.026 C 
ATOM      2  C   UNL     1      -0.695   0.004   0.841  0.00  0.00    +0.072 C 
ENDROOT
BRANCH   2   3
ATOM      3  N   UNL     1      -0.167  -0.444  -0.455  0.00  0.00    -0.309 NA
ATOM      4  H   UNL     1       0.534   0.195  -0.799  0.00  0.00    +0.123 HD
BRANCH   3   5
ATOM      5  C   UNL     1      -1.252  -0.615  -1.436  0.00  0.00    +0.051 C 
ATOM      6  C   UNL     1      -1.832  -2.025  -1.302  0.00  0.00    +0.006 C 
ATOM      7  C   UNL     1      -2.952  -2.223  -2.323  0.00  0.00    -0.072 C 
ATOM      8  N   UNL     1      -2.517  -1.924  -3.679  0.00  0.00    +0.386 N 
ATOM      9  C   UNL     1      -1.768  -0.696  -3.894  0.00  0.00    -0.072 C 
ATOM     10  C   UNL     1      -0.685  -0.461  -2.846  0.00  0.00    +0.006 C 
ATOM     11  C   UNL     1      -2.691   0.523  -3.973  0.00  0.00    -0.010 C 
ATOM     12  C   UNL     1      -1.062  -0.816  -5.265  0.00  0.00    -0.010 C 
ATOM     13  C   UNL     1      -4.183  -1.411  -1.921  0.00  0.00    -0.010 C 
ATOM     14  C   UNL     1      -3.353  -3.715  -2.280  0.00  0.00    -0.010 C 
ATOM     15  H   UNL     1      -1.951  -2.708  -4.015  0.00  0.00    -0.084 HD
ATOM     16  H   UNL     1      -3.341  -1.909  -4.285  0.00  0.00    -0.084 HD
ENDBRANCH   3   5
ENDBRANCH   2   3
BRANCH   2  17
ATOM     17  C   UNL     1       0.269  -0.411   1.955  0.00  0.00    +0.162 C 
BRANCH  17  18
ATOM     18  N   UNL     1       0.501  -1.856   1.886  0.00  0.00    -0.258 NA
ATOM     19  C   UNL     1       1.687  -2.312   1.605  0.00  0.00    +0.193 C 
ATOM     20  N   UNL     1       2.350  -3.532   1.431  0.00  0.00    -0.198 NA
ATOM     21  C   UNL     1       3.675  -3.451   1.127  0.00  0.00    +0.188 C 
ATOM     22  S   UNL     1       3.319  -1.712   1.230  0.00  0.00    -0.013 S 
BRANCH  21  23
ATOM     23  N   UNL     1       4.729  -4.277   0.870  0.00  0.00    -0.190 NA
BRANCH  23  24
ATOM     24  C   UNL     1       6.021  -3.751   0.765  0.00  0.00    +0.057 A 
ATOM     25  C   UNL     1       6.333  -2.546   1.382  0.00  0.00    +0.027 A 
ATOM     26  C   UNL     1       7.609  -2.028   1.277  0.00  0.00    +0.023 A 
ATOM     27  C   UNL     1       8.577  -2.708   0.559  0.00  0.00    +0.059 A 
ATOM     28  C   UNL     1       8.269  -3.909  -0.058  0.00  0.00    +0.061 A 
ATOM     29  C   UNL     1       6.995  -4.435   0.049  0.00  0.00    +0.046 A 
ATOM     30 CL   UNL     1       9.485  -4.759  -0.958  0.00  0.00    -0.082 Cl
ATOM     31 CL   UNL     1      10.180  -2.054   0.430  0.00  0.00    -0.082 Cl
ENDBRANCH  23  24
ENDBRANCH  21  23
ENDBRANCH  17  18
ENDBRANCH   2  17
TORSDOF 6
