REMARK  Name = ZINC44327211
REMARK  9 active torsions:
REMARK  status: ('A' for Active; 'I' for Inactive)
REMARK    1  A    between atoms: C_1  and  O_2
REMARK    2  A    between atoms: O_2  and  C_3
REMARK    3  A    between atoms: C_5  and  C_12
REMARK    4  A    between atoms: C_8  and  O_9
REMARK    5  A    between atoms: C_12  and  C_13
REMARK    6  A    between atoms: C_13  and  C_15
REMARK    7  A    between atoms: C_13  and  N_19
REMARK    8  A    between atoms: C_15  and  O_17
REMARK    9  A    between atoms: O_17  and  C_18
REMARK                            x       y       z     vdW  Elec       q    Type
REMARK                         _______ _______ _______ _____ _____    ______ ____
ROOT
ATOM      1  C   UNL     1       0.885  -2.766  -3.276  0.00  0.00    +0.163 A 
ATOM      2  C   UNL     1       1.587  -1.853  -4.048  0.00  0.00    +0.054 A 
ATOM      3  C   UNL     1       1.699  -0.539  -3.634  0.00  0.00    -0.030 A 
ATOM      4  C   UNL     1       1.111  -0.132  -2.450  0.00  0.00    +0.039 A 
ATOM      5  C   UNL     1       0.409  -1.038  -1.675  0.00  0.00    +0.077 A 
ATOM      6  C   UNL     1       0.289  -2.356  -2.088  0.00  0.00    +0.174 A 
ATOM      7 BR   UNL     1      -0.392  -0.477  -0.056  0.00  0.00    -0.045 Br
ATOM      8 BR   UNL     1       1.269   1.668  -1.889  0.00  0.00    -0.049 Br
ENDROOT
BRANCH   1  10
ATOM      9  C   UNL     1       1.411  -4.409  -4.913  0.00  0.00    +0.277 C 
ATOM     10  O   UNL     1       0.774  -4.059  -3.683  0.00  0.00    -0.491 OA
ENDBRANCH   1  10
BRANCH   6  11
ATOM     11  O   UNL     1      -0.406  -3.247  -1.331  0.00  0.00    -0.503 OA
ATOM     12  H   UNL     1       0.132  -3.706  -0.672  0.00  0.00    +0.292 HD
ENDBRANCH   6  11
BRANCH   3  13
ATOM     13  C   UNL     1       2.463   0.451  -4.474  0.00  0.00    +0.031 C 
BRANCH  13  14
ATOM     14  C   UNL     1       3.895   0.567  -3.950  0.00  0.00    +0.040 C 
BRANCH  14  15
ATOM     15  N   UNL     1       4.593  -0.711  -4.145  0.00  0.00    +0.387 N 
ATOM     16  H   UNL     1       5.561  -0.610  -3.882  0.00  0.00    -0.089 HD
ATOM     17  H   UNL     1       4.161  -1.421  -3.571  0.00  0.00    -0.089 HD
ATOM     18  H   UNL     1       4.535  -0.982  -5.115  0.00  0.00    -0.089 HD
ENDBRANCH  14  15
BRANCH  14  19
ATOM     19  C   UNL     1       4.619   1.653  -4.703  0.00  0.00    +0.292 C 
ATOM     20  O   UNL     1       5.370   1.367  -5.605  0.00  0.00    -0.253 OA
BRANCH  19  21
ATOM     21  O   UNL     1       4.430   2.940  -4.371  0.00  0.00    -0.469 OA
ATOM     22  C   UNL     1       5.148   3.918  -5.126  0.00  0.00    +0.280 C 
ENDBRANCH  19  21
ENDBRANCH  14  19
ENDBRANCH  13  14
ENDBRANCH   3  13
TORSDOF 7
