REMARK  Name = ZINC63980664
REMARK  14 active torsions:
REMARK  status: ('A' for Active; 'I' for Inactive)
REMARK    1  A    between atoms: C_1  and  C_2
REMARK    2  A    between atoms: C_2  and  C_4
REMARK    3  A    between atoms: C_2  and  N_15
REMARK    4  A    between atoms: C_4  and  C_5
REMARK    5  A    between atoms: C_5  and  C_6
REMARK    6  A    between atoms: N_15  and  C_16
REMARK    7  A    between atoms: N_22  and  C_37
REMARK    8  A    between atoms: C_23  and  C_33
REMARK    9  A    between atoms: C_25  and  N_27
REMARK   10  A    between atoms: C_28  and  C_30
REMARK   11  A    between atoms: C_30  and  O_31
REMARK   12  A    between atoms: O_31  and  C_32
REMARK   13  A    between atoms: C_33  and  O_35
REMARK   14  A    between atoms: O_35  and  C_36
REMARK                            x       y       z     vdW  Elec       q    Type
REMARK                         _______ _______ _______ _____ _____    ______ ____
ROOT
ATOM      1  C   UNL     1       0.025  -0.639   2.401  0.00  0.00    +0.044 A 
ATOM      2  C   UNL     1       0.688  -1.095   3.540  0.00  0.00    +0.033 A 
ATOM      3  C   UNL     1      -0.031  -1.226   4.712  0.00  0.00    +0.015 A 
ATOM      4  C   UNL     1      -1.382  -0.907   4.738  0.00  0.00    +0.104 A 
ATOM      5  N   UNL     1      -1.976  -0.475   3.627  0.00  0.00    -0.348 N 
ATOM      6  C   UNL     1      -1.323  -0.332   2.493  0.00  0.00    +0.107 A 
ATOM      7  N   UNL     1      -1.928  -1.104   6.005  0.00  0.00    -0.305 N 
ATOM      8  C   UNL     1      -0.901  -1.592   6.929  0.00  0.00    +0.208 C 
ATOM      9  C   UNL     1       0.385  -1.684   6.091  0.00  0.00    +0.138 C 
ATOM     10  C   UNL     1      -3.328  -0.859   6.361  0.00  0.00    +0.131 C 
ATOM     11  H   UNL     1      -2.921  -0.255   3.655  0.00  0.00    +0.167 HD
ENDROOT
BRANCH   9  12
ATOM     12  N   UNL     1       1.415  -0.796   6.636  0.00  0.00    -0.304 N 
ATOM     13  C   UNL     1       2.714  -1.019   6.354  0.00  0.00    +0.239 C 
ATOM     14  O   UNL     1       3.030  -1.954   5.649  0.00  0.00    -0.273 OA
ATOM     15  H   UNL     1       1.163  -0.049   7.199  0.00  0.00    +0.149 HD
BRANCH  13  16
ATOM     16  C   UNL     1       3.774  -0.107   6.914  0.00  0.00    +0.255 C 
BRANCH  16  17
ATOM     17  O   UNL     1       5.061  -0.546   6.477  0.00  0.00    -0.374 OA
ATOM     18  C   UNL     1       6.143   0.255   6.955  0.00  0.00    +0.194 C 
ENDBRANCH  16  17
ENDBRANCH  13  16
ENDBRANCH   9  12
BRANCH   1  19
ATOM     19  N   UNL     1       0.711  -0.489   1.189  0.00  0.00    -0.340 N 
ATOM     20  H   UNL     1       1.654  -0.707   1.135  0.00  0.00    +0.146 HD
BRANCH  19  22
ATOM     21  C   UNL     1      -0.019   1.526   0.010  0.00  0.00    +0.028 C 
ATOM     22  C   UNL     1       0.002  -0.004   0.002  0.00  0.00    +0.068 C 
BRANCH  22  23
ATOM     23  C   UNL     1       0.718  -0.497  -1.257  0.00  0.00    +0.026 C 
BRANCH  23  24
ATOM     24  C   UNL     1       0.630  -2.023  -1.329  0.00  0.00    +0.035 C 
BRANCH  24  25
ATOM     25  C   UNL     1       1.336  -2.509  -2.568  0.00  0.00    -0.041 C 
ATOM     26  C   UNL     1       2.613  -2.945  -2.659  0.00  0.00    -0.001 A 
ATOM     27  C   UNL     1       3.687  -3.089  -1.670  0.00  0.00    +0.010 A 
ATOM     28  C   UNL     1       4.889  -3.563  -2.070  0.00  0.00    +0.001 A 
ATOM     29  C   UNL     1       5.134  -3.918  -3.404  0.00  0.00    +0.002 A 
ATOM     30  C   UNL     1       4.197  -3.814  -4.370  0.00  0.00    +0.026 A 
ATOM     31  C   UNL     1       2.897  -3.327  -4.061  0.00  0.00    +0.043 A 
ATOM     32  N   UNL     1       1.836  -3.136  -4.808  0.00  0.00    -0.380 N 
ATOM     33  C   UNL     1       0.757  -2.615  -3.962  0.00  0.00    +0.144 C 
ATOM     34  H   UNL     1       1.775  -3.312  -5.759  0.00  0.00    +0.160 HD
ENDBRANCH  24  25
ENDBRANCH  23  24
ENDBRANCH  22  23
ENDBRANCH  19  22
ENDBRANCH   1  19
BRANCH   8  35
ATOM     35  C   UNL     1      -0.718  -0.620   8.066  0.00  0.00    +0.330 C 
ATOM     36  O   UNL     1      -1.108   0.518   7.957  0.00  0.00    -0.249 OA
BRANCH  35  37
ATOM     37  O   UNL     1      -0.122  -1.019   9.201  0.00  0.00    -0.467 OA
ATOM     38  C   UNL     1       0.019  -0.046  10.237  0.00  0.00    +0.280 C 
ENDBRANCH  35  37
ENDBRANCH   8  35
TORSDOF 10
