REMARK  Name = ZINC09559499
REMARK  6 active torsions:
REMARK  status: ('A' for Active; 'I' for Inactive)
REMARK    1  A    between atoms: C_4  and  C_7
REMARK    2  A    between atoms: C_7  and  N_59
REMARK    3  A    between atoms: C_10  and  N_13
REMARK    4  A    between atoms: C_14  and  C_16
REMARK    5  A    between atoms: N_21  and  S_23
REMARK    6  A    between atoms: S_23  and  C_26
REMARK                            x       y       z     vdW  Elec       q    Type
REMARK                         _______ _______ _______ _____ _____    ______ ____
ROOT
ATOM      1  N   UNL     1       6.651   5.279  -4.416  0.00  0.00    -0.312 N 
ATOM      2  C   UNL     1       5.897   4.362  -3.779  0.00  0.00    +0.218 C 
ATOM      3  O   UNL     1       6.147   3.181  -3.898  0.00  0.00    -0.275 OA
ATOM      4  H   UNL     1       6.451   6.223  -4.321  0.00  0.00    +0.149 HD
ENDROOT
BRANCH   1   7
ATOM      5  C   UNL     1       9.274   5.493  -7.143  0.00  0.00    -0.077 C 
ATOM      6  C   UNL     1       8.063   5.919  -6.311  0.00  0.00    +0.003 C 
ATOM      7  C   UNL     1       7.774   4.849  -5.254  0.00  0.00    +0.069 C 
ATOM      8  C   UNL     1       9.017   4.652  -4.383  0.00  0.00    +0.003 C 
ATOM      9  C   UNL     1      10.201   4.265  -5.271  0.00  0.00    -0.077 C 
ATOM     10  N   UNL     1      10.443   5.346  -6.250  0.00  0.00    +0.382 N 
ATOM     11  H   UNL     1      10.587   6.227  -5.743  0.00  0.00    -0.081 HD
BRANCH  10  12
ATOM     12  C   UNL     1      11.651   5.046  -7.045  0.00  0.00    -0.043 C 
BRANCH  12  16
ATOM     13  C   UNL     1      14.806   3.879  -4.412  0.00  0.00    +0.000 A 
ATOM     14  C   UNL     1      13.965   2.923  -4.949  0.00  0.00    +0.000 A 
ATOM     15  C   UNL     1      12.944   3.300  -5.801  0.00  0.00    +0.002 A 
ATOM     16  C   UNL     1      12.764   4.635  -6.116  0.00  0.00    -0.064 A 
ATOM     17  C   UNL     1      13.608   5.590  -5.583  0.00  0.00    +0.002 A 
ATOM     18  C   UNL     1      14.627   5.213  -4.727  0.00  0.00    +0.000 A 
ENDBRANCH  12  16
ENDBRANCH  10  12
ENDBRANCH   1   7
BRANCH   2  19
ATOM     19  C   UNL     1       4.742   4.804  -2.917  0.00  0.00    +0.091 C 
ATOM     20  C   UNL     1       3.737   5.581  -3.769  0.00  0.00    +0.015 C 
ATOM     21  C   UNL     1       2.580   6.058  -2.888  0.00  0.00    +0.018 C 
ATOM     22  C   UNL     1       1.867   4.843  -2.286  0.00  0.00    +0.109 C 
ATOM     23  N   UNL     1       2.856   4.013  -1.586  0.00  0.00    -0.175 NA
ATOM     24  C   UNL     1       4.056   3.579  -2.313  0.00  0.00    +0.122 C 
BRANCH  23  25
ATOM     25  S   UNL     1       2.626   3.581  -0.004  0.00  0.00    +0.067 S 
ATOM     26  O   UNL     1       1.758   4.554   0.561  0.00  0.00    -0.152 OA
ATOM     27  O   UNL     1       3.912   3.304   0.533  0.00  0.00    -0.152 OA
BRANCH  25  28
ATOM     28  C   UNL     1       1.742   2.057  -0.004  0.00  0.00    +0.144 A 
ATOM     29  C   UNL     1       2.224   0.791  -0.015  0.00  0.00    +0.037 A 
ATOM     30  C   UNL     1       1.333  -0.267  -0.012  0.00  0.00    +0.025 A 
ATOM     31  C   UNL     1       0.002  -0.004   0.002  0.00  0.00    +0.057 A 
ATOM     32  S   UNL     1      -0.022   1.781   0.012  0.00  0.00    -0.062 S 
ATOM     33 BR   UNL     1      -1.450  -1.215   0.010  0.00  0.00    -0.043 Br
ENDBRANCH  25  28
ENDBRANCH  23  25
ENDBRANCH   2  19
TORSDOF 6
