REMARK  Name = ZINC11315623
REMARK  11 active torsions:
REMARK  status: ('A' for Active; 'I' for Inactive)
REMARK    1  A    between atoms: C_1  and  C_2
REMARK    2  A    between atoms: C_2  and  O_3
REMARK    3  A    between atoms: O_3  and  C_4
REMARK    4  A    between atoms: C_4  and  C_6
REMARK    5  A    between atoms: C_7  and  C_21
REMARK    6  A    between atoms: C_12  and  C_14
REMARK    7  A    between atoms: C_21  and  O_22
REMARK    8  A    between atoms: O_22  and  C_23
REMARK    9  A    between atoms: C_23  and  C_25
REMARK   10  A    between atoms: C_25  and  N_26
REMARK   11  A    between atoms: C_27  and  C_29
REMARK                            x       y       z     vdW  Elec       q    Type
REMARK                         _______ _______ _______ _____ _____    ______ ____
ROOT
ATOM      1  C   UNL     1      -0.814   1.399   1.318  0.00  0.00    +0.081 C 
ATOM      2  C   UNL     1      -1.847   2.259   1.196  0.00  0.00    +0.061 C 
ATOM      3  N   UNL     1      -2.200   2.768  -0.020  0.00  0.00    -0.269 N 
ATOM      4  C   UNL     1      -1.571   2.466  -1.163  0.00  0.00    +0.304 C 
ATOM      5  O   UNL     1      -1.959   2.969  -2.199  0.00  0.00    -0.252 OA
ATOM      6  N   UNL     1      -0.522   1.620  -1.202  0.00  0.00    -0.288 N 
ATOM      7  C   UNL     1      -0.061   1.017   0.060  0.00  0.00    +0.144 C 
ATOM      8  H   UNL     1      -2.949   3.384  -0.059  0.00  0.00    +0.156 HD
ATOM      9  H   UNL     1      -0.081   1.415  -2.041  0.00  0.00    +0.151 HD
ENDROOT
BRANCH   7  10
ATOM     10  C   UNL     1       1.386   1.390   0.253  0.00  0.00    -0.022 A 
ATOM     11  C   UNL     1       1.805   2.683   0.000  0.00  0.00    +0.007 A 
ATOM     12  C   UNL     1       3.131   3.028   0.182  0.00  0.00    +0.020 A 
ATOM     13  C   UNL     1       4.041   2.076   0.606  0.00  0.00    +0.041 A 
ATOM     14  C   UNL     1       3.622   0.781   0.853  0.00  0.00    +0.020 A 
ATOM     15  C   UNL     1       2.295   0.439   0.676  0.00  0.00    +0.007 A 
ATOM     16 CL   UNL     1       5.708   2.507   0.828  0.00  0.00    -0.084 Cl
ENDBRANCH   7  10
BRANCH   1  17
ATOM     17  C   UNL     1      -0.448   0.870   2.578  0.00  0.00    +0.339 C 
ATOM     18  O   UNL     1      -1.059   1.200   3.577  0.00  0.00    -0.245 OA
BRANCH  17  19
ATOM     19  O   UNL     1       0.580   0.001   2.672  0.00  0.00    -0.462 OA
BRANCH  19  21
ATOM     20  C   UNL     1       2.077  -1.459   3.884  0.00  0.00    +0.048 C 
ATOM     21  C   UNL     1       0.894  -0.493   3.976  0.00  0.00    +0.229 C 
ENDBRANCH  19  21
ENDBRANCH  17  19
ENDBRANCH   1  17
BRANCH   2  22
ATOM     22  C   UNL     1      -2.622   2.665   2.423  0.00  0.00    +0.283 C 
BRANCH  22  23
ATOM     23  O   UNL     1      -3.751   3.490   2.031  0.00  0.00    -0.458 OA
BRANCH  23  24
ATOM     24  C   UNL     1      -4.549   3.938   3.014  0.00  0.00    +0.325 C 
ATOM     25  O   UNL     1      -4.312   3.650   4.163  0.00  0.00    -0.249 OA
BRANCH  24  26
ATOM     26  C   UNL     1      -5.740   4.800   2.683  0.00  0.00    +0.225 C 
BRANCH  26  27
ATOM     27  N   UNL     1      -6.443   5.155   3.918  0.00  0.00    -0.298 N 
ATOM     28  C   UNL     1      -7.547   5.926   3.867  0.00  0.00    +0.280 C 
ATOM     29  O   UNL     1      -7.960   6.328   2.795  0.00  0.00    -0.267 OA
ATOM     30  H   UNL     1      -6.115   4.835   4.773  0.00  0.00    +0.150 HD
BRANCH  28  31
ATOM     31  C   UNL     1      -8.252   6.282   5.103  0.00  0.00    +0.189 A 
ATOM     32  C   UNL     1      -9.373   7.056   5.194  0.00  0.00    +0.054 A 
ATOM     33  C   UNL     1      -9.702   7.132   6.556  0.00  0.00    +0.042 A 
ATOM     34  C   UNL     1      -8.774   6.416   7.229  0.00  0.00    +0.196 A 
ATOM     35  O   UNL     1      -7.902   5.905   6.351  0.00  0.00    -0.458 OA
ENDBRANCH  28  31
ENDBRANCH  26  27
ENDBRANCH  24  26
ENDBRANCH  23  24
ENDBRANCH  22  23
ENDBRANCH   2  22
TORSDOF 10
