REMARK  Name = ZINC08856598
REMARK  9 active torsions:
REMARK  status: ('A' for Active; 'I' for Inactive)
REMARK    1  A    between atoms: C_1  and  C_2
REMARK    2  A    between atoms: C_6  and  C_34
REMARK    3  A    between atoms: C_7  and  N_8
REMARK    4  A    between atoms: C_9  and  C_13
REMARK    5  A    between atoms: C_13  and  N_63
REMARK    6  A    between atoms: C_19  and  C_20
REMARK    7  A    between atoms: C_19  and  N_63
REMARK    8  A    between atoms: C_20  and  C_21
REMARK    9  A    between atoms: C_22  and  C_33
REMARK                            x       y       z     vdW  Elec       q    Type
REMARK                         _______ _______ _______ _____ _____    ______ ____
ROOT
ATOM      1  C   UNL     1       1.815  -1.373  -0.877  0.00  0.00    -0.005 C 
ATOM      2  C   UNL     1       1.380  -2.338   0.227  0.00  0.00    -0.005 C 
ATOM      3  C   UNL     1       1.658  -3.777  -0.213  0.00  0.00    -0.001 C 
ATOM      4  C   UNL     1       3.155  -3.948  -0.479  0.00  0.00    -0.000 C 
ATOM      5  C   UNL     1       3.591  -2.983  -1.584  0.00  0.00    -0.001 C 
ATOM      6  C   UNL     1       3.312  -1.544  -1.143  0.00  0.00    -0.005 C 
ENDROOT
BRANCH   1   8
ATOM      7  N   UNL     1       1.948   0.622   0.707  0.00  0.00    -0.198 N 
ATOM      8  C   UNL     1       1.541   0.044  -0.443  0.00  0.00    +0.146 A 
ATOM      9  N   UNL     1       0.864   0.941  -1.110  0.00  0.00    -0.114 NA
ATOM     10  N   UNL     1       0.816   2.048  -0.460  0.00  0.00    -0.023 NA
ATOM     11  N   UNL     1       1.452   1.936   0.656  0.00  0.00    -0.039 NA
BRANCH   7  18
ATOM     12  C   UNL     1       0.565  -0.619   2.864  0.00  0.00    +0.046 C 
ATOM     13  C   UNL     1       2.070  -0.578   2.803  0.00  0.00    -0.025 A 
ATOM     14  C   UNL     1       2.818  -1.158   3.809  0.00  0.00    +0.005 A 
ATOM     15  C   UNL     1       4.200  -1.116   3.756  0.00  0.00    +0.001 A 
ATOM     16  C   UNL     1       4.836  -0.499   2.694  0.00  0.00    +0.005 A 
ATOM     17  C   UNL     1       4.093   0.077   1.683  0.00  0.00    -0.025 A 
ATOM     18  C   UNL     1       2.706   0.037   1.733  0.00  0.00    +0.075 A 
ATOM     19  C   UNL     1       4.787   0.749   0.526  0.00  0.00    +0.046 C 
ENDBRANCH   7  18
ENDBRANCH   1   8
BRANCH   1  20
ATOM     20  N   UNL     1       1.068  -1.665  -2.115  0.00  0.00    +0.388 N 
ATOM     21  H   UNL     1       1.336  -2.594  -2.461  0.00  0.00    -0.084 HD
ATOM     22  H   UNL     1       1.296  -0.958  -2.823  0.00  0.00    -0.084 HD
BRANCH  20  23
ATOM     23  C   UNL     1      -0.384  -1.643  -1.854  0.00  0.00    -0.076 C 
BRANCH  23  24
ATOM     24  C   UNL     1      -1.133  -1.835  -3.174  0.00  0.00    +0.018 C 
BRANCH  24  25
ATOM     25  C   UNL     1      -2.618  -1.814  -2.916  0.00  0.00    -0.020 A 
ATOM     26  C   UNL     1      -3.416  -0.734  -2.929  0.00  0.00    +0.017 A 
ATOM     27  N   UNL     1      -4.704  -1.103  -2.651  0.00  0.00    -0.357 N 
ATOM     28  H   UNL     1      -5.459  -0.496  -2.604  0.00  0.00    +0.166 HD
ATOM     29  C   UNL     1      -4.768  -2.464  -2.446  0.00  0.00    +0.067 A 
ATOM     30  C   UNL     1      -3.466  -2.969  -2.610  0.00  0.00    +0.023 A 
ATOM     31  C   UNL     1      -3.223  -4.336  -2.453  0.00  0.00    +0.050 A 
ATOM     32  C   UNL     1      -4.266  -5.183  -2.149  0.00  0.00    +0.022 A 
ATOM     33  C   UNL     1      -5.553  -4.684  -1.994  0.00  0.00    +0.023 A 
ATOM     34  C   UNL     1      -5.807  -3.337  -2.140  0.00  0.00    +0.065 A 
ATOM     35 CL   UNL     1      -7.422  -2.732  -1.943  0.00  0.00    -0.081 Cl
ATOM     36 CL   UNL     1      -1.617  -4.965  -2.645  0.00  0.00    -0.083 Cl
ATOM     37  C   UNL     1      -2.960   0.675  -3.209  0.00  0.00    +0.063 C 
ENDBRANCH  24  25
ENDBRANCH  23  24
ENDBRANCH  20  23
ENDBRANCH   1  20
TORSDOF 6
