REMARK  Name = ZINC35498235
REMARK  7 active torsions:
REMARK  status: ('A' for Active; 'I' for Inactive)
REMARK    1  A    between atoms: C_1  and  C_2
REMARK    2  A    between atoms: C_2  and  C_3
REMARK    3  A    between atoms: C_3  and  C_4
REMARK    4  A    between atoms: C_4  and  N_5
REMARK    5  A    between atoms: N_18  and  C_21
REMARK    6  A    between atoms: N_24  and  C_27
REMARK    7  A    between atoms: C_27  and  C_28
REMARK                            x       y       z     vdW  Elec       q    Type
REMARK                         _______ _______ _______ _____ _____    ______ ____
ROOT
ATOM      1  N   UNL     1      -2.787  -2.571   0.015  0.00  0.00    -0.299 N 
ATOM      2  C   UNL     1      -3.015  -3.899   0.010  0.00  0.00    +0.303 C 
ATOM      3  O   UNL     1      -2.080  -4.676  -0.003  0.00  0.00    -0.253 OA
ATOM      4  N   UNL     1      -4.280  -4.365   0.019  0.00  0.00    -0.281 N 
ATOM      5  C   UNL     1      -4.562  -5.809   0.021  0.00  0.00    +0.114 C 
ATOM      6  C   UNL     1      -5.259  -6.192   1.326  0.00  0.00    +0.056 C 
ATOM      7  C   UNL     1      -6.407  -5.221   1.590  0.00  0.00    -0.020 A 
ATOM      8  C   UNL     1      -6.440  -4.007   0.991  0.00  0.00    +0.013 A 
ATOM      9  S   UNL     1      -7.922  -3.233   1.585  0.00  0.00    -0.072 S 
ATOM     10  C   UNL     1      -8.497  -4.535   2.628  0.00  0.00    +0.116 A 
ATOM     11  C   UNL     1      -7.510  -5.535   2.481  0.00  0.00    +0.076 A 
ATOM     12  C   UNL     1      -7.697  -6.750   3.222  0.00  0.00    +0.263 A 
ATOM     13  O   UNL     1      -6.904  -7.673   3.165  0.00  0.00    -0.267 OA
ATOM     14  N   UNL     1      -8.812  -6.805   3.988  0.00  0.00    -0.296 N 
ATOM     15  C   UNL     1      -9.707  -5.790   4.065  0.00  0.00    +0.203 A 
ATOM     16  N   UNL     1      -9.570  -4.662   3.403  0.00  0.00    -0.230 NA
ATOM     17  C   UNL     1      -5.436  -3.448   0.035  0.00  0.00    +0.152 C 
ATOM     18  H   UNL     1      -3.533  -1.950   0.025  0.00  0.00    +0.150 HD
ENDROOT
BRANCH  14  19
ATOM     19  C   UNL     1      -9.064  -8.018   4.770  0.00  0.00    +0.088 C 
ATOM     20  C   UNL     1     -10.401  -8.632   4.346  0.00  0.00    +0.006 C 
ATOM     21  C   UNL     1     -10.695  -9.853   5.221  0.00  0.00    -0.076 C 
ATOM     22  N   UNL     1     -10.766  -9.445   6.629  0.00  0.00    +0.382 N 
ATOM     23  C   UNL     1      -9.466  -8.921   7.062  0.00  0.00    -0.076 C 
ATOM     24  C   UNL     1      -9.124  -7.664   6.259  0.00  0.00    +0.006 C 
ATOM     25  H   UNL     1     -11.469  -8.729   6.735  0.00  0.00    -0.081 HD
BRANCH  22  26
ATOM     26  C   UNL     1     -11.125 -10.605   7.456  0.00  0.00    -0.043 C 
BRANCH  26  27
ATOM     27  C   UNL     1     -11.319 -10.164   8.883  0.00  0.00    -0.064 A 
ATOM     28  C   UNL     1     -10.248 -10.158   9.757  0.00  0.00    +0.002 A 
ATOM     29  C   UNL     1     -10.426  -9.752  11.066  0.00  0.00    +0.000 A 
ATOM     30  C   UNL     1     -11.675  -9.353  11.503  0.00  0.00    +0.000 A 
ATOM     31  C   UNL     1     -12.747  -9.358  10.629  0.00  0.00    +0.000 A 
ATOM     32  C   UNL     1     -12.568  -9.759   9.318  0.00  0.00    +0.002 A 
ENDBRANCH  26  27
ENDBRANCH  22  26
ENDBRANCH  14  19
BRANCH   1  33
ATOM     33  C   UNL     1      -1.413  -2.063   0.004  0.00  0.00    +0.106 C 
BRANCH  33  34
ATOM     34  C   UNL     1      -1.433  -0.534   0.013  0.00  0.00    +0.018 C 
BRANCH  34  36
ATOM     35  C   UNL     1      -0.019   1.526   0.010  0.00  0.00    +0.004 C 
ATOM     36  C   UNL     1       0.002  -0.004   0.002  0.00  0.00    -0.002 C 
ENDBRANCH  34  36
ENDBRANCH  33  34
ENDBRANCH   1  33
TORSDOF 6
