REMARK  Name = ZINC39606811
REMARK  6 active torsions:
REMARK  status: ('A' for Active; 'I' for Inactive)
REMARK    1  A    between atoms: C_1  and  C_2
REMARK    2  A    between atoms: C_5  and  C_9
REMARK    3  A    between atoms: C_6  and  C_8
REMARK    4  A    between atoms: C_9  and  N_10
REMARK    5  A    between atoms: C_11  and  C_13
REMARK    6  A    between atoms: C_24  and  C_26
REMARK                            x       y       z     vdW  Elec       q    Type
REMARK                         _______ _______ _______ _____ _____    ______ ____
ROOT
ATOM      1  C   UNL     1      -2.911  -6.625   0.513  0.00  0.00    +0.100 C 
ATOM      2  C   UNL     1      -3.347  -6.314   1.962  0.00  0.00    +0.121 C 
ATOM      3  N   UNL     1      -4.127  -7.502   2.382  0.00  0.00    -0.296 N 
ATOM      4  C   UNL     1      -3.389  -8.650   1.804  0.00  0.00    +0.115 C 
ATOM      5  C   UNL     1      -2.938  -8.160   0.413  0.00  0.00    -0.004 C 
ATOM      6  C   UNL     1      -1.546  -8.694   0.092  0.00  0.00    -0.010 C 
ATOM      7  C   UNL     1      -1.610 -10.216  -0.060  0.00  0.00    -0.082 C 
ATOM      8  N   UNL     1      -2.549 -10.564  -1.133  0.00  0.00    +0.379 N 
ATOM      9  C   UNL     1      -3.904 -10.129  -0.773  0.00  0.00    -0.082 C 
ATOM     10  C   UNL     1      -3.937  -8.602  -0.652  0.00  0.00    -0.010 C 
ATOM     11  C   UNL     1      -5.253  -7.532   3.121  0.00  0.00    +0.248 C 
ATOM     12  O   UNL     1      -5.797  -6.493   3.443  0.00  0.00    -0.270 OA
ATOM     13  H   UNL     1      -2.266 -10.107  -1.987  0.00  0.00    -0.086 HD
ATOM     14  H   UNL     1      -2.544 -11.563  -1.272  0.00  0.00    -0.086 HD
ENDROOT
BRANCH  11  15
ATOM     15  C   UNL     1      -5.827  -8.827   3.542  0.00  0.00    +0.055 A 
ATOM     16  C   UNL     1      -4.986  -9.896   3.858  0.00  0.00    +0.016 A 
ATOM     17  C   UNL     1      -5.527 -11.102   4.250  0.00  0.00    +0.021 A 
ATOM     18  C   UNL     1      -6.902 -11.255   4.329  0.00  0.00    +0.042 A 
ATOM     19  C   UNL     1      -7.742 -10.200   4.017  0.00  0.00    +0.040 A 
ATOM     20  C   UNL     1      -7.212  -8.985   3.630  0.00  0.00    +0.054 A 
ATOM     21 CL   UNL     1      -8.266  -7.660   3.245  0.00  0.00    -0.083 Cl
ATOM     22 CL   UNL     1      -7.575 -12.778   4.823  0.00  0.00    -0.083 Cl
ENDBRANCH  11  15
BRANCH   1  24
ATOM     23  N   UNL     1      -1.096  -5.892  -1.000  0.00  0.00    -0.311 N 
ATOM     24  C   UNL     1      -1.518  -6.108   0.262  0.00  0.00    +0.218 C 
ATOM     25  O   UNL     1      -0.776  -5.887   1.196  0.00  0.00    -0.275 OA
ATOM     26  H   UNL     1      -1.690  -6.069  -1.746  0.00  0.00    +0.149 HD
BRANCH  23  27
ATOM     27  C   UNL     1       0.258  -5.389  -1.244  0.00  0.00    +0.139 C 
BRANCH  27  32
ATOM     28  C   UNL     1       1.095  -4.798  -6.931  0.00  0.00    +0.044 C 
ATOM     29  C   UNL     1       0.877  -4.952  -5.448  0.00  0.00    -0.050 A 
ATOM     30  C   UNL     1       1.372  -6.061  -4.788  0.00  0.00    +0.004 A 
ATOM     31  C   UNL     1       1.172  -6.203  -3.428  0.00  0.00    +0.006 A 
ATOM     32  C   UNL     1       0.477  -5.234  -2.727  0.00  0.00    -0.027 A 
ATOM     33  C   UNL     1      -0.017  -4.125  -3.386  0.00  0.00    -0.046 A 
ATOM     34  C   UNL     1       0.187  -3.981  -4.746  0.00  0.00    +0.007 A 
ATOM     35  C   UNL     1      -0.774  -3.069  -2.622  0.00  0.00    +0.044 C 
ENDBRANCH  27  32
ENDBRANCH  23  27
ENDBRANCH   1  24
TORSDOF 4
