REMARK  Name = ZINC39675296
REMARK  10 active torsions:
REMARK  status: ('A' for Active; 'I' for Inactive)
REMARK    1  A    between atoms: C_1  and  C_2
REMARK    2  A    between atoms: C_2  and  C_4
REMARK    3  A    between atoms: C_2  and  N_14
REMARK    4  A    between atoms: C_4  and  C_5
REMARK    5  A    between atoms: C_5  and  C_6
REMARK    6  A    between atoms: C_9  and  O_12
REMARK    7  A    between atoms: O_12  and  C_13
REMARK    8  A    between atoms: C_15  and  C_17
REMARK    9  A    between atoms: C_28  and  C_30
REMARK   10  A    between atoms: C_30  and  C_31
REMARK                            x       y       z     vdW  Elec       q    Type
REMARK                         _______ _______ _______ _____ _____    ______ ____
ROOT
ATOM      1  C   UNL     1       2.736  -1.073  -2.455  0.00  0.00    +0.100 C 
ATOM      2  C   UNL     1       2.403  -0.160  -3.656  0.00  0.00    +0.121 C 
ATOM      3  N   UNL     1       3.518   0.815  -3.706  0.00  0.00    -0.300 N 
ATOM      4  C   UNL     1       4.723   0.013  -3.386  0.00  0.00    +0.115 C 
ATOM      5  C   UNL     1       4.260  -0.959  -2.283  0.00  0.00    -0.004 C 
ATOM      6  C   UNL     1       4.917  -2.324  -2.472  0.00  0.00    -0.010 C 
ATOM      7  C   UNL     1       6.425  -2.196  -2.239  0.00  0.00    -0.082 C 
ATOM      8  N   UNL     1       6.671  -1.696  -0.881  0.00  0.00    +0.379 N 
ATOM      9  C   UNL     1       6.117  -0.345  -0.737  0.00  0.00    -0.082 C 
ATOM     10  C   UNL     1       4.596  -0.394  -0.907  0.00  0.00    -0.010 C 
ATOM     11  C   UNL     1       3.451   2.133  -3.980  0.00  0.00    +0.220 C 
ATOM     12  O   UNL     1       4.462   2.804  -3.983  0.00  0.00    -0.275 OA
ATOM     13  H   UNL     1       6.232  -2.312  -0.213  0.00  0.00    -0.086 HD
ATOM     14  H   UNL     1       7.665  -1.671  -0.709  0.00  0.00    -0.086 HD
ENDROOT
BRANCH   1  16
ATOM     15  N   UNL     1       1.684  -1.462  -0.250  0.00  0.00    -0.312 N 
ATOM     16  C   UNL     1       2.031  -0.587  -1.215  0.00  0.00    +0.218 C 
ATOM     17  O   UNL     1       1.776   0.592  -1.085  0.00  0.00    -0.275 OA
ATOM     18  H   UNL     1       1.888  -2.405  -0.354  0.00  0.00    +0.149 HD
BRANCH  15  20
ATOM     19  C   UNL     1      -0.506  -0.912   0.689  0.00  0.00    +0.028 C 
ATOM     20  C   UNL     1       0.998  -0.990   0.955  0.00  0.00    +0.070 C 
BRANCH  20  21
ATOM     21  C   UNL     1       1.263  -1.962   2.107  0.00  0.00    +0.026 C 
BRANCH  21  22
ATOM     22  C   UNL     1       2.752  -1.946   2.456  0.00  0.00    +0.037 C 
BRANCH  22  23
ATOM     23  C   UNL     1       3.013  -2.903   3.590  0.00  0.00    -0.047 A 
ATOM     24  C   UNL     1       2.932  -2.462   4.898  0.00  0.00    +0.007 A 
ATOM     25  C   UNL     1       3.171  -3.338   5.939  0.00  0.00    +0.046 A 
ATOM     26  C   UNL     1       3.492  -4.661   5.672  0.00  0.00    +0.120 A 
ATOM     27  C   UNL     1       3.571  -5.101   4.358  0.00  0.00    +0.046 A 
ATOM     28  C   UNL     1       3.327  -4.223   3.321  0.00  0.00    +0.007 A 
BRANCH  26  29
ATOM     29  O   UNL     1       3.728  -5.524   6.694  0.00  0.00    -0.495 OA
ATOM     30  C   UNL     1       4.052  -6.871   6.345  0.00  0.00    +0.277 C 
ENDBRANCH  26  29
ENDBRANCH  22  23
ENDBRANCH  21  22
ENDBRANCH  20  21
ENDBRANCH  15  20
ENDBRANCH   1  16
BRANCH  11  31
ATOM     31  C   UNL     1       2.121   2.773  -4.284  0.00  0.00    +0.131 C 
BRANCH  31  32
ATOM     32  C   UNL     1       2.321   4.242  -4.554  0.00  0.00    -0.039 A 
ATOM     33  C   UNL     1       2.265   5.150  -3.513  0.00  0.00    +0.005 A 
ATOM     34  C   UNL     1       2.448   6.497  -3.760  0.00  0.00    +0.020 A 
ATOM     35  C   UNL     1       2.687   6.938  -5.050  0.00  0.00    +0.041 A 
ATOM     36  C   UNL     1       2.742   6.029  -6.091  0.00  0.00    +0.020 A 
ATOM     37  C   UNL     1       2.565   4.681  -5.842  0.00  0.00    +0.005 A 
ATOM     38 CL   UNL     1       2.916   8.630  -5.361  0.00  0.00    -0.084 Cl
ENDBRANCH  31  32
ENDBRANCH  11  31
TORSDOF 8
