REMARK  Name = ZINC09671512
REMARK  8 active torsions:
REMARK  status: ('A' for Active; 'I' for Inactive)
REMARK    1  A    between atoms: C_1  and  C_2
REMARK    2  A    between atoms: C_6  and  S_8
REMARK    3  A    between atoms: S_8  and  N_11
REMARK    4  A    between atoms: N_11  and  C_12
REMARK    5  A    between atoms: C_12  and  C_14
REMARK    6  A    between atoms: C_12  and  C_25
REMARK    7  A    between atoms: C_14  and  C_15
REMARK    8  A    between atoms: C_31  and  C_33
REMARK                            x       y       z     vdW  Elec       q    Type
REMARK                         _______ _______ _______ _____ _____    ______ ____
ROOT
ATOM      1  C   UNL     1      -2.244  -0.906   3.026  0.00  0.00    +0.167 C 
ENDROOT
BRANCH   1   2
ATOM      2  C   UNL     1      -1.113  -0.310   2.227  0.00  0.00    +0.235 C 
ATOM      3  O   UNL     1      -0.268   0.361   2.780  0.00  0.00    -0.274 OA
ATOM      4  N   UNL     1      -1.042  -0.523   0.898  0.00  0.00    -0.293 N 
ATOM      5  C   UNL     1      -1.996  -1.316   0.102  0.00  0.00    +0.108 C 
ATOM      6  C   UNL     1      -1.193  -1.772  -1.142  0.00  0.00    +0.021 C 
ATOM      7  C   UNL     1      -0.311  -0.525  -1.416  0.00  0.00    +0.029 C 
ATOM      8  C   UNL     1       0.002  -0.004   0.002  0.00  0.00    +0.113 C 
BRANCH   8   9
ATOM      9  C   UNL     1      -0.018   1.503   0.010  0.00  0.00    +0.010 A 
ATOM     10  C   UNL     1       1.023   2.371   0.005  0.00  0.00    +0.013 A 
ATOM     11  C   UNL     1       0.764   3.728   0.014  0.00  0.00    +0.008 A 
ATOM     12  C   UNL     1      -0.524   4.152   0.028  0.00  0.00    +0.045 A 
ATOM     13  S   UNL     1      -1.420   2.608   0.022  0.00  0.00    -0.100 S 
ENDBRANCH   8   9
ENDBRANCH   1   2
BRANCH   1  14
ATOM     14  N   UNL     1      -2.097  -0.531   4.434  0.00  0.00    -0.178 NA
ATOM     15  H   UNL     1      -2.445   0.317   4.749  0.00  0.00    +0.149 HD
BRANCH  14  16
ATOM     16  S   UNL     1      -1.336  -1.557   5.489  0.00  0.00    +0.059 S 
ATOM     17  O   UNL     1      -1.329  -0.908   6.753  0.00  0.00    -0.153 OA
ATOM     18  O   UNL     1      -1.914  -2.841   5.295  0.00  0.00    -0.153 OA
BRANCH  16  24
ATOM     19  C   UNL     1       2.456  -3.817   2.691  0.00  0.00    +0.044 C 
ATOM     20  C   UNL     1       2.043  -2.751   3.673  0.00  0.00    -0.049 A 
ATOM     21  C   UNL     1       2.983  -1.869   4.172  0.00  0.00    +0.003 A 
ATOM     22  C   UNL     1       2.604  -0.892   5.073  0.00  0.00    +0.002 A 
ATOM     23  C   UNL     1       1.285  -0.797   5.476  0.00  0.00    +0.028 A 
ATOM     24  C   UNL     1       0.345  -1.678   4.976  0.00  0.00    +0.106 A 
ATOM     25  C   UNL     1       0.725  -2.659   4.078  0.00  0.00    +0.032 A 
ENDBRANCH  16  24
ENDBRANCH  14  16
ENDBRANCH   1  14
BRANCH   1  26
ATOM     26  C   UNL     1      -3.578  -0.378   2.494  0.00  0.00    +0.067 C 
BRANCH  26  27
ATOM     27  C   UNL     1      -4.712  -1.066   3.210  0.00  0.00    -0.020 A 
ATOM     28  C   UNL     1      -5.384  -2.148   2.786  0.00  0.00    +0.087 A 
ATOM     29  N   UNL     1      -6.342  -2.490   3.701  0.00  0.00    -0.360 N 
ATOM     30  H   UNL     1      -6.952  -3.239   3.615  0.00  0.00    +0.165 HD
ATOM     31  C   UNL     1      -6.316  -1.608   4.758  0.00  0.00    +0.047 A 
ATOM     32  C   UNL     1      -5.293  -0.677   4.497  0.00  0.00    +0.003 A 
ATOM     33  C   UNL     1      -5.034   0.347   5.409  0.00  0.00    +0.010 A 
ATOM     34  C   UNL     1      -5.776   0.441   6.552  0.00  0.00    +0.001 A 
ATOM     35  C   UNL     1      -6.786  -0.474   6.814  0.00  0.00    +0.002 A 
ATOM     36  C   UNL     1      -7.059  -1.493   5.928  0.00  0.00    +0.026 A 
ENDBRANCH  26  27
ENDBRANCH   1  26
TORSDOF 7
