REMARK  Name = ZINC24972973
REMARK  9 active torsions:
REMARK  status: ('A' for Active; 'I' for Inactive)
REMARK    1  A    between atoms: C_1  and  C_2
REMARK    2  A    between atoms: C_2  and  C_4
REMARK    3  A    between atoms: C_2  and  S_14
REMARK    4  A    between atoms: N_10  and  C_11
REMARK    5  A    between atoms: N_10  and  C_12
REMARK    6  A    between atoms: S_14  and  C_15
REMARK    7  A    between atoms: C_18  and  C_27
REMARK    8  A    between atoms: N_19  and  C_20
REMARK    9  A    between atoms: C_20  and  C_21
REMARK                            x       y       z     vdW  Elec       q    Type
REMARK                         _______ _______ _______ _____ _____    ______ ____
ROOT
ATOM      1  C   UNL     1      -0.206   1.009  -2.518  0.00  0.00    +0.193 A 
ATOM      2  N   UNL     1       1.023   0.620  -2.258  0.00  0.00    -0.122 NA
ATOM      3  N   UNL     1       1.523   0.025  -3.281  0.00  0.00    -0.128 NA
ATOM      4  C   UNL     1       0.645  -0.002  -4.258  0.00  0.00    +0.165 A 
ATOM      5  N   UNL     1      -0.490   0.623  -3.797  0.00  0.00    -0.298 N 
ENDROOT
BRANCH   4   6
ATOM      6  C   UNL     1       0.839  -0.597  -5.597  0.00  0.00    +0.019 A 
ATOM      7  C   UNL     1       0.231  -0.021  -6.714  0.00  0.00    +0.013 A 
ATOM      8  C   UNL     1       0.419  -0.579  -7.962  0.00  0.00    +0.021 A 
ATOM      9  C   UNL     1       1.201  -1.712  -8.106  0.00  0.00    +0.041 A 
ATOM     10  C   UNL     1       1.804  -2.290  -7.001  0.00  0.00    +0.021 A 
ATOM     11  C   UNL     1       1.627  -1.739  -5.749  0.00  0.00    +0.013 A 
ATOM     12 CL   UNL     1       1.428  -2.411  -9.679  0.00  0.00    -0.084 Cl
ENDBRANCH   4   6
BRANCH   1  13
ATOM     13  S   UNL     1      -1.286   1.864  -1.419  0.00  0.00    -0.075 S 
BRANCH  13  15
ATOM     14  C   UNL     1       0.986   2.887  -0.299  0.00  0.00    +0.028 C 
ATOM     15  C   UNL     1      -0.214   1.998   0.033  0.00  0.00    +0.119 C 
BRANCH  15  16
ATOM     16  C   UNL     1      -0.989   2.606   1.174  0.00  0.00    +0.149 A 
ATOM     17  N   UNL     1      -1.754   3.663   0.963  0.00  0.00    -0.198 NA
ATOM     18  C   UNL     1      -2.440   4.202   1.968  0.00  0.00    +0.217 A 
ATOM     19  N   UNL     1      -2.355   3.676   3.185  0.00  0.00    -0.181 NA
ATOM     20  C   UNL     1      -1.585   2.614   3.394  0.00  0.00    +0.222 A 
ATOM     21  N   UNL     1      -0.906   2.078   2.382  0.00  0.00    -0.198 NA
ATOM     22  N   UNL     1      -1.494   2.064   4.656  0.00  0.00    -0.306 N 
ATOM     23  C   UNL     1      -2.246   2.652   5.767  0.00  0.00    +0.132 C 
ATOM     24  C   UNL     1      -0.645   0.893   4.886  0.00  0.00    +0.132 C 
ATOM     25  N   UNL     1      -3.238   5.306   1.746  0.00  0.00    -0.327 N 
ATOM     26  H   UNL     1      -3.805   5.751   2.577  0.00  0.00    +0.145 HD
ATOM     27  H   UNL     1      -3.308   5.741   0.738  0.00  0.00    +0.145 HD
ENDBRANCH  15  16
ENDBRANCH  13  15
ENDBRANCH   1  13
BRANCH   5  28
ATOM     28  C   UNL     1      -1.743   0.832  -4.526  0.00  0.00    +0.161 C 
BRANCH  28  29
ATOM     29  C   UNL     1      -2.600  -0.403  -4.418  0.00  0.00    -0.028 A 
ATOM     30  C   UNL     1      -2.541  -1.373  -5.401  0.00  0.00    +0.005 A 
ATOM     31  C   UNL     1      -3.323  -2.509  -5.300  0.00  0.00    +0.000 A 
ATOM     32  C   UNL     1      -4.172  -2.668  -4.221  0.00  0.00    +0.000 A 
ATOM     33  C   UNL     1      -4.236  -1.695  -3.241  0.00  0.00    +0.000 A 
ATOM     34  C   UNL     1      -3.450  -0.563  -3.340  0.00  0.00    +0.005 A 
ENDBRANCH  28  29
ENDBRANCH   5  28
TORSDOF 6
