REMARK  Name = ZINC13507687
REMARK  8 active torsions:
REMARK  status: ('A' for Active; 'I' for Inactive)
REMARK    1  A    between atoms: C_3  and  C_6
REMARK    2  A    between atoms: N_8  and  C_9
REMARK    3  A    between atoms: C_9  and  C_10
REMARK    4  A    between atoms: N_12  and  C_13
REMARK    5  A    between atoms: N_12  and  C_20
REMARK    6  A    between atoms: C_20  and  C_22
REMARK    7  A    between atoms: C_20  and  C_27
REMARK    8  A    between atoms: N_29  and  C_30
REMARK                            x       y       z     vdW  Elec       q    Type
REMARK                         _______ _______ _______ _____ _____    ______ ____
ROOT
ATOM      1  C   UNL     1      -2.551   6.361   1.438  0.00  0.00    +0.238 C 
ATOM      2  O   UNL     1      -1.620   6.862   2.032  0.00  0.00    -0.274 OA
ATOM      3  N   UNL     1      -2.320   5.487   0.438  0.00  0.00    -0.254 N 
ENDROOT
BRANCH   3   4
ATOM      4  C   UNL     1      -3.384   5.019  -0.343  0.00  0.00    +0.038 A 
ATOM      5  C   UNL     1      -3.190   4.746  -1.691  0.00  0.00    +0.026 A 
ATOM      6  C   UNL     1      -4.239   4.281  -2.458  0.00  0.00    +0.040 A 
ATOM      7  C   UNL     1      -5.487   4.096  -1.888  0.00  0.00    +0.124 A 
ATOM      8  C   UNL     1      -5.684   4.372  -0.545  0.00  0.00    +0.040 A 
ATOM      9  C   UNL     1      -4.636   4.833   0.227  0.00  0.00    +0.026 A 
ATOM     10  F   UNL     1      -6.514   3.645  -2.641  0.00  0.00    -0.205 F 
ENDBRANCH   3   4
BRANCH   1  11
ATOM     11  C   UNL     1      -3.966   6.714   1.817  0.00  0.00    +0.201 C 
BRANCH  11  14
ATOM     12  C   UNL     1      -5.182   8.636   2.692  0.00  0.00    +0.280 C 
ATOM     13  O   UNL     1      -6.201   7.971   2.654  0.00  0.00    -0.267 OA
ATOM     14  N   UNL     1      -4.012   8.098   2.295  0.00  0.00    -0.300 N 
ATOM     15  H   UNL     1      -3.200   8.628   2.326  0.00  0.00    +0.150 HD
BRANCH  12  18
ATOM     16  C   UNL     1      -5.926  11.976   3.963  0.00  0.00    +0.042 A 
ATOM     17  C   UNL     1      -6.341  10.685   3.601  0.00  0.00    +0.054 A 
ATOM     18  C   UNL     1      -5.228  10.021   3.171  0.00  0.00    +0.189 A 
ATOM     19  O   UNL     1      -4.177  10.861   3.270  0.00  0.00    -0.458 OA
ATOM     20  C   UNL     1      -4.595  12.043   3.742  0.00  0.00    +0.196 A 
ENDBRANCH  12  18
ENDBRANCH  11  14
ENDBRANCH   1  11
BRANCH   3  21
ATOM     21  C   UNL     1      -0.956   5.026   0.169  0.00  0.00    +0.204 C 
BRANCH  21  22
ATOM     22  C   UNL     1      -0.935   3.520   0.117  0.00  0.00    +0.019 A 
ATOM     23  C   UNL     1       0.096   2.672   0.351  0.00  0.00    +0.013 A 
ATOM     24  C   UNL     1      -0.118   1.310   0.245  0.00  0.00    +0.008 A 
ATOM     25  C   UNL     1      -1.354   0.864  -0.090  0.00  0.00    +0.045 A 
ATOM     26  S   UNL     1      -2.261   2.390  -0.274  0.00  0.00    -0.099 S 
ENDBRANCH  21  22
BRANCH  21  27
ATOM     27  C   UNL     1      -0.490   5.580  -1.153  0.00  0.00    +0.239 C 
ATOM     28  O   UNL     1      -1.226   6.290  -1.806  0.00  0.00    -0.273 OA
ATOM     29  N   UNL     1       0.744   5.286  -1.610  0.00  0.00    -0.311 N 
ATOM     30  H   UNL     1       1.332   4.718  -1.088  0.00  0.00    +0.149 HD
BRANCH  29  31
ATOM     31  C   UNL     1       1.196   5.825  -2.895  0.00  0.00    +0.073 C 
ATOM     32  C   UNL     1       0.720   4.912  -4.027  0.00  0.00    +0.022 C 
ATOM     33  C   UNL     1       1.192   5.475  -5.369  0.00  0.00    +0.002 C 
ATOM     34  C   UNL     1       2.721   5.548  -5.381  0.00  0.00    +0.000 C 
ATOM     35  C   UNL     1       3.197   6.460  -4.249  0.00  0.00    +0.002 C 
ATOM     36  C   UNL     1       2.724   5.898  -2.907  0.00  0.00    +0.022 C 
ENDBRANCH  29  31
ENDBRANCH  21  27
ENDBRANCH   3  21
TORSDOF 8
