REMARK  Name = ZINC21242515
REMARK  9 active torsions:
REMARK  status: ('A' for Active; 'I' for Inactive)
REMARK    1  A    between atoms: C_1  and  C_2
REMARK    2  A    between atoms: C_11  and  N_32
REMARK    3  A    between atoms: C_13  and  S_15
REMARK    4  A    between atoms: S_15  and  C_16
REMARK    5  A    between atoms: C_16  and  C_18
REMARK    6  A    between atoms: C_16  and  C_19
REMARK    7  A    between atoms: N_21  and  C_22
REMARK    8  A    between atoms: C_25  and  S_28
REMARK    9  A    between atoms: S_28  and  N_31
REMARK                            x       y       z     vdW  Elec       q    Type
REMARK                         _______ _______ _______ _____ _____    ______ ____
ROOT
ATOM      1  S   UNL     1       3.895   1.952   0.654  0.00  0.00    -0.073 S 
ENDROOT
BRANCH   1  13
ATOM      2  C   UNL     1      -4.649  -2.752  -2.442  0.00  0.00    +0.008 C 
ATOM      3  C   UNL     1      -3.442  -1.831  -2.252  0.00  0.00    -0.009 C 
ATOM      4  C   UNL     1      -3.729  -0.832  -1.127  0.00  0.00    +0.008 C 
ATOM      5  C   UNL     1      -2.641   0.241  -1.096  0.00  0.00    +0.037 C 
ATOM      6  C   UNL     1      -1.277  -0.442  -1.037  0.00  0.00    -0.025 A 
ATOM      7  C   UNL     1      -1.139  -1.735  -1.389  0.00  0.00    -0.004 A 
ATOM      8  S   UNL     1       0.583  -2.095  -1.165  0.00  0.00    -0.073 S 
ATOM      9  C   UNL     1       1.117  -0.502  -0.597  0.00  0.00    +0.115 A 
ATOM     10  C   UNL     1      -0.068   0.261  -0.601  0.00  0.00    +0.051 A 
ATOM     11  C   UNL     1       0.071   1.613  -0.179  0.00  0.00    +0.129 A 
ATOM     12  N   UNL     1       1.263   2.059   0.179  0.00  0.00    -0.207 NA
ATOM     13  C   UNL     1       2.341   1.284   0.160  0.00  0.00    +0.192 A 
ATOM     14  N   UNL     1       2.271   0.016  -0.224  0.00  0.00    -0.214 NA
ATOM     15  C   UNL     1      -2.212  -2.666  -1.866  0.00  0.00    +0.046 C 
BRANCH  11  16
ATOM     16  N   UNL     1      -1.028   2.453  -0.151  0.00  0.00    -0.343 N 
ATOM     17  H   UNL     1      -0.913   3.497   0.176  0.00  0.00    +0.144 HD
ATOM     18  H   UNL     1      -2.015   2.077  -0.455  0.00  0.00    +0.144 HD
ENDBRANCH  11  16
ENDBRANCH   1  13
BRANCH   1  19
ATOM     19  C   UNL     1       3.396   3.646   1.053  0.00  0.00    +0.137 C 
ATOM     20  C   UNL     1       2.443   3.628   2.250  0.00  0.00    +0.029 C 
BRANCH  19  21
ATOM     21  C   UNL     1       4.616   4.462   1.395  0.00  0.00    +0.230 C 
ATOM     22  O   UNL     1       5.643   3.908   1.726  0.00  0.00    -0.274 OA
ATOM     23  N   UNL     1       4.566   5.807   1.333  0.00  0.00    -0.285 N 
ATOM     24  H   UNL     1       3.613   6.313   1.117  0.00  0.00    +0.155 HD
BRANCH  23  25
ATOM     25  C   UNL     1       5.726   6.561   1.542  0.00  0.00    +0.034 A 
ATOM     26  C   UNL     1       5.645   7.810   2.143  0.00  0.00    +0.025 A 
ATOM     27  C   UNL     1       6.793   8.549   2.353  0.00  0.00    +0.030 A 
ATOM     28  C   UNL     1       8.020   8.051   1.955  0.00  0.00    +0.105 A 
ATOM     29  C   UNL     1       8.103   6.810   1.351  0.00  0.00    +0.030 A 
ATOM     30  C   UNL     1       6.960   6.064   1.143  0.00  0.00    +0.025 A 
BRANCH  28  31
ATOM     31  S   UNL     1       9.481   9.000   2.219  0.00  0.00    +0.056 S 
ATOM     32  O   UNL     1       9.201   9.886   3.294  0.00  0.00    -0.153 OA
ATOM     33  O   UNL     1      10.563   8.079   2.253  0.00  0.00    -0.153 OA
BRANCH  31  34
ATOM     34  N   UNL     1       9.703   9.942   0.875  0.00  0.00    -0.204 NA
ATOM     35  H   UNL     1      10.609  10.552   1.001  0.00  0.00    +0.144 HD
ATOM     36  H   UNL     1       8.832  10.601   0.742  0.00  0.00    +0.144 HD
ENDBRANCH  31  34
ENDBRANCH  28  31
ENDBRANCH  23  25
ENDBRANCH  19  21
ENDBRANCH   1  19
TORSDOF 7
