REMARK  Name = ZINC59170452
REMARK  6 active torsions:
REMARK  status: ('A' for Active; 'I' for Inactive)
REMARK    1  A    between atoms: C_1  and  C_2
REMARK    2  A    between atoms: C_7  and  N_8
REMARK    3  A    between atoms: C_9  and  C_11
REMARK    4  A    between atoms: N_21  and  C_22
REMARK    5  A    between atoms: C_25  and  S_28
REMARK    6  A    between atoms: S_28  and  N_31
REMARK                            x       y       z     vdW  Elec       q    Type
REMARK                         _______ _______ _______ _____ _____    ______ ____
ROOT
ATOM      1  C   UNL     1      -0.226   0.032   4.819  0.00  0.00    +0.098 A 
ATOM      2  C   UNL     1      -0.192  -0.658   6.025  0.00  0.00    +0.030 A 
ATOM      3  C   UNL     1      -0.234   0.136   7.255  0.00  0.00    +0.021 A 
ATOM      4  C   UNL     1       0.061  -0.447   8.493  0.00  0.00    +0.031 A 
ATOM      5  C   UNL     1       0.018   0.322   9.636  0.00  0.00    +0.043 A 
ATOM      6  C   UNL     1      -0.317   1.668   9.564  0.00  0.00    +0.043 A 
ATOM      7  C   UNL     1      -0.613   2.256   8.350  0.00  0.00    +0.085 A 
ATOM      8  C   UNL     1      -0.576   1.499   7.186  0.00  0.00    +0.156 A 
ATOM      9  O   UNL     1      -0.871   2.061   5.988  0.00  0.00    -0.437 OA
ATOM     10  C   UNL     1      -0.296   1.505   4.889  0.00  0.00    +0.212 A 
ATOM     11  N   UNL     1       0.179   2.253   3.917  0.00  0.00    -0.325 N 
ATOM     12 CL   UNL     1      -1.029   3.939   8.278  0.00  0.00    -0.080 Cl
ATOM     13 CL   UNL     1       0.382  -0.396  11.174  0.00  0.00    -0.083 Cl
ATOM     14  H   UNL     1       0.688   1.847   3.197  0.00  0.00    +0.169 HD
ENDROOT
BRANCH  11  15
ATOM     15  C   UNL     1      -0.043   3.602   3.921  0.00  0.00    +0.042 A 
ATOM     16  C   UNL     1      -1.313   4.103   4.217  0.00  0.00    +0.027 A 
ATOM     17  C   UNL     1      -1.530   5.465   4.220  0.00  0.00    +0.030 A 
ATOM     18  C   UNL     1      -0.493   6.335   3.931  0.00  0.00    +0.105 A 
ATOM     19  C   UNL     1       0.767   5.846   3.637  0.00  0.00    +0.030 A 
ATOM     20  C   UNL     1       1.000   4.486   3.636  0.00  0.00    +0.027 A 
BRANCH  18  21
ATOM     21  S   UNL     1      -0.780   8.073   3.937  0.00  0.00    +0.056 S 
ATOM     22  O   UNL     1       0.214   8.652   3.103  0.00  0.00    -0.153 OA
ATOM     23  O   UNL     1      -2.170   8.257   3.706  0.00  0.00    -0.153 OA
BRANCH  21  24
ATOM     24  N   UNL     1      -0.480   8.614   5.474  0.00  0.00    -0.204 NA
ATOM     25  H   UNL     1      -0.202   7.989   6.162  0.00  0.00    +0.144 HD
ATOM     26  H   UNL     1      -0.582   9.555   5.686  0.00  0.00    +0.144 HD
ENDBRANCH  21  24
ENDBRANCH  18  21
ENDBRANCH  11  15
BRANCH   1  28
ATOM     27  N   UNL     1      -0.330   0.013   2.378  0.00  0.00    -0.281 N 
ATOM     28  C   UNL     1      -0.187  -0.676   3.528  0.00  0.00    +0.253 C 
ATOM     29  O   UNL     1      -0.025  -1.881   3.500  0.00  0.00    -0.270 OA
ATOM     30  H   UNL     1      -0.410   0.979   2.398  0.00  0.00    +0.155 HD
BRANCH  27  37
ATOM     31  C   UNL     1      -1.517   1.318   0.147  0.00  0.00    +0.045 C 
ATOM     32  C   UNL     1      -0.931  -0.066   0.041  0.00  0.00    -0.029 A 
ATOM     33  C   UNL     1      -0.956  -0.737  -1.166  0.00  0.00    +0.005 A 
ATOM     34  C   UNL     1      -0.419  -2.008  -1.263  0.00  0.00    +0.000 A 
ATOM     35  C   UNL     1       0.144  -2.611  -0.153  0.00  0.00    +0.002 A 
ATOM     36  C   UNL     1       0.171  -1.946   1.057  0.00  0.00    +0.023 A 
ATOM     37  C   UNL     1      -0.362  -0.666   1.157  0.00  0.00    +0.037 A 
ENDBRANCH  27  37
ENDBRANCH   1  28
TORSDOF 5
