REMARK  Name = ZINC39666095
REMARK  8 active torsions:
REMARK  status: ('A' for Active; 'I' for Inactive)
REMARK    1  A    between atoms: C_1  and  C_2
REMARK    2  A    between atoms: C_5  and  O_8
REMARK    3  A    between atoms: O_8  and  C_9
REMARK    4  A    between atoms: C_9  and  C_11
REMARK    5  A    between atoms: C_9  and  C_12
REMARK    6  A    between atoms: C_12  and  N_13
REMARK    7  A    between atoms: C_14  and  C_16
REMARK    8  A    between atoms: C_27  and  C_29
REMARK                            x       y       z     vdW  Elec       q    Type
REMARK                         _______ _______ _______ _____ _____    ______ ____
ROOT
ATOM      1  C   UNL     1      -3.347  -7.282   0.047  0.00  0.00    +0.100 C 
ATOM      2  C   UNL     1      -3.453  -6.608  -1.340  0.00  0.00    +0.121 C 
ATOM      3  N   UNL     1      -3.730  -7.723  -2.277  0.00  0.00    -0.296 N 
ATOM      4  C   UNL     1      -4.667  -8.602  -1.537  0.00  0.00    +0.115 C 
ATOM      5  C   UNL     1      -4.147  -8.588  -0.086  0.00  0.00    -0.004 C 
ATOM      6  C   UNL     1      -3.241  -9.790   0.161  0.00  0.00    -0.010 C 
ATOM      7  C   UNL     1      -4.071 -11.074   0.079  0.00  0.00    -0.082 C 
ATOM      8  N   UNL     1      -5.143 -11.030   1.081  0.00  0.00    +0.379 N 
ATOM      9  C   UNL     1      -6.063  -9.926   0.783  0.00  0.00    -0.082 C 
ATOM     10  C   UNL     1      -5.317  -8.593   0.894  0.00  0.00    -0.010 C 
ATOM     11  C   UNL     1      -3.240  -7.897  -3.520  0.00  0.00    +0.248 C 
ATOM     12  O   UNL     1      -3.495  -8.913  -4.137  0.00  0.00    -0.270 OA
ATOM     13  H   UNL     1      -5.651 -11.902   1.067  0.00  0.00    -0.086 HD
ATOM     14  H   UNL     1      -4.741 -10.893   1.996  0.00  0.00    -0.086 HD
ENDROOT
BRANCH  11  15
ATOM     15  C   UNL     1      -2.394  -6.853  -4.135  0.00  0.00    +0.057 A 
ATOM     16  C   UNL     1      -2.659  -5.503  -3.892  0.00  0.00    +0.014 A 
ATOM     17  C   UNL     1      -1.866  -4.533  -4.468  0.00  0.00    +0.002 A 
ATOM     18  C   UNL     1      -0.809  -4.893  -5.286  0.00  0.00    +0.021 A 
ATOM     19  C   UNL     1      -0.540  -6.228  -5.532  0.00  0.00    +0.060 A 
ATOM     20  C   UNL     1      -1.323  -7.211  -4.956  0.00  0.00    +0.071 A 
ATOM     21 CL   UNL     1      -0.980  -8.886  -5.258  0.00  0.00    -0.081 Cl
ATOM     22 CL   UNL     1       0.788  -6.670  -6.560  0.00  0.00    -0.082 Cl
ENDBRANCH  11  15
BRANCH   1  24
ATOM     23  N   UNL     1      -1.526  -7.732   1.660  0.00  0.00    -0.312 N 
ATOM     24  C   UNL     1      -1.907  -7.580   0.376  0.00  0.00    +0.218 C 
ATOM     25  O   UNL     1      -1.090  -7.683  -0.514  0.00  0.00    -0.275 OA
ATOM     26  H   UNL     1      -2.180  -7.649   2.373  0.00  0.00    +0.149 HD
BRANCH  23  27
ATOM     27  C   UNL     1      -0.127  -8.021   1.980  0.00  0.00    +0.148 C 
BRANCH  27  28
ATOM     28  C   UNL     1       0.035  -8.146   3.497  0.00  0.00    +0.187 C 
ATOM     29  C   UNL     1       1.497  -8.448   3.831  0.00  0.00    +0.053 C 
BRANCH  28  30
ATOM     30  O   UNL     1      -0.352  -6.918   4.119  0.00  0.00    -0.488 OA
BRANCH  30  35
ATOM     31  C   UNL     1      -2.006  -7.188   9.496  0.00  0.00    +0.044 C 
ATOM     32  C   UNL     1      -1.564  -7.116   8.057  0.00  0.00    -0.050 A 
ATOM     33  C   UNL     1      -1.223  -8.273   7.381  0.00  0.00    +0.007 A 
ATOM     34  C   UNL     1      -0.817  -8.210   6.062  0.00  0.00    +0.046 A 
ATOM     35  C   UNL     1      -0.752  -6.984   5.416  0.00  0.00    +0.121 A 
ATOM     36  C   UNL     1      -1.094  -5.824   6.097  0.00  0.00    +0.046 A 
ATOM     37  C   UNL     1      -1.504  -5.894   7.414  0.00  0.00    +0.007 A 
ENDBRANCH  30  35
ENDBRANCH  28  30
ENDBRANCH  27  28
ENDBRANCH  23  27
ENDBRANCH   1  24
TORSDOF 6
