REMARK  Name = ZINC59513058
REMARK  6 active torsions:
REMARK  status: ('A' for Active; 'I' for Inactive)
REMARK    1  A    between atoms: C_8  and  C_11
REMARK    2  A    between atoms: C_11  and  C_12
REMARK    3  A    between atoms: C_12  and  N_13
REMARK    4  A    between atoms: C_14  and  C_16
REMARK    5  A    between atoms: C_21  and  C_36
REMARK    6  A    between atoms: C_24  and  C_27
REMARK                            x       y       z     vdW  Elec       q    Type
REMARK                         _______ _______ _______ _____ _____    ______ ____
ROOT
ATOM      1  C   UNL     1       5.803  -6.970  -2.694  0.00  0.00    +0.149 A 
ATOM      2  C   UNL     1       6.166  -7.710  -3.842  0.00  0.00    +0.078 A 
ATOM      3  C   UNL     1       6.897  -8.765  -3.433  0.00  0.00    +0.119 A 
ATOM      4  N   UNL     1       7.003  -8.707  -2.072  0.00  0.00    -0.238 N 
ATOM      5  N   UNL     1       6.316  -7.575  -1.636  0.00  0.00    -0.164 NA
ATOM      6  C   UNL     1       7.735  -9.692  -1.270  0.00  0.00    +0.215 C 
ATOM      7  C   UNL     1       8.710 -10.447  -2.181  0.00  0.00    +0.063 C 
ATOM      8  C   UNL     1       7.974 -10.953  -3.427  0.00  0.00    +0.104 C 
ATOM      9  N   UNL     1       7.481  -9.787  -4.187  0.00  0.00    -0.322 N 
ATOM     10  H   UNL     1       7.557  -9.733  -5.152  0.00  0.00    +0.148 HD
ENDROOT
BRANCH   8  11
ATOM     11  C   UNL     1       8.921 -11.755  -4.283  0.00  0.00    -0.024 A 
ATOM     12  C   UNL     1       9.818 -11.108  -5.112  0.00  0.00    +0.009 A 
ATOM     13  C   UNL     1      10.688 -11.840  -5.898  0.00  0.00    +0.050 A 
ATOM     14  C   UNL     1      10.663 -13.224  -5.857  0.00  0.00    +0.166 A 
ATOM     15  C   UNL     1       9.759 -13.876  -5.021  0.00  0.00    +0.167 A 
ATOM     16  C   UNL     1       8.894 -13.136  -4.232  0.00  0.00    +0.055 A 
ATOM     17  O   UNL     1       9.930 -15.223  -5.160  0.00  0.00    -0.453 OA
ATOM     18  C   UNL     1      10.664 -15.393  -6.387  0.00  0.00    +0.466 C 
ATOM     19  O   UNL     1      11.400 -14.163  -6.519  0.00  0.00    -0.453 OA
ENDBRANCH   8  11
BRANCH   1  21
ATOM     20  N   UNL     1       4.726  -5.119  -1.510  0.00  0.00    -0.310 N 
ATOM     21  C   UNL     1       4.997  -5.732  -2.679  0.00  0.00    +0.264 C 
ATOM     22  O   UNL     1       4.578  -5.267  -3.721  0.00  0.00    -0.268 OA
ATOM     23  H   UNL     1       5.060  -5.490  -0.678  0.00  0.00    +0.149 HD
BRANCH  20  24
ATOM     24  C   UNL     1       3.926  -3.891  -1.495  0.00  0.00    +0.110 C 
BRANCH  24  25
ATOM     25  C   UNL     1       3.768  -3.404  -0.053  0.00  0.00    +0.072 C 
BRANCH  25  33
ATOM     26  C   UNL     1      -0.017   1.362   0.009  0.00  0.00    +0.001 A 
ATOM     27  C   UNL     1       1.170   2.083   0.002  0.00  0.00    +0.002 A 
ATOM     28  C   UNL     1       2.386   1.436  -0.013  0.00  0.00    +0.026 A 
ATOM     29  C   UNL     1       2.428   0.046  -0.021  0.00  0.00    +0.047 A 
ATOM     30  C   UNL     1       1.223  -0.681  -0.013  0.00  0.00    -0.000 A 
ATOM     31  C   UNL     1       0.002  -0.004   0.002  0.00  0.00    +0.010 A 
ATOM     32  C   UNL     1       1.604  -2.095  -0.025  0.00  0.00    +0.031 A 
ATOM     33  C   UNL     1       2.945  -2.141  -0.038  0.00  0.00    +0.018 A 
ATOM     34  N   UNL     1       3.455  -0.871  -0.036  0.00  0.00    -0.358 N 
ATOM     35  H   UNL     1       4.399  -0.650  -0.044  0.00  0.00    +0.166 HD
ENDBRANCH  25  33
ENDBRANCH  24  25
ENDBRANCH  20  24
ENDBRANCH   1  21
BRANCH   6  36
ATOM     36  C   UNL     1       8.513  -8.976  -0.165  0.00  0.00    +0.412 C 
ATOM     37  F   UNL     1       7.621  -8.278   0.657  0.00  0.00    -0.168 F 
ATOM     38  F   UNL     1       9.211  -9.918   0.599  0.00  0.00    -0.168 F 
ATOM     39  F   UNL     1       9.419  -8.077  -0.738  0.00  0.00    -0.168 F 
ENDBRANCH   6  36
TORSDOF 6
