REMARK  Name = ZINC40986312
REMARK  8 active torsions:
REMARK  status: ('A' for Active; 'I' for Inactive)
REMARK    1  A    between atoms: C_4  and  C_7
REMARK    2  A    between atoms: C_7  and  S_8
REMARK    3  A    between atoms: S_8  and  C_11
REMARK    4  A    between atoms: C_14  and  C_18
REMARK    5  A    between atoms: N_20  and  C_21
REMARK    6  A    between atoms: C_21  and  C_22
REMARK    7  A    between atoms: C_22  and  C_24
REMARK    8  A    between atoms: C_22  and  N_31
REMARK                            x       y       z     vdW  Elec       q    Type
REMARK                         _______ _______ _______ _____ _____    ______ ____
ROOT
ATOM      1  C   UNL     1       9.167  -3.970   0.823  0.00  0.00    +0.248 C 
ATOM      2  O   UNL     1      10.168  -3.281   0.835  0.00  0.00    -0.270 OA
ATOM      3  N   UNL     1       9.273  -5.314   0.835  0.00  0.00    -0.312 N 
ATOM      4  H   UNL     1       8.474  -5.863   0.826  0.00  0.00    +0.149 HD
ENDROOT
BRANCH   1   8
ATOM      5  C   UNL     1       5.415  -2.182   0.746  0.00  0.00    +0.272 A 
ATOM      6  N   UNL     1       5.495  -3.498   0.757  0.00  0.00    -0.219 NA
ATOM      7  C   UNL     1       6.667  -4.108   0.781  0.00  0.00    +0.130 A 
ATOM      8  C   UNL     1       7.833  -3.335   0.795  0.00  0.00    +0.092 A 
ATOM      9  C   UNL     1       7.700  -1.940   0.783  0.00  0.00    +0.146 A 
ATOM     10  N   UNL     1       6.486  -1.414   0.753  0.00  0.00    -0.199 NA
ATOM     11 CL   UNL     1       9.104  -0.919   0.799  0.00  0.00    -0.061 Cl
BRANCH   5  12
ATOM     12  S   UNL     1       3.824  -1.425   0.713  0.00  0.00    +0.036 S 
ATOM     13  O   UNL     1       4.017  -0.148   1.304  0.00  0.00    -0.166 OA
ATOM     14  O   UNL     1       2.957  -2.378   1.313  0.00  0.00    -0.166 OA
BRANCH  12  15
ATOM     15  C   UNL     1       3.430  -1.246  -1.049  0.00  0.00    +0.210 C 
BRANCH  15  19
ATOM     16  C   UNL     1      -0.410   0.578  -1.473  0.00  0.00    +0.000 A 
ATOM     17  C   UNL     1       0.725   1.364  -1.408  0.00  0.00    +0.000 A 
ATOM     18  C   UNL     1       1.968   0.774  -1.271  0.00  0.00    +0.005 A 
ATOM     19  C   UNL     1       2.075  -0.602  -1.198  0.00  0.00    -0.026 A 
ATOM     20  C   UNL     1       0.940  -1.388  -1.262  0.00  0.00    +0.005 A 
ATOM     21  C   UNL     1      -0.303  -0.798  -1.400  0.00  0.00    +0.000 A 
ENDBRANCH  15  19
ENDBRANCH  12  15
ENDBRANCH   5  12
ENDBRANCH   1   8
BRANCH   3  22
ATOM     22  C   UNL     1      10.595  -5.944   0.863  0.00  0.00    +0.094 C 
BRANCH  22  23
ATOM     23  C   UNL     1      10.435  -7.460   0.998  0.00  0.00    -0.019 C 
BRANCH  23  24
ATOM     24  C   UNL     1       9.766  -8.006  -0.237  0.00  0.00    -0.041 A 
ATOM     25  C   UNL     1       8.396  -8.189  -0.258  0.00  0.00    +0.003 A 
ATOM     26  C   UNL     1       7.782  -8.690  -1.390  0.00  0.00    +0.000 A 
ATOM     27  C   UNL     1       8.538  -9.008  -2.503  0.00  0.00    +0.001 A 
ATOM     28  C   UNL     1       9.907  -8.825  -2.484  0.00  0.00    +0.020 A 
ATOM     29  C   UNL     1      10.522  -8.318  -1.353  0.00  0.00    +0.043 A 
ATOM     30 CL   UNL     1      12.241  -8.082  -1.330  0.00  0.00    -0.083 Cl
ENDBRANCH  23  24
BRANCH  23  31
ATOM     31  N   UNL     1       9.611  -7.762   2.175  0.00  0.00    +0.385 N 
ATOM     32  C   UNL     1       9.530  -9.231   2.381  0.00  0.00    -0.078 C 
ATOM     33  C   UNL     1       9.156  -9.360   3.879  0.00  0.00    -0.020 C 
ATOM     34  C   UNL     1       9.960  -8.214   4.535  0.00  0.00    -0.020 C 
ATOM     35  C   UNL     1      10.246  -7.219   3.396  0.00  0.00    -0.078 C 
ATOM     36  H   UNL     1       8.686  -7.375   2.062  0.00  0.00    -0.081 HD
ENDBRANCH  23  31
ENDBRANCH  22  23
ENDBRANCH   3  22
TORSDOF 8
