REMARK  Name = ZINC38651821
REMARK  9 active torsions:
REMARK  status: ('A' for Active; 'I' for Inactive)
REMARK    1  A    between atoms: C_1  and  O_2
REMARK    2  A    between atoms: O_2  and  C_3
REMARK    3  A    between atoms: C_6  and  C_9
REMARK    4  A    between atoms: C_9  and  C_10
REMARK    5  A    between atoms: C_10  and  O_12
REMARK    6  A    between atoms: O_12  and  C_13
REMARK    7  A    between atoms: C_20  and  N_33
REMARK    8  A    between atoms: C_21  and  C_31
REMARK    9  A    between atoms: C_22  and  C_24
REMARK                            x       y       z     vdW  Elec       q    Type
REMARK                         _______ _______ _______ _____ _____    ______ ____
ROOT
ATOM      1  C   UNL     1       6.091  -3.490  -4.757  0.00  0.00    +0.135 A 
ATOM      2  C   UNL     1       6.649  -3.143  -3.534  0.00  0.00    +0.047 A 
ATOM      3  C   UNL     1       7.998  -3.332  -3.312  0.00  0.00    +0.012 A 
ATOM      4  C   UNL     1       8.800  -3.868  -4.305  0.00  0.00    +0.008 A 
ATOM      5  C   UNL     1       8.249  -4.217  -5.528  0.00  0.00    +0.138 A 
ATOM      6  C   UNL     1       6.890  -4.032  -5.751  0.00  0.00    +0.093 A 
ATOM      7  O   UNL     1       9.018  -4.743  -6.513  0.00  0.00    -0.441 OA
ATOM      8  C   UNL     1      10.209  -5.287  -6.214  0.00  0.00    +0.199 C 
ATOM      9  C   UNL     1      10.856  -5.006  -5.058  0.00  0.00    +0.098 C 
ATOM     10  C   UNL     1      10.270  -4.066  -4.043  0.00  0.00    +0.098 C 
ENDROOT
BRANCH  10  11
ATOM     11  C   UNL     1      10.975  -2.737  -4.128  0.00  0.00    -0.035 A 
ATOM     12  C   UNL     1      10.933  -2.006  -5.301  0.00  0.00    +0.005 A 
ATOM     13  C   UNL     1      11.580  -0.787  -5.379  0.00  0.00    +0.015 A 
ATOM     14  C   UNL     1      12.269  -0.298  -4.284  0.00  0.00    +0.018 A 
ATOM     15  C   UNL     1      12.311  -1.030  -3.111  0.00  0.00    +0.015 A 
ATOM     16  C   UNL     1      11.659  -2.246  -3.032  0.00  0.00    +0.005 A 
ATOM     17 BR   UNL     1      13.154   1.369  -4.391  0.00  0.00    -0.050 Br
ENDBRANCH  10  11
BRANCH   8  18
ATOM     18  N   UNL     1      10.789  -6.153  -7.108  0.00  0.00    -0.328 N 
ATOM     19  H   UNL     1      10.338  -6.364  -7.941  0.00  0.00    +0.145 HD
ATOM     20  H   UNL     1      11.649  -6.554  -6.907  0.00  0.00    +0.145 HD
ENDBRANCH   8  18
BRANCH   9  21
ATOM     21  C   UNL     1      12.123  -5.619  -4.797  0.00  0.00    +0.101 C 
ATOM     22  N   UNL     1      13.129  -6.105  -4.589  0.00  0.00    -0.191 NA
ENDBRANCH   9  21
BRANCH   1  23
ATOM     23  O   UNL     1       4.763  -3.304  -4.977  0.00  0.00    -0.425 OA
BRANCH  23  24
ATOM     24  C   UNL     1       4.336  -2.058  -5.237  0.00  0.00    +0.317 C 
ATOM     25  O   UNL     1       5.108  -1.131  -5.182  0.00  0.00    -0.250 OA
BRANCH  24  26
ATOM     26  C   UNL     1       2.893  -1.816  -5.597  0.00  0.00    +0.156 C 
BRANCH  26  30
ATOM     27  C   UNL     1       2.275   2.357  -6.282  0.00  0.00    +0.120 A 
ATOM     28  C   UNL     1       2.640   1.527  -7.332  0.00  0.00    +0.046 A 
ATOM     29  C   UNL     1       2.839   0.178  -7.108  0.00  0.00    +0.008 A 
ATOM     30  C   UNL     1       2.675  -0.344  -5.839  0.00  0.00    -0.037 A 
ATOM     31  C   UNL     1       2.311   0.480  -4.790  0.00  0.00    +0.008 A 
ATOM     32  C   UNL     1       2.116   1.831  -5.008  0.00  0.00    +0.046 A 
BRANCH  27  34
ATOM     33  C   UNL     1       2.260   4.156  -7.836  0.00  0.00    +0.277 C 
ATOM     34  O   UNL     1       2.079   3.684  -6.499  0.00  0.00    -0.495 OA
ENDBRANCH  27  34
ENDBRANCH  26  30
ENDBRANCH  24  26
ENDBRANCH  23  24
ENDBRANCH   1  23
TORSDOF 8
