REMARK  Name = ZINC39596205
REMARK  7 active torsions:
REMARK  status: ('A' for Active; 'I' for Inactive)
REMARK    1  A    between atoms: C_1  and  C_2
REMARK    2  A    between atoms: C_4  and  S_9
REMARK    3  A    between atoms: C_5  and  C_8
REMARK    4  A    between atoms: S_9  and  N_12
REMARK    5  A    between atoms: N_12  and  C_13
REMARK    6  A    between atoms: C_16  and  C_28
REMARK    7  A    between atoms: N_19  and  C_20
REMARK                            x       y       z     vdW  Elec       q    Type
REMARK                         _______ _______ _______ _____ _____    ______ ____
ROOT
ATOM      1  C   UNL     1       2.198   1.685  -3.244  0.00  0.00    +0.162 C 
ATOM      2  C   UNL     1       2.533   2.306  -1.864  0.00  0.00    +0.062 C 
ATOM      3  C   UNL     1       3.719   3.236  -2.230  0.00  0.00    +0.102 C 
ATOM      4  N   UNL     1       3.372   3.734  -3.579  0.00  0.00    -0.245 NA
ATOM      5  N   UNL     1       2.447   2.788  -4.199  0.00  0.00    -0.219 NA
ATOM      6  H   UNL     1       4.198   3.852  -4.145  0.00  0.00    +0.142 HD
ENDROOT
BRANCH   5   7
ATOM      7  C   UNL     1       2.984   2.276  -5.467  0.00  0.00    +0.097 C 
ATOM      8  C   UNL     1       4.327   1.571  -5.215  0.00  0.00    +0.044 C 
ATOM      9  C   UNL     1       5.048   1.315  -6.560  0.00  0.00    +0.167 C 
ATOM     10  S   UNL     1       4.416   2.675  -7.624  0.00  0.00    -0.029 S 
ATOM     11  O   UNL     1       3.688   2.115  -8.707  0.00  0.00    -0.174 OA
ATOM     12  O   UNL     1       5.475   3.585  -7.889  0.00  0.00    -0.174 OA
ATOM     13  C   UNL     1       3.234   3.458  -6.447  0.00  0.00    +0.186 C 
ENDBRANCH   5   7
BRANCH   3  14
ATOM     14  C   UNL     1       3.820   4.377  -1.250  0.00  0.00    -0.029 A 
ATOM     15  C   UNL     1       2.982   5.469  -1.374  0.00  0.00    +0.005 A 
ATOM     16  C   UNL     1       3.074   6.516  -0.475  0.00  0.00    +0.000 A 
ATOM     17  C   UNL     1       4.004   6.470   0.546  0.00  0.00    +0.000 A 
ATOM     18  C   UNL     1       4.841   5.377   0.670  0.00  0.00    +0.000 A 
ATOM     19  C   UNL     1       4.746   4.328  -0.226  0.00  0.00    +0.005 A 
ENDBRANCH   3  14
BRANCH   1  20
ATOM     20  N   UNL     1       0.794   1.269  -3.294  0.00  0.00    -0.172 NA
ATOM     21  H   UNL     1       0.108   1.905  -3.551  0.00  0.00    +0.150 HD
BRANCH  20  22
ATOM     22  S   UNL     1       0.378  -0.287  -2.911  0.00  0.00    +0.060 S 
ATOM     23  O   UNL     1       1.253  -1.134  -3.644  0.00  0.00    -0.153 OA
ATOM     24  O   UNL     1      -1.036  -0.370  -3.026  0.00  0.00    -0.153 OA
BRANCH  22  27
ATOM     25  C   UNL     1      -0.019   1.526   0.010  0.00  0.00    +0.041 C 
ATOM     26  C   UNL     1       0.002  -0.004   0.002  0.00  0.00    +0.176 C 
ATOM     27  C   UNL     1       0.759  -0.524  -1.207  0.00  0.00    +0.131 C 
ATOM     28  C   UNL     1       1.780  -1.203  -0.679  0.00  0.00    +0.084 C 
ATOM     29  N   UNL     1       1.738  -1.160   0.671  0.00  0.00    -0.157 NA
ATOM     30  N   UNL     1       0.787  -0.521   1.136  0.00  0.00    -0.178 NA
ATOM     31  C   UNL     1       2.837  -1.919  -1.480  0.00  0.00    +0.069 C 
ENDBRANCH  22  27
ENDBRANCH  20  22
ENDBRANCH   1  20
TORSDOF 5
