REMARK  Name = ZINC01156887
REMARK  5 active torsions:
REMARK  status: ('A' for Active; 'I' for Inactive)
REMARK    1  A    between atoms: C_1  and  C_2
REMARK    2  A    between atoms: C_3  and  C_20
REMARK    3  A    between atoms: C_4  and  C_10
REMARK    4  A    between atoms: C_14  and  N_16
REMARK    5  A    between atoms: N_22  and  C_23
REMARK                            x       y       z     vdW  Elec       q    Type
REMARK                         _______ _______ _______ _____ _____    ______ ____
ROOT
ATOM      1  C   UNL     1       1.884   0.051   0.614  0.00  0.00    +0.061 C 
ATOM      2  C   UNL     1       0.627  -0.701   0.261  0.00  0.00    +0.019 C 
ATOM      3  C   UNL     1      -0.377  -0.057  -0.370  0.00  0.00    +0.056 C 
ATOM      4  C   UNL     1      -1.621  -0.851  -0.712  0.00  0.00    +0.142 C 
ATOM      5  N   UNL     1      -1.635  -2.271  -0.321  0.00  0.00    -0.288 N 
ATOM      6  C   UNL     1      -0.555  -2.773   0.310  0.00  0.00    +0.304 C 
ATOM      7  O   UNL     1      -0.556  -3.943   0.637  0.00  0.00    -0.252 OA
ATOM      8  N   UNL     1       0.520  -2.024   0.588  0.00  0.00    -0.273 N 
ATOM      9  H   UNL     1      -2.403  -2.831  -0.513  0.00  0.00    +0.151 HD
ATOM     10  H   UNL     1       1.266  -2.445   1.044  0.00  0.00    +0.156 HD
ENDROOT
BRANCH   4  11
ATOM     11  C   UNL     1      -1.823  -0.778  -2.204  0.00  0.00    -0.020 A 
ATOM     12  C   UNL     1      -1.079  -1.588  -3.042  0.00  0.00    +0.007 A 
ATOM     13  C   UNL     1      -1.263  -1.522  -4.410  0.00  0.00    +0.022 A 
ATOM     14  C   UNL     1      -2.193  -0.645  -4.941  0.00  0.00    +0.071 A 
ATOM     15  C   UNL     1      -2.937   0.165  -4.102  0.00  0.00    +0.145 A 
ATOM     16  C   UNL     1      -2.755   0.093  -2.733  0.00  0.00    +0.040 A 
ATOM     17 CL   UNL     1      -2.425  -0.561  -6.659  0.00  0.00    -0.081 Cl
BRANCH  15  18
ATOM     18  N   UNL     1      -3.932   1.102  -4.669  0.00  0.00    +0.058 N 
ATOM     19  O   UNL     1      -4.587   1.815  -3.930  0.00  0.00    -0.126 OA
ATOM     20  O   UNL     1      -4.095   1.161  -5.874  0.00  0.00    -0.126 OA
ENDBRANCH  15  18
ENDBRANCH   4  11
BRANCH   3  21
ATOM     21  C   UNL     1      -0.269   1.316  -0.706  0.00  0.00    +0.248 C 
ATOM     22  O   UNL     1      -0.842   2.154  -0.034  0.00  0.00    -0.270 OA
ATOM     23  N   UNL     1       0.473   1.694  -1.766  0.00  0.00    -0.282 N 
ATOM     24  H   UNL     1       0.839   1.024  -2.364  0.00  0.00    +0.155 HD
BRANCH  23  25
ATOM     25  C   UNL     1       0.714   3.052  -2.002  0.00  0.00    +0.037 A 
ATOM     26  C   UNL     1       0.832   3.933  -0.935  0.00  0.00    +0.026 A 
ATOM     27  C   UNL     1       1.076   5.272  -1.170  0.00  0.00    +0.043 A 
ATOM     28  C   UNL     1       1.191   5.739  -2.467  0.00  0.00    +0.159 A 
ATOM     29  C   UNL     1       1.068   4.863  -3.535  0.00  0.00    +0.160 A 
ATOM     30  C   UNL     1       0.829   3.521  -3.304  0.00  0.00    +0.064 A 
ATOM     31  F   UNL     1       1.181   5.321  -4.801  0.00  0.00    -0.202 F 
ATOM     32  F   UNL     1       1.424   7.051  -2.694  0.00  0.00    -0.202 F 
ENDBRANCH  23  25
ENDBRANCH   3  21
TORSDOF 4
