REMARK  Name = ZINC20462527
REMARK  4 active torsions:
REMARK  status: ('A' for Active; 'I' for Inactive)
REMARK    1  A    between atoms: C_1  and  C_2
REMARK    2  A    between atoms: C_5  and  N_9
REMARK    3  A    between atoms: C_28  and  C_35
REMARK    4  A    between atoms: C_29  and  C_34
REMARK                            x       y       z     vdW  Elec       q    Type
REMARK                         _______ _______ _______ _____ _____    ______ ____
ROOT
ATOM      1  N   UNL     1       0.058  -4.173  -0.023  0.00  0.00    -0.209 N 
ATOM      2  C   UNL     1      -1.053  -4.912   0.071  0.00  0.00    +0.232 C 
ATOM      3  O   UNL     1      -2.179  -4.474   0.171  0.00  0.00    -0.274 OA
ATOM      4  C   UNL     1      -0.686  -6.378   0.032  0.00  0.00    +0.107 C 
ATOM      5  C   UNL     1      -0.979  -7.016   1.402  0.00  0.00    +0.071 C 
ATOM      6  C   UNL     1      -2.072  -6.203   2.119  0.00  0.00    +0.021 C 
ATOM      7  C   UNL     1      -1.320  -5.151   2.958  0.00  0.00    +0.017 C 
ATOM      8  C   UNL     1       0.174  -5.390   2.659  0.00  0.00    +0.086 C 
ATOM      9  N   UNL     1       0.269  -6.822   2.200  0.00  0.00    -0.281 NA
ATOM     10  C   UNL     1       1.359  -6.983   1.223  0.00  0.00    +0.138 C 
ATOM     11  C   UNL     1       0.861  -6.357  -0.102  0.00  0.00    +0.123 C 
ATOM     12  C   UNL     1       1.188  -4.881  -0.131  0.00  0.00    +0.233 C 
ATOM     13  O   UNL     1       2.301  -4.412  -0.233  0.00  0.00    -0.274 OA
ATOM     14  C   UNL     1       2.625  -6.325   1.698  0.00  0.00    +0.004 A 
ATOM     15  C   UNL     1       2.947  -5.031   2.042  0.00  0.00    +0.008 A 
ATOM     16  C   UNL     1       4.232  -4.724   2.452  0.00  0.00    +0.004 A 
ATOM     17  C   UNL     1       5.190  -5.720   2.516  0.00  0.00    -0.046 A 
ATOM     18  C   UNL     1       4.872  -7.017   2.173  0.00  0.00    -0.026 A 
ATOM     19  C   UNL     1       3.580  -7.335   1.758  0.00  0.00    +0.042 A 
ATOM     20  N   UNL     1       3.021  -8.553   1.366  0.00  0.00    -0.283 N 
ATOM     21  C   UNL     1       1.720  -8.432   1.036  0.00  0.00    +0.243 C 
ATOM     22  O   UNL     1       0.983  -9.319   0.660  0.00  0.00    -0.273 OA
ATOM     23  C   UNL     1       5.923  -8.094   2.247  0.00  0.00    +0.046 C 
ATOM     24  C   UNL     1       6.590  -5.385   2.962  0.00  0.00    +0.044 C 
ATOM     25  H   UNL     1       3.512  -9.389   1.335  0.00  0.00    +0.155 HD
ENDROOT
BRANCH   1  30
ATOM     26  C   UNL     1      -0.015   1.503   0.012  0.00  0.00    +0.044 C 
ATOM     27  C   UNL     1       0.004  -0.004   0.002  0.00  0.00    -0.049 A 
ATOM     28  C   UNL     1       0.130  -0.700   1.191  0.00  0.00    +0.005 A 
ATOM     29  C   UNL     1       0.148  -2.081   1.185  0.00  0.00    +0.025 A 
ATOM     30  C   UNL     1       0.040  -2.771  -0.014  0.00  0.00    +0.058 A 
ATOM     31  C   UNL     1      -0.087  -2.070  -1.206  0.00  0.00    +0.040 A 
ATOM     32  C   UNL     1      -0.110  -0.688  -1.194  0.00  0.00    +0.020 A 
ATOM     33 BR   UNL     1      -0.235  -3.004  -2.844  0.00  0.00    -0.048 Br
ENDBRANCH   1  30
TORSDOF 1
