REMARK  Name = ZINC06822172
REMARK  15 active torsions:
REMARK  status: ('A' for Active; 'I' for Inactive)
REMARK    1  A    between atoms: C_1  and  C_2
REMARK    2  A    between atoms: C_2  and  C_3
REMARK    3  A    between atoms: C_6  and  N_9
REMARK    4  A    between atoms: N_9  and  C_10
REMARK    5  A    between atoms: C_10  and  C_12
REMARK    6  A    between atoms: C_10  and  C_19
REMARK    7  A    between atoms: C_15  and  O_18
REMARK    8  A    between atoms: N_21  and  C_22
REMARK    9  A    between atoms: C_22  and  C_23
REMARK   10  A    between atoms: C_23  and  O_25
REMARK   11  A    between atoms: O_25  and  C_26
REMARK   12  A    between atoms: C_26  and  C_27
REMARK   13  A    between atoms: C_28  and  C_30
REMARK   14  A    between atoms: C_31  and  N_38
REMARK   15  A    between atoms: C_32  and  C_35
REMARK                            x       y       z     vdW  Elec       q    Type
REMARK                         _______ _______ _______ _____ _____    ______ ____
ROOT
ATOM      1  N   UNL     1      -1.428   2.566   5.092  0.00  0.00    -0.251 N 
ATOM      2  C   UNL     1      -2.330   1.842   4.401  0.00  0.00    +0.262 C 
ATOM      3  O   UNL     1      -1.991   1.246   3.395  0.00  0.00    -0.269 OA
ENDROOT
BRANCH   1   7
ATOM      4  C   UNL     1       2.429   3.060   3.600  0.00  0.00    -0.048 A 
ATOM      5  C   UNL     1       2.118   3.510   4.870  0.00  0.00    +0.005 A 
ATOM      6  C   UNL     1       0.839   3.353   5.366  0.00  0.00    +0.024 A 
ATOM      7  C   UNL     1      -0.133   2.732   4.591  0.00  0.00    +0.038 A 
ATOM      8  C   UNL     1       0.185   2.276   3.318  0.00  0.00    +0.024 A 
ATOM      9  C   UNL     1       1.464   2.442   2.826  0.00  0.00    +0.005 A 
BRANCH   4  11
ATOM     10  C   UNL     1       3.921   4.577   2.326  0.00  0.00    +0.009 C 
ATOM     11  C   UNL     1       3.825   3.239   3.060  0.00  0.00    +0.032 C 
ENDBRANCH   4  11
ENDBRANCH   1   7
BRANCH   2  12
ATOM     12  C   UNL     1      -3.719   1.772   4.859  0.00  0.00    +0.116 A 
ATOM     13  C   UNL     1      -4.590   0.681   4.879  0.00  0.00    +0.076 A 
ATOM     14  C   UNL     1      -5.845   1.010   5.394  0.00  0.00    +0.155 A 
ATOM     15  N   UNL     1      -6.075   2.242   5.789  0.00  0.00    -0.203 NA
ATOM     16  S   UNL     1      -4.745   3.053   5.549  0.00  0.00    +0.019 S 
BRANCH  14  17
ATOM     17  C   UNL     1      -6.900  -0.015   5.493  0.00  0.00    +0.262 C 
ATOM     18  O   UNL     1      -6.680  -1.153   5.125  0.00  0.00    -0.269 OA
ATOM     19  N   UNL     1      -8.110   0.310   5.991  0.00  0.00    -0.324 N 
ATOM     20  H   UNL     1      -8.286   1.217   6.285  0.00  0.00    +0.145 HD
ATOM     21  H   UNL     1      -8.804  -0.364   6.056  0.00  0.00    +0.145 HD
ENDBRANCH  14  17
BRANCH  13  22
ATOM     22  N   UNL     1      -4.247  -0.589   4.436  0.00  0.00    -0.355 N 
ATOM     23  H   UNL     1      -3.357  -0.757   4.087  0.00  0.00    +0.142 HD
ATOM     24  H   UNL     1      -4.896  -1.308   4.474  0.00  0.00    +0.142 HD
ENDBRANCH  13  22
ENDBRANCH   2  12
BRANCH   1  25
ATOM     25  C   UNL     1      -1.803   3.179   6.369  0.00  0.00    +0.197 C 
BRANCH  25  26
ATOM     26  C   UNL     1      -1.632   4.673   6.279  0.00  0.00    -0.018 A 
ATOM     27  C   UNL     1      -1.199   5.248   5.098  0.00  0.00    +0.009 A 
ATOM     28  C   UNL     1      -1.047   6.618   5.011  0.00  0.00    +0.046 A 
ATOM     29  C   UNL     1      -1.317   7.417   6.113  0.00  0.00    +0.117 A 
ATOM     30  C   UNL     1      -1.746   6.837   7.298  0.00  0.00    +0.046 A 
ATOM     31  C   UNL     1      -1.902   5.467   7.378  0.00  0.00    +0.009 A 
BRANCH  29  32
ATOM     32  O   UNL     1      -1.161   8.764   6.031  0.00  0.00    -0.507 OA
ATOM     33  H   UNL     1      -0.277   9.073   6.272  0.00  0.00    +0.292 HD
ENDBRANCH  29  32
ENDBRANCH  25  26
BRANCH  25  34
ATOM     34  C   UNL     1      -0.922   2.637   7.465  0.00  0.00    +0.239 C 
ATOM     35  O   UNL     1      -0.064   1.820   7.205  0.00  0.00    -0.273 OA
ATOM     36  N   UNL     1      -1.087   3.061   8.733  0.00  0.00    -0.303 N 
ATOM     37  H   UNL     1      -1.772   3.715   8.941  0.00  0.00    +0.149 HD
BRANCH  36  38
ATOM     38  C   UNL     1      -0.230   2.535   9.799  0.00  0.00    +0.225 C 
BRANCH  38  39
ATOM     39  C   UNL     1      -0.616   3.165  11.112  0.00  0.00    +0.324 C 
ATOM     40  O   UNL     1      -1.515   3.971  11.154  0.00  0.00    -0.249 OA
BRANCH  39  41
ATOM     41  O   UNL     1       0.039   2.831  12.235  0.00  0.00    -0.464 OA
BRANCH  41  42
ATOM     42  C   UNL     1      -0.387   3.478  13.463  0.00  0.00    +0.229 C 
ATOM     43  C   UNL     1       0.468   2.975  14.628  0.00  0.00    +0.048 C 
ENDBRANCH  41  42
ENDBRANCH  39  41
ENDBRANCH  38  39
ENDBRANCH  36  38
ENDBRANCH  25  34
ENDBRANCH   1  25
TORSDOF 13
