REMARK  Name = ZINC59263920
REMARK  10 active torsions:
REMARK  status: ('A' for Active; 'I' for Inactive)
REMARK    1  A    between atoms: C_1  and  C_2
REMARK    2  A    between atoms: C_2  and  C_3
REMARK    3  A    between atoms: C_2  and  C_4
REMARK    4  A    between atoms: C_2  and  C_5
REMARK    5  A    between atoms: C_5  and  C_7
REMARK    6  A    between atoms: C_5  and  N_13
REMARK    7  A    between atoms: N_16  and  C_17
REMARK    8  A    between atoms: C_17  and  C_18
REMARK    9  A    between atoms: C_18  and  C_20
REMARK   10  A    between atoms: C_18  and  N_25
REMARK                            x       y       z     vdW  Elec       q    Type
REMARK                         _______ _______ _______ _____ _____    ______ ____
ROOT
ATOM      1  N   UNL     1       0.030   0.050  -2.470  0.00  0.00    -0.292 N 
ATOM      2  C   UNL     1      -1.077  -0.598  -2.882  0.00  0.00    +0.300 C 
ATOM      3  O   UNL     1      -1.514  -1.529  -2.234  0.00  0.00    -0.253 OA
ATOM      4  N   UNL     1      -1.701  -0.213  -4.014  0.00  0.00    -0.301 N 
ATOM      5  H   UNL     1       0.379   0.793  -2.987  0.00  0.00    +0.151 HD
ATOM      6  H   UNL     1      -1.352   0.530  -4.531  0.00  0.00    +0.150 HD
ENDROOT
BRANCH   1   7
ATOM      7  C   UNL     1       0.708  -0.368  -1.240  0.00  0.00    +0.110 C 
BRANCH   7   8
ATOM      8  C   UNL     1       2.159   0.035  -1.304  0.00  0.00    -0.027 A 
ATOM      9  C   UNL     1       2.512   1.262  -1.833  0.00  0.00    +0.005 A 
ATOM     10  C   UNL     1       3.843   1.632  -1.892  0.00  0.00    +0.000 A 
ATOM     11  C   UNL     1       4.820   0.774  -1.421  0.00  0.00    +0.000 A 
ATOM     12  C   UNL     1       4.466  -0.452  -0.890  0.00  0.00    +0.000 A 
ATOM     13  C   UNL     1       3.135  -0.820  -0.828  0.00  0.00    +0.005 A 
ENDBRANCH   7   8
BRANCH   7  15
ATOM     14  C   UNL     1       0.145   1.825  -0.184  0.00  0.00    +0.013 C 
ATOM     15  C   UNL     1       0.044   0.306  -0.038  0.00  0.00    -0.015 C 
ATOM     16  C   UNL     1       0.751  -0.131   1.247  0.00  0.00    +0.013 C 
ATOM     17  C   UNL     1      -1.429  -0.103   0.027  0.00  0.00    +0.013 C 
ENDBRANCH   7  15
ENDBRANCH   1   7
BRANCH   4  18
ATOM     18  C   UNL     1      -2.905  -0.917  -4.462  0.00  0.00    +0.098 C 
BRANCH  18  19
ATOM     19  C   UNL     1      -3.468  -0.223  -5.704  0.00  0.00    +0.016 C 
BRANCH  19  20
ATOM     20  N   UNL     1      -4.746  -0.846  -6.075  0.00  0.00    +0.387 N 
ATOM     21  C   UNL     1      -5.744  -0.652  -4.992  0.00  0.00    -0.078 C 
ATOM     22  C   UNL     1      -7.099  -0.828  -5.723  0.00  0.00    -0.020 C 
ATOM     23  C   UNL     1      -6.841  -0.161  -7.094  0.00  0.00    -0.020 C 
ATOM     24  C   UNL     1      -5.311  -0.178  -7.268  0.00  0.00    -0.078 C 
ATOM     25  H   UNL     1      -4.614  -1.829  -6.257  0.00  0.00    -0.081 HD
ENDBRANCH  19  20
BRANCH  19  26
ATOM     26  C   UNL     1      -2.492  -0.361  -6.844  0.00  0.00    +0.093 A 
ATOM     27  C   UNL     1      -1.621   0.578  -7.251  0.00  0.00    +0.043 A 
ATOM     28  C   UNL     1      -0.907   0.030  -8.341  0.00  0.00    +0.041 A 
ATOM     29  C   UNL     1      -1.385  -1.212  -8.535  0.00  0.00    +0.195 A 
ATOM     30  O   UNL     1      -2.341  -1.446  -7.621  0.00  0.00    -0.469 OA
ENDBRANCH  19  26
ENDBRANCH  18  19
ENDBRANCH   4  18
TORSDOF 7
