REMARK  Name = ZINC02858557
REMARK  12 active torsions:
REMARK  status: ('A' for Active; 'I' for Inactive)
REMARK    1  A    between atoms: C_1  and  C_2
REMARK    2  A    between atoms: C_3  and  C_9
REMARK    3  A    between atoms: C_4  and  C_8
REMARK    4  A    between atoms: N_5  and  C_7
REMARK    5  A    between atoms: C_9  and  N_65
REMARK    6  A    between atoms: N_12  and  C_15
REMARK    7  A    between atoms: C_15  and  N_17
REMARK    8  A    between atoms: N_17  and  C_18
REMARK    9  A    between atoms: C_19  and  C_29
REMARK   10  A    between atoms: C_24  and  C_28
REMARK   11  A    between atoms: C_29  and  O_31
REMARK   12  A    between atoms: O_31  and  C_32
REMARK                            x       y       z     vdW  Elec       q    Type
REMARK                         _______ _______ _______ _____ _____    ______ ____
ROOT
ATOM      1  C   UNL     1      -2.374  -3.195  -2.897  0.00  0.00    +0.137 C 
ATOM      2  S   UNL     1      -1.995  -4.863  -2.961  0.00  0.00    -0.018 S 
ENDROOT
BRANCH   1   5
ATOM      3  C   UNL     1      -4.971  -3.248  -5.311  0.00  0.00    -0.059 C 
ATOM      4  C   UNL     1      -4.555  -3.690  -3.904  0.00  0.00    +0.088 C 
ATOM      5  N   UNL     1      -3.543  -2.749  -3.399  0.00  0.00    -0.316 N 
ATOM      6  C   UNL     1      -3.842  -1.310  -3.452  0.00  0.00    +0.088 C 
ATOM      7  C   UNL     1      -4.284  -0.962  -4.883  0.00  0.00    -0.059 C 
ATOM      8  N   UNL     1      -5.416  -1.839  -5.255  0.00  0.00    +0.384 N 
ATOM      9  H   UNL     1      -6.152  -1.751  -4.545  0.00  0.00    -0.081 HD
BRANCH   8  10
ATOM     10  C   UNL     1      -5.962  -1.429  -6.565  0.00  0.00    -0.039 C 
BRANCH  10  13
ATOM     11  C   UNL     1      -8.980  -0.871  -5.779  0.00  0.00    +0.068 C 
ATOM     12  C   UNL     1      -7.935   0.174  -6.074  0.00  0.00    +0.062 A 
ATOM     13  C   UNL     1      -6.603  -0.073  -6.421  0.00  0.00    -0.021 A 
ATOM     14  C   UNL     1      -5.994   1.120  -6.610  0.00  0.00    +0.037 A 
ATOM     15  N   UNL     1      -6.906   2.088  -6.385  0.00  0.00    -0.271 N 
ATOM     16  N   UNL     1      -8.117   1.469  -6.046  0.00  0.00    -0.176 NA
ATOM     17  C   UNL     1      -6.673   3.531  -6.478  0.00  0.00    +0.172 C 
ATOM     18  C   UNL     1      -4.554   1.330  -7.001  0.00  0.00    +0.065 C 
ENDBRANCH  10  13
ENDBRANCH   8  10
ENDBRANCH   1   5
BRANCH   1  19
ATOM     19  N   UNL     1      -1.504  -2.327  -2.344  0.00  0.00    -0.291 N 
ATOM     20  H   UNL     1      -1.683  -1.374  -2.376  0.00  0.00    +0.154 HD
BRANCH  19  21
ATOM     21  C   UNL     1      -0.354  -2.795  -1.730  0.00  0.00    +0.086 A 
ATOM     22  C   UNL     1       0.652  -2.065  -1.110  0.00  0.00    +0.091 A 
ATOM     23  C   UNL     1       1.761  -2.807  -0.533  0.00  0.00    -0.021 A 
ATOM     24  C   UNL     1       1.690  -4.149  -0.672  0.00  0.00    -0.004 A 
ATOM     25  S   UNL     1       0.180  -4.434  -1.552  0.00  0.00    -0.077 S 
ATOM     26  C   UNL     1       2.679  -5.161  -0.183  0.00  0.00    +0.046 C 
ATOM     27  C   UNL     1       3.982  -4.431   0.175  0.00  0.00    -0.009 C 
ATOM     28  C   UNL     1       3.642  -3.210   1.036  0.00  0.00    +0.008 C 
ATOM     29  C   UNL     1       2.936  -2.154   0.184  0.00  0.00    +0.037 C 
ATOM     30  C   UNL     1       4.900  -5.373   0.956  0.00  0.00    +0.008 C 
BRANCH  22  31
ATOM     31  C   UNL     1       0.595  -0.604  -1.036  0.00  0.00    +0.342 C 
ATOM     32  O   UNL     1       1.092   0.069  -1.919  0.00  0.00    -0.245 OA
BRANCH  31  33
ATOM     33  O   UNL     1      -0.008  -0.005   0.011  0.00  0.00    -0.464 OA
ATOM     34  C   UNL     1      -0.027   1.446   0.019  0.00  0.00    +0.280 C 
ENDBRANCH  31  33
ENDBRANCH  22  31
ENDBRANCH  19  21
ENDBRANCH   1  19
TORSDOF 7
