REMARK  Name = ZINC36648049
REMARK  9 active torsions:
REMARK  status: ('A' for Active; 'I' for Inactive)
REMARK    1  A    between atoms: C_1  and  N_2
REMARK    2  A    between atoms: N_2  and  C_3
REMARK    3  A    between atoms: N_2  and  C_4
REMARK    4  A    between atoms: C_4  and  C_5
REMARK    5  A    between atoms: C_5  and  C_6
REMARK    6  A    between atoms: C_6  and  N_7
REMARK    7  A    between atoms: C_18  and  C_20
REMARK    8  A    between atoms: N_26  and  S_27
REMARK    9  A    between atoms: S_27  and  C_30
REMARK                            x       y       z     vdW  Elec       q    Type
REMARK                         _______ _______ _______ _____ _____    ______ ____
ROOT
ATOM      1  N   UNL     1      -4.198  -0.226  -2.105  0.00  0.00    -0.249 N 
ATOM      2  C   UNL     1      -4.179  -1.090  -3.188  0.00  0.00    +0.168 A 
ATOM      3  N   UNL     1      -3.707  -2.313  -3.257  0.00  0.00    -0.224 NA
ATOM      4  C   UNL     1      -3.756  -3.047  -4.390  0.00  0.00    +0.080 A 
ATOM      5  C   UNL     1      -3.287  -4.364  -4.598  0.00  0.00    +0.030 A 
ATOM      6  C   UNL     1      -3.415  -4.969  -5.820  0.00  0.00    +0.022 A 
ATOM      7  C   UNL     1      -4.006  -4.317  -6.894  0.00  0.00    +0.042 A 
ATOM      8  C   UNL     1      -4.478  -3.027  -6.726  0.00  0.00    +0.037 A 
ATOM      9  C   UNL     1      -4.353  -2.414  -5.504  0.00  0.00    +0.042 A 
ATOM     10  S   UNL     1      -4.800  -0.827  -4.843  0.00  0.00    -0.052 S 
ATOM     11 CL   UNL     1      -4.152  -5.111  -8.431  0.00  0.00    -0.084 Cl
ATOM     12  C   UNL     1      -4.740   1.001  -2.231  0.00  0.00    +0.240 C 
ATOM     13  O   UNL     1      -5.298   1.314  -3.261  0.00  0.00    -0.273 OA
ENDROOT
BRANCH  12  14
ATOM     14  C   UNL     1      -4.651   1.985  -1.093  0.00  0.00    +0.166 C 
ATOM     15  C   UNL     1      -3.858   3.217  -1.539  0.00  0.00    +0.030 C 
ATOM     16  C   UNL     1      -3.890   4.269  -0.428  0.00  0.00    +0.003 C 
ATOM     17  C   UNL     1      -5.337   4.695  -0.169  0.00  0.00    +0.017 C 
ATOM     18  C   UNL     1      -6.147   3.480   0.293  0.00  0.00    +0.110 C 
ATOM     19  N   UNL     1      -6.003   2.406  -0.700  0.00  0.00    -0.164 NA
BRANCH  19  20
ATOM     20  S   UNL     1      -7.338   1.689  -1.367  0.00  0.00    +0.068 S 
ATOM     21  O   UNL     1      -6.925   0.408  -1.824  0.00  0.00    -0.152 OA
ATOM     22  O   UNL     1      -8.399   1.860  -0.438  0.00  0.00    -0.152 OA
BRANCH  20  23
ATOM     23  C   UNL     1      -7.768   2.619  -2.800  0.00  0.00    +0.143 A 
ATOM     24  C   UNL     1      -7.475   2.370  -4.100  0.00  0.00    +0.036 A 
ATOM     25  C   UNL     1      -7.923   3.249  -5.069  0.00  0.00    +0.010 A 
ATOM     26  C   UNL     1      -8.642   4.334  -4.690  0.00  0.00    +0.047 A 
ATOM     27  S   UNL     1      -8.710   4.131  -2.918  0.00  0.00    -0.077 S 
ENDBRANCH  20  23
ENDBRANCH  19  20
ENDBRANCH  12  14
BRANCH   1  28
ATOM     28  C   UNL     1      -3.628  -0.647  -0.822  0.00  0.00    +0.114 C 
BRANCH  28  29
ATOM     29  C   UNL     1      -2.183  -0.154  -0.720  0.00  0.00    +0.001 C 
BRANCH  29  30
ATOM     30  C   UNL     1      -1.629  -0.485   0.667  0.00  0.00    -0.078 C 
BRANCH  30  32
ATOM     31  C   UNL     1      -0.216   1.454   0.677  0.00  0.00    -0.097 C 
ATOM     32  N   UNL     1      -0.241  -0.013   0.766  0.00  0.00    +0.376 N 
ATOM     33  C   UNL     1       0.330  -0.435   2.052  0.00  0.00    -0.097 C 
ATOM     34  H   UNL     1       0.302  -0.405   0.011  0.00  0.00    -0.083 HD
ENDBRANCH  30  32
ENDBRANCH  29  30
ENDBRANCH  28  29
ENDBRANCH   1  28
TORSDOF 7
