REMARK  Name = ZINC00998717
REMARK  8 active torsions:
REMARK  status: ('A' for Active; 'I' for Inactive)
REMARK    1  A    between atoms: C_1  and  C_2
REMARK    2  A    between atoms: C_2  and  C_3
REMARK    3  A    between atoms: C_4  and  C_28
REMARK    4  A    between atoms: C_6  and  N_11
REMARK    5  A    between atoms: C_7  and  C_8
REMARK    6  A    between atoms: C_12  and  C_14
REMARK    7  A    between atoms: C_15  and  C_27
REMARK    8  A    between atoms: C_18  and  C_19
REMARK                            x       y       z     vdW  Elec       q    Type
REMARK                         _______ _______ _______ _____ _____    ______ ____
ROOT
ATOM      1  N   UNL     1      -3.205   5.577  -1.377  0.00  0.00    -0.275 N 
ATOM      2  C   UNL     1      -2.672   5.838  -0.167  0.00  0.00    +0.254 C 
ATOM      3  O   UNL     1      -3.363   5.764   0.831  0.00  0.00    -0.270 OA
ATOM      4  H   UNL     1      -2.653   5.635  -2.173  0.00  0.00    +0.156 HD
ENDROOT
BRANCH   1   8
ATOM      5  C   UNL     1      -6.657   4.585  -2.451  0.00  0.00    -0.024 A 
ATOM      6  C   UNL     1      -7.132   4.593  -1.192  0.00  0.00    -0.008 A 
ATOM      7  S   UNL     1      -5.711   5.049  -0.220  0.00  0.00    -0.078 S 
ATOM      8  C   UNL     1      -4.541   5.225  -1.484  0.00  0.00    +0.085 A 
ATOM      9  C   UNL     1      -5.265   4.921  -2.631  0.00  0.00    +0.068 A 
ATOM     10  C   UNL     1      -8.530   4.286  -0.719  0.00  0.00    +0.052 C 
BRANCH   9  11
ATOM     11  C   UNL     1      -4.645   4.942  -3.960  0.00  0.00    +0.244 C 
ATOM     12  O   UNL     1      -4.128   3.935  -4.407  0.00  0.00    -0.270 OA
ATOM     13  N   UNL     1      -4.647   6.078  -4.686  0.00  0.00    -0.325 N 
ATOM     14  H   UNL     1      -5.059   6.880  -4.330  0.00  0.00    +0.145 HD
ATOM     15  H   UNL     1      -4.237   6.092  -5.565  0.00  0.00    +0.145 HD
ENDBRANCH   9  11
BRANCH   5  17
ATOM     16  C   UNL     1      -7.484   2.731  -3.875  0.00  0.00    +0.009 C 
ATOM     17  C   UNL     1      -7.540   4.239  -3.622  0.00  0.00    +0.033 C 
ENDBRANCH   5  17
ENDBRANCH   1   8
BRANCH   2  18
ATOM     18  C   UNL     1      -1.252   6.212  -0.053  0.00  0.00    +0.106 A 
ATOM     19  C   UNL     1      -0.701   7.466   0.020  0.00  0.00    +0.147 A 
ATOM     20  O   UNL     1       0.620   7.297   0.112  0.00  0.00    -0.359 OA
ATOM     21  N   UNL     1       0.955   6.138   0.112  0.00  0.00    -0.077 NA
ATOM     22  C   UNL     1      -0.069   5.329   0.010  0.00  0.00    +0.129 A 
ATOM     23  C   UNL     1      -1.442   8.779   0.000  0.00  0.00    +0.090 C 
BRANCH  22  24
ATOM     24  C   UNL     1      -0.046   3.847  -0.027  0.00  0.00    +0.041 A 
ATOM     25  C   UNL     1       0.673   3.182  -1.020  0.00  0.00    +0.052 A 
ATOM     26  C   UNL     1       0.690   1.801  -1.049  0.00  0.00    +0.021 A 
ATOM     27  C   UNL     1      -0.004   1.078  -0.096  0.00  0.00    +0.003 A 
ATOM     28  C   UNL     1      -0.723   1.731   0.888  0.00  0.00    +0.021 A 
ATOM     29  C   UNL     1      -0.744   3.111   0.931  0.00  0.00    +0.052 A 
ATOM     30 CL   UNL     1      -1.642   3.930   2.171  0.00  0.00    -0.083 Cl
ATOM     31 CL   UNL     1       1.545   4.088  -2.217  0.00  0.00    -0.083 Cl
ENDBRANCH  22  24
ENDBRANCH   2  18
TORSDOF 5
