REMARK  Name = ZINC20881786
REMARK  10 active torsions:
REMARK  status: ('A' for Active; 'I' for Inactive)
REMARK    1  A    between atoms: C_1  and  C_2
REMARK    2  A    between atoms: C_2  and  O_3
REMARK    3  A    between atoms: O_3  and  C_4
REMARK    4  A    between atoms: C_6  and  C_11
REMARK    5  A    between atoms: C_9  and  O_10
REMARK    6  A    between atoms: C_16  and  C_21
REMARK    7  A    between atoms: C_23  and  O_29
REMARK    8  A    between atoms: C_26  and  O_27
REMARK    9  A    between atoms: O_27  and  C_28
REMARK   10  A    between atoms: O_29  and  C_30
REMARK                            x       y       z     vdW  Elec       q    Type
REMARK                         _______ _______ _______ _____ _____    ______ ____
ROOT
ATOM      1  C   UNL     1       1.129  -2.170  -0.710  0.00  0.00    +0.136 C 
ATOM      2  C   UNL     1       1.118  -0.663  -0.798  0.00  0.00    +0.036 C 
ATOM      3  C   UNL     1       0.220   0.154  -0.220  0.00  0.00    +0.017 C 
ATOM      4  C   UNL     1       0.326   1.660  -0.392  0.00  0.00    +0.060 C 
ATOM      5  C   UNL     1       1.792   2.069  -0.520  0.00  0.00    +0.036 C 
ATOM      6  C   UNL     1       2.372   1.350  -1.744  0.00  0.00    +0.088 C 
ATOM      7  C   UNL     1       2.178  -0.126  -1.565  0.00  0.00    +0.163 C 
ATOM      8  O   UNL     1       2.960  -0.889  -2.098  0.00  0.00    -0.292 OA
ATOM      9  N   UNL     1      -0.831  -0.260   0.532  0.00  0.00    -0.316 N 
ATOM     10  C   UNL     1      -0.760  -1.212   1.544  0.00  0.00    +0.052 A 
ATOM     11  C   UNL     1      -1.062  -0.915   2.861  0.00  0.00    +0.025 A 
ATOM     12  C   UNL     1      -1.082  -1.934   3.799  0.00  0.00    +0.002 A 
ATOM     13  C   UNL     1      -0.802  -3.235   3.422  0.00  0.00    +0.002 A 
ATOM     14  C   UNL     1      -0.479  -3.529   2.108  0.00  0.00    +0.025 A 
ATOM     15  C   UNL     1      -0.440  -2.509   1.171  0.00  0.00    +0.049 A 
ATOM     16  N   UNL     1      -0.075  -2.749  -0.152  0.00  0.00    -0.331 N 
ATOM     17  H   UNL     1      -1.831   0.164   0.360  0.00  0.00    +0.152 HD
ATOM     18  H   UNL     1      -0.717  -3.389  -0.775  0.00  0.00    +0.147 HD
ENDROOT
BRANCH   1  21
ATOM     19  C   UNL     1       4.399  -3.724   0.370  0.00  0.00    +0.162 A 
ATOM     20  C   UNL     1       3.322  -3.337  -0.411  0.00  0.00    +0.055 A 
ATOM     21  C   UNL     1       2.300  -2.590   0.142  0.00  0.00    -0.019 A 
ATOM     22  C   UNL     1       2.351  -2.221   1.473  0.00  0.00    +0.009 A 
ATOM     23  C   UNL     1       3.420  -2.608   2.260  0.00  0.00    +0.049 A 
ATOM     24  C   UNL     1       4.448  -3.358   1.712  0.00  0.00    +0.158 A 
BRANCH  24  25
ATOM     25  O   UNL     1       5.502  -3.735   2.483  0.00  0.00    -0.503 OA
ATOM     26  H   UNL     1       5.540  -3.445   3.544  0.00  0.00    +0.292 HD
ENDBRANCH  24  25
BRANCH  19  27
ATOM     27  O   UNL     1       5.405  -4.460  -0.172  0.00  0.00    -0.489 OA
BRANCH  27  29
ATOM     28  C   UNL     1       6.505  -5.622  -1.984  0.00  0.00    +0.048 C 
ATOM     29  C   UNL     1       5.288  -4.800  -1.555  0.00  0.00    +0.226 C 
ENDBRANCH  27  29
ENDBRANCH  19  27
ENDBRANCH   1  21
BRANCH   5  30
ATOM     30  C   UNL     1       1.892   3.561  -0.709  0.00  0.00    +0.002 A 
ATOM     31  C   UNL     1       1.292   4.160  -1.800  0.00  0.00    +0.053 A 
ATOM     32  C   UNL     1       1.380   5.534  -1.971  0.00  0.00    +0.121 A 
ATOM     33  C   UNL     1       2.079   6.304  -1.054  0.00  0.00    +0.049 A 
ATOM     34  C   UNL     1       2.683   5.704   0.034  0.00  0.00    +0.049 A 
ATOM     35  C   UNL     1       2.591   4.331   0.208  0.00  0.00    +0.124 A 
BRANCH  35  36
ATOM     36  O   UNL     1       3.186   3.740   1.279  0.00  0.00    -0.495 OA
ATOM     37  C   UNL     1       3.889   4.594   2.184  0.00  0.00    +0.277 C 
ENDBRANCH  35  36
BRANCH  32  38
ATOM     38  O   UNL     1       0.785   6.124  -3.042  0.00  0.00    -0.495 OA
ATOM     39  C   UNL     1       0.921   7.542  -3.159  0.00  0.00    +0.277 C 
ENDBRANCH  32  38
ENDBRANCH   5  30
TORSDOF 7
