REMARK  Name = ZINC63731336
REMARK  7 active torsions:
REMARK  status: ('A' for Active; 'I' for Inactive)
REMARK    1  A    between atoms: C_1  and  C_2
REMARK    2  A    between atoms: C_7  and  N_8
REMARK    3  A    between atoms: C_9  and  S_20
REMARK    4  A    between atoms: C_14  and  C_17
REMARK    5  A    between atoms: S_20  and  C_21
REMARK    6  A    between atoms: C_21  and  C_22
REMARK    7  A    between atoms: N_24  and  C_25
REMARK                            x       y       z     vdW  Elec       q    Type
REMARK                         _______ _______ _______ _____ _____    ______ ____
ROOT
ATOM      1  N   UNL     1       0.022  -0.022   2.436  0.00  0.00    -0.253 N 
ATOM      2  C   UNL     1      -1.237   0.334   3.098  0.00  0.00    +0.260 C 
ATOM      3  N   UNL     1      -1.248  -0.025   4.520  0.00  0.00    -0.230 NA
ATOM      4  C   UNL     1      -0.143  -0.064   5.191  0.00  0.00    +0.185 C 
ATOM      5  C   UNL     1       1.184   0.138   4.516  0.00  0.00    +0.083 C 
ATOM      6  C   UNL     1       2.095   0.045   5.489  0.00  0.00    +0.075 C 
ATOM      7  N   UNL     1       1.448  -0.214   6.645  0.00  0.00    -0.152 NA
ATOM      8  N   UNL     1       0.170  -0.292   6.490  0.00  0.00    -0.129 NA
ATOM      9  C   UNL     1       3.585   0.201   5.324  0.00  0.00    +0.068 C 
ATOM     10  C   UNL     1       1.227   0.351   3.058  0.00  0.00    +0.133 C 
ATOM     11  N   UNL     1       2.261   0.830   2.422  0.00  0.00    -0.285 NA
ATOM     12  H   UNL     1       2.227   0.948   1.460  0.00  0.00    +0.188 HD
ENDROOT
BRANCH   1  19
ATOM     13  C   UNL     1      -0.006   1.485   0.023  0.00  0.00    +0.045 C 
ATOM     14  C   UNL     1       0.011  -0.022   0.022  0.00  0.00    -0.029 A 
ATOM     15  C   UNL     1       0.019  -0.712  -1.175  0.00  0.00    +0.005 A 
ATOM     16  C   UNL     1       0.034  -2.095  -1.176  0.00  0.00    +0.000 A 
ATOM     17  C   UNL     1       0.041  -2.791   0.019  0.00  0.00    +0.002 A 
ATOM     18  C   UNL     1       0.033  -2.107   1.218  0.00  0.00    +0.024 A 
ATOM     19  C   UNL     1       0.024  -0.718   1.224  0.00  0.00    +0.041 A 
ENDBRANCH   1  19
BRANCH   2  20
ATOM     20  S   UNL     1      -1.495   2.123   2.944  0.00  0.00    -0.106 S 
BRANCH  20  21
ATOM     21  C   UNL     1      -0.051   2.846   3.771  0.00  0.00    +0.168 C 
BRANCH  21  22
ATOM     22  C   UNL     1      -0.141   4.349   3.714  0.00  0.00    +0.227 C 
ATOM     23  O   UNL     1      -1.087   4.880   3.170  0.00  0.00    -0.275 OA
ATOM     24  N   UNL     1       0.828   5.104   4.269  0.00  0.00    -0.285 N 
ATOM     25  H   UNL     1       1.549   4.682   4.762  0.00  0.00    +0.155 HD
BRANCH  24  26
ATOM     26  C   UNL     1       0.795   6.497   4.133  0.00  0.00    +0.033 A 
ATOM     27  C   UNL     1       1.978   7.211   4.000  0.00  0.00    +0.024 A 
ATOM     28  C   UNL     1       1.943   8.585   3.865  0.00  0.00    +0.017 A 
ATOM     29  C   UNL     1       0.729   9.250   3.863  0.00  0.00    +0.018 A 
ATOM     30  C   UNL     1      -0.451   8.541   3.995  0.00  0.00    +0.017 A 
ATOM     31  C   UNL     1      -0.422   7.166   4.125  0.00  0.00    +0.024 A 
ATOM     32 BR   UNL     1       0.684  11.131   3.679  0.00  0.00    -0.050 Br
ENDBRANCH  24  26
ENDBRANCH  21  22
ENDBRANCH  20  21
ENDBRANCH   2  20
TORSDOF 5
