REMARK  Name = ZINC12708321
REMARK  13 active torsions:
REMARK  status: ('A' for Active; 'I' for Inactive)
REMARK    1  A    between atoms: C_1  and  C_2
REMARK    2  A    between atoms: C_2  and  N_64
REMARK    3  A    between atoms: C_3  and  C_4
REMARK    4  A    between atoms: C_3  and  N_64
REMARK    5  A    between atoms: C_5  and  C_6
REMARK    6  A    between atoms: C_5  and  N_64
REMARK    7  A    between atoms: C_6  and  N_7
REMARK    8  A    between atoms: N_7  and  C_8
REMARK    9  A    between atoms: C_8  and  C_9
REMARK   10  A    between atoms: C_13  and  O_21
REMARK   11  A    between atoms: O_21  and  C_22
REMARK   12  A    between atoms: C_22  and  C_23
REMARK   13  A    between atoms: N_26  and  C_27
REMARK                            x       y       z     vdW  Elec       q    Type
REMARK                         _______ _______ _______ _____ _____    ______ ____
ROOT
ATOM      1  N   UNL     1       1.011  -2.506   1.425  0.00  0.00    -0.283 N 
ATOM      2  C   UNL     1       2.143  -2.754   2.114  0.00  0.00    +0.307 C 
ATOM      3  O   UNL     1       3.213  -2.370   1.683  0.00  0.00    -0.252 OA
ATOM      4  N   UNL     1       2.088  -3.429   3.279  0.00  0.00    -0.269 N 
ATOM      5  H   UNL     1       1.245  -3.793   3.589  0.00  0.00    +0.156 HD
ENDROOT
BRANCH   4   6
ATOM      6  C   UNL     1       3.250  -3.604   4.041  0.00  0.00    +0.035 A 
ATOM      7  C   UNL     1       4.472  -3.801   3.412  0.00  0.00    +0.025 A 
ATOM      8  C   UNL     1       5.616  -3.968   4.167  0.00  0.00    +0.022 A 
ATOM      9  C   UNL     1       5.545  -3.950   5.548  0.00  0.00    +0.041 A 
ATOM     10  C   UNL     1       4.327  -3.759   6.178  0.00  0.00    +0.022 A 
ATOM     11  C   UNL     1       3.180  -3.586   5.428  0.00  0.00    +0.025 A 
ATOM     12 CL   UNL     1       6.984  -4.166   6.494  0.00  0.00    -0.084 Cl
ENDBRANCH   4   6
BRANCH   1  13
ATOM     13  C   UNL     1      -0.278  -2.969   1.944  0.00  0.00    +0.091 C 
BRANCH  13  14
ATOM     14  C   UNL     1      -0.567  -4.374   1.412  0.00  0.00    -0.060 C 
BRANCH  14  15
ATOM     15  N   UNL     1      -1.797  -4.881   2.056  0.00  0.00    +0.380 N 
ATOM     16  H   UNL     1      -1.777  -4.636   3.053  0.00  0.00    -0.082 HD
BRANCH  15  18
ATOM     17  C   UNL     1      -4.222  -4.627   2.257  0.00  0.00    -0.017 C 
ATOM     18  C   UNL     1      -2.986  -4.262   1.433  0.00  0.00    -0.082 C 
ENDBRANCH  15  18
BRANCH  15  19
ATOM     19  C   UNL     1      -1.867  -6.352   1.925  0.00  0.00    -0.082 C 
ATOM     20  C   UNL     1      -0.914  -6.980   2.944  0.00  0.00    -0.017 C 
ENDBRANCH  15  19
ENDBRANCH  14  15
ENDBRANCH  13  14
ENDBRANCH   1  13
BRANCH   1  21
ATOM     21  C   UNL     1       1.070  -1.772   0.159  0.00  0.00    +0.149 C 
BRANCH  21  22
ATOM     22  C   UNL     1       0.932  -0.295   0.426  0.00  0.00    +0.035 A 
ATOM     23  C   UNL     1       2.042   0.475   0.551  0.00  0.00    +0.020 A 
ATOM     24  C   UNL     1       1.874   1.906   0.811  0.00  0.00    +0.002 A 
ATOM     25  C   UNL     1       2.982   2.749   0.949  0.00  0.00    +0.055 A 
ATOM     26  C   UNL     1       2.788   4.093   1.193  0.00  0.00    +0.121 A 
ATOM     27  C   UNL     1       1.499   4.610   1.302  0.00  0.00    +0.047 A 
ATOM     28  C   UNL     1       0.401   3.790   1.168  0.00  0.00    +0.030 A 
ATOM     29  C   UNL     1       0.574   2.432   0.921  0.00  0.00    +0.049 A 
ATOM     30  N   UNL     1      -0.514   1.594   0.784  0.00  0.00    -0.322 N 
ATOM     31  H   UNL     1      -1.410   1.958   0.856  0.00  0.00    +0.169 HD
ATOM     32  C   UNL     1      -0.350   0.281   0.545  0.00  0.00    +0.254 A 
ATOM     33  O   UNL     1      -1.334  -0.429   0.429  0.00  0.00    -0.268 OA
BRANCH  26  34
ATOM     34  O   UNL     1       3.861   4.918   1.328  0.00  0.00    -0.492 OA
BRANCH  34  35
ATOM     35  C   UNL     1       3.591   6.298   1.580  0.00  0.00    +0.225 C 
ATOM     36  C   UNL     1       4.911   7.062   1.701  0.00  0.00    +0.048 C 
ENDBRANCH  34  35
ENDBRANCH  26  34
ENDBRANCH  21  22
ENDBRANCH   1  21
TORSDOF 10
