REMARK  Name = ZINC14729190
REMARK  6 active torsions:
REMARK  status: ('A' for Active; 'I' for Inactive)
REMARK    1  A    between atoms: C_4  and  S_7
REMARK    2  A    between atoms: S_7  and  C_8
REMARK    3  A    between atoms: C_8  and  C_9
REMARK    4  A    between atoms: N_21  and  C_22
REMARK    5  A    between atoms: C_27  and  C_28
REMARK    6  A    between atoms: C_27  and  N_58
REMARK                            x       y       z     vdW  Elec       q    Type
REMARK                         _______ _______ _______ _____ _____    ______ ____
ROOT
ATOM      1  C   UNL     1       6.809   0.603  -0.110  0.00  0.00    +0.142 A 
ATOM      2  N   UNL     1       7.305   0.163   1.033  0.00  0.00    -0.216 NA
ATOM      3  C   UNL     1       8.385  -0.600   1.085  0.00  0.00    +0.131 A 
ATOM      4  C   UNL     1       9.042  -0.948  -0.128  0.00  0.00    +0.051 A 
ATOM      5  C   UNL     1      10.249  -1.771  -0.311  0.00  0.00    -0.025 A 
ATOM      6  C   UNL     1      10.671  -1.956  -1.572  0.00  0.00    -0.004 A 
ATOM      7  S   UNL     1       9.516  -1.059  -2.583  0.00  0.00    -0.073 S 
ATOM      8  C   UNL     1       8.460  -0.438  -1.302  0.00  0.00    +0.114 A 
ATOM      9  N   UNL     1       7.376   0.313  -1.265  0.00  0.00    -0.224 NA
ATOM     10  C   UNL     1      11.906  -2.814  -1.637  0.00  0.00    +0.043 C 
ATOM     11  C   UNL     1      11.968  -3.511  -0.261  0.00  0.00    +0.010 C 
ATOM     12  C   UNL     1      11.203  -2.511   0.630  0.00  0.00    +0.037 C 
ATOM     13  N   UNL     1       8.872  -1.046   2.300  0.00  0.00    -0.326 N 
ATOM     14  H   UNL     1       9.667  -1.602   2.330  0.00  0.00    +0.148 HD
ENDROOT
BRANCH  13  15
ATOM     15  C   UNL     1       8.187  -0.681   3.542  0.00  0.00    +0.068 C 
ATOM     16  C   UNL     1       8.683   0.688   4.017  0.00  0.00    +0.003 C 
ATOM     17  C   UNL     1       8.010   1.036   5.347  0.00  0.00    -0.076 C 
ATOM     18  C   UNL     1       7.818  -1.308   5.931  0.00  0.00    -0.076 C 
ATOM     19  C   UNL     1       8.487  -1.727   4.619  0.00  0.00    +0.003 C 
ATOM     20  N   UNL     1       8.358   0.004   6.347  0.00  0.00    +0.385 N 
ATOM     21  H   UNL     1       9.380  -0.063   6.415  0.00  0.00    -0.081 HD
BRANCH  20  22
ATOM     22  C   UNL     1       7.813   0.377   7.668  0.00  0.00    +0.018 C 
BRANCH  22  23
ATOM     23  C   UNL     1       8.374  -0.559   8.707  0.00  0.00    +0.194 C 
ATOM     24  O   UNL     1       9.215  -1.376   8.396  0.00  0.00    -0.278 OA
ATOM     25  N   UNL     1       7.941  -0.490   9.981  0.00  0.00    -0.331 N 
ATOM     26  H   UNL     1       7.269   0.163  10.230  0.00  0.00    +0.145 HD
ATOM     27  H   UNL     1       8.303  -1.093  10.650  0.00  0.00    +0.145 HD
ENDBRANCH  22  23
ENDBRANCH  20  22
ENDBRANCH  13  15
BRANCH   1  28
ATOM     28  C   UNL     1       5.571   1.462  -0.093  0.00  0.00    +0.150 C 
BRANCH  28  29
ATOM     29  S   UNL     1       4.101   0.406  -0.212  0.00  0.00    -0.117 S 
BRANCH  29  33
ATOM     30  C   UNL     1       0.643   3.330  -0.131  0.00  0.00    +0.000 A 
ATOM     31  C   UNL     1       1.942   3.797  -0.057  0.00  0.00    +0.001 A 
ATOM     32  C   UNL     1       2.999   2.908  -0.081  0.00  0.00    +0.015 A 
ATOM     33  C   UNL     1       2.755   1.544  -0.180  0.00  0.00    +0.008 A 
ATOM     34  C   UNL     1       1.448   1.078  -0.254  0.00  0.00    +0.015 A 
ATOM     35  C   UNL     1       0.396   1.972  -0.229  0.00  0.00    +0.001 A 
ENDBRANCH  29  33
ENDBRANCH  28  29
ENDBRANCH   1  28
TORSDOF 6
