REMARK  Name = ZINC12327464
REMARK  9 active torsions:
REMARK  status: ('A' for Active; 'I' for Inactive)
REMARK    1  A    between atoms: C_1  and  O_2
REMARK    2  A    between atoms: O_2  and  C_3
REMARK    3  A    between atoms: C_6  and  N_11
REMARK    4  A    between atoms: C_8  and  O_9
REMARK    5  A    between atoms: O_9  and  C_10
REMARK    6  A    between atoms: C_12  and  C_14
REMARK    7  A    between atoms: C_18  and  C_23
REMARK    8  A    between atoms: C_23  and  O_34
REMARK    9  A    between atoms: C_28  and  N_64
REMARK                            x       y       z     vdW  Elec       q    Type
REMARK                         _______ _______ _______ _____ _____    ______ ____
ROOT
ATOM      1  C   UNL     1       1.251   1.851  -0.162  0.00  0.00    +0.191 A 
ATOM      2  C   UNL     1       2.147   0.845  -0.335  0.00  0.00    +0.063 A 
ATOM      3  C   UNL     1       1.380  -0.398  -0.260  0.00  0.00    +0.021 A 
ATOM      4  C   UNL     1       1.709  -1.752  -0.357  0.00  0.00    +0.018 A 
ATOM      5  C   UNL     1       0.729  -2.697  -0.239  0.00  0.00    -0.015 A 
ATOM      6  C   UNL     1      -0.589  -2.320  -0.022  0.00  0.00    +0.010 A 
ATOM      7  C   UNL     1      -0.934  -0.989   0.077  0.00  0.00    +0.047 A 
ATOM      8  C   UNL     1       0.046  -0.010  -0.041  0.00  0.00    +0.136 A 
ATOM      9  O   UNL     1       0.016   1.336   0.010  0.00  0.00    -0.450 OA
ENDROOT
BRANCH   5  10
ATOM     10  C   UNL     1       1.082  -4.158  -0.344  0.00  0.00    +0.088 C 
ATOM     11  C   UNL     1       0.974  -4.607  -1.804  0.00  0.00    +0.021 C 
ATOM     12  C   UNL     1       1.274  -6.105  -1.895  0.00  0.00    -0.075 C 
ATOM     13  C   UNL     1       0.436  -6.468   0.350  0.00  0.00    -0.075 C 
ATOM     14  C   UNL     1       0.112  -4.981   0.508  0.00  0.00    +0.021 C 
ATOM     15  N   UNL     1       0.290  -6.842  -1.073  0.00  0.00    +0.382 N 
ATOM     16  H   UNL     1      -0.656  -6.597  -1.387  0.00  0.00    -0.081 HD
BRANCH  15  17
ATOM     17  C   UNL     1       0.488  -8.297  -1.235  0.00  0.00    -0.058 C 
ATOM     18  C   UNL     1       0.358  -8.650  -2.717  0.00  0.00    -0.004 C 
ATOM     19  C   UNL     1      -0.181 -10.072  -2.965  0.00  0.00    +0.067 C 
ATOM     20  S   UNL     1      -0.573 -10.676  -1.270  0.00  0.00    -0.162 S 
ATOM     21  C   UNL     1      -0.596  -9.043  -0.407  0.00  0.00    +0.054 C 
ENDBRANCH  15  17
BRANCH  10  22
ATOM     22  O   UNL     1       2.417  -4.362   0.122  0.00  0.00    -0.384 OA
ATOM     23  H   UNL     1       3.086  -3.871  -0.374  0.00  0.00    +0.211 HD
ENDBRANCH  10  22
ENDBRANCH   5  10
BRANCH   1  25
ATOM     24  N   UNL     1       0.603   4.197   0.018  0.00  0.00    -0.279 N 
ATOM     25  C   UNL     1       1.578   3.284  -0.163  0.00  0.00    +0.284 C 
ATOM     26  O   UNL     1       2.728   3.646  -0.328  0.00  0.00    -0.266 OA
ATOM     27  H   UNL     1      -0.323   3.914   0.073  0.00  0.00    +0.155 HD
BRANCH  24  31
ATOM     28  C   UNL     1       1.575   8.241   0.347  0.00  0.00    +0.162 A 
ATOM     29  C   UNL     1       2.444   7.277   0.833  0.00  0.00    +0.051 A 
ATOM     30  C   UNL     1       2.119   5.937   0.730  0.00  0.00    +0.027 A 
ATOM     31  C   UNL     1       0.928   5.555   0.128  0.00  0.00    +0.037 A 
ATOM     32  C   UNL     1       0.056   6.518  -0.360  0.00  0.00    +0.072 A 
ATOM     33  C   UNL     1       0.378   7.861  -0.251  0.00  0.00    +0.163 A 
BRANCH  28  35
ATOM     34  C   UNL     1       3.139   9.877   1.080  0.00  0.00    +0.277 C 
ATOM     35  O   UNL     1       1.894   9.559   0.455  0.00  0.00    -0.491 OA
ENDBRANCH  28  35
BRANCH  33  36
ATOM     36  O   UNL     1      -0.475   8.807  -0.728  0.00  0.00    -0.491 OA
ATOM     37  C   UNL     1      -1.685   8.344  -1.330  0.00  0.00    +0.277 C 
ENDBRANCH  33  36
ENDBRANCH  24  31
ENDBRANCH   1  25
TORSDOF 7
