REMARK  Name = ZINC39634964
REMARK  7 active torsions:
REMARK  status: ('A' for Active; 'I' for Inactive)
REMARK    1  A    between atoms: C_1  and  O_2
REMARK    2  A    between atoms: O_2  and  C_3
REMARK    3  A    between atoms: C_6  and  C_9
REMARK    4  A    between atoms: C_9  and  C_10
REMARK    5  A    between atoms: C_10  and  N_11
REMARK    6  A    between atoms: C_12  and  C_14
REMARK    7  A    between atoms: C_25  and  C_27
REMARK                            x       y       z     vdW  Elec       q    Type
REMARK                         _______ _______ _______ _____ _____    ______ ____
ROOT
ATOM      1  C   UNL     1       6.675  -4.637  -6.950  0.00  0.00    +0.100 C 
ATOM      2  C   UNL     1       6.443  -3.514  -7.986  0.00  0.00    +0.121 C 
ATOM      3  N   UNL     1       7.694  -2.719  -7.963  0.00  0.00    -0.296 N 
ATOM      4  C   UNL     1       8.771  -3.729  -7.833  0.00  0.00    +0.115 C 
ATOM      5  C   UNL     1       8.204  -4.777  -6.856  0.00  0.00    -0.004 C 
ATOM      6  C   UNL     1       8.632  -6.179  -7.277  0.00  0.00    -0.010 C 
ATOM      7  C   UNL     1      10.149  -6.314  -7.119  0.00  0.00    -0.082 C 
ATOM      8  N   UNL     1      10.521  -6.066  -5.721  0.00  0.00    +0.379 N 
ATOM      9  C   UNL     1      10.190  -4.685  -5.351  0.00  0.00    -0.082 C 
ATOM     10  C   UNL     1       8.675  -4.482  -5.435  0.00  0.00    -0.010 C 
ATOM     11  C   UNL     1       7.822  -1.379  -8.041  0.00  0.00    +0.247 C 
ATOM     12  O   UNL     1       6.835  -0.671  -8.017  0.00  0.00    -0.270 OA
ATOM     13  H   UNL     1      10.017  -6.703  -5.122  0.00  0.00    -0.086 HD
ATOM     14  H   UNL     1      11.513  -6.215  -5.606  0.00  0.00    -0.086 HD
ENDROOT
BRANCH  11  15
ATOM     15  C   UNL     1       9.165  -0.771  -8.156  0.00  0.00    +0.038 A 
ATOM     16  C   UNL     1      10.242  -1.532  -8.614  0.00  0.00    +0.013 A 
ATOM     17  C   UNL     1      11.493  -0.959  -8.719  0.00  0.00    +0.002 A 
ATOM     18  C   UNL     1      11.681   0.367  -8.372  0.00  0.00    +0.015 A 
ATOM     19  C   UNL     1      10.617   1.127  -7.917  0.00  0.00    +0.019 A 
ATOM     20  C   UNL     1       9.360   0.567  -7.814  0.00  0.00    +0.028 A 
ATOM     21 BR   UNL     1      10.886   2.938  -7.444  0.00  0.00    -0.050 Br
ENDBRANCH  11  15
BRANCH   1  23
ATOM     22  N   UNL     1       5.758  -5.194  -4.722  0.00  0.00    -0.315 N 
ATOM     23  C   UNL     1       6.101  -4.244  -5.613  0.00  0.00    +0.218 C 
ATOM     24  O   UNL     1       5.947  -3.072  -5.340  0.00  0.00    -0.275 OA
ATOM     25  H   UNL     1       5.880  -6.131  -4.941  0.00  0.00    +0.149 HD
BRANCH  22  26
ATOM     26  C   UNL     1       5.199  -4.813  -3.422  0.00  0.00    +0.109 C 
BRANCH  26  27
ATOM     27  C   UNL     1       4.898  -6.072  -2.607  0.00  0.00    +0.054 C 
BRANCH  27  31
ATOM     28  C   UNL     1       3.269  -4.958   1.184  0.00  0.00    +0.120 A 
ATOM     29  C   UNL     1       2.427  -5.176   0.103  0.00  0.00    +0.046 A 
ATOM     30  C   UNL     1       2.956  -5.535  -1.122  0.00  0.00    +0.007 A 
ATOM     31  C   UNL     1       4.323  -5.679  -1.270  0.00  0.00    -0.046 A 
ATOM     32  C   UNL     1       5.164  -5.463  -0.194  0.00  0.00    +0.007 A 
ATOM     33  C   UNL     1       4.641  -5.097   1.031  0.00  0.00    +0.046 A 
BRANCH  28  35
ATOM     34  C   UNL     1       1.330  -4.479   2.473  0.00  0.00    +0.277 C 
ATOM     35  O   UNL     1       2.751  -4.604   2.389  0.00  0.00    -0.495 OA
ENDBRANCH  28  35
ENDBRANCH  27  31
ENDBRANCH  26  27
ENDBRANCH  22  26
ENDBRANCH   1  23
TORSDOF 6
