REMARK  Name = ZINC35705078
REMARK  16 active torsions:
REMARK  status: ('A' for Active; 'I' for Inactive)
REMARK    1  A    between atoms: C_1  and  C_2
REMARK    2  A    between atoms: C_2  and  O_3
REMARK    3  A    between atoms: O_3  and  C_4
REMARK    4  A    between atoms: C_4  and  C_6
REMARK    5  A    between atoms: C_7  and  C_34
REMARK    6  A    between atoms: C_11  and  C_13
REMARK    7  A    between atoms: C_16  and  C_19
REMARK    8  A    between atoms: C_19  and  C_20
REMARK    9  A    between atoms: C_19  and  C_21
REMARK   10  A    between atoms: C_22  and  C_25
REMARK   11  A    between atoms: C_26  and  N_28
REMARK   12  A    between atoms: N_28  and  C_29
REMARK   13  A    between atoms: C_29  and  C_30
REMARK   14  A    between atoms: C_30  and  N_31
REMARK   15  A    between atoms: N_31  and  C_32
REMARK   16  A    between atoms: N_31  and  C_33
REMARK                            x       y       z     vdW  Elec       q    Type
REMARK                         _______ _______ _______ _____ _____    ______ ____
ROOT
ATOM      1  C   UNL     1      -2.628  -2.631  -0.814  0.00  0.00    +0.087 C 
ATOM      2  C   UNL     1      -2.792  -3.991  -0.548  0.00  0.00    +0.086 C 
ATOM      3  N   UNL     1      -3.902  -4.427   0.045  0.00  0.00    -0.224 NA
ATOM      4  C   UNL     1      -4.901  -3.660   0.421  0.00  0.00    +0.166 C 
ATOM      5  N   UNL     1      -4.933  -2.303   0.251  0.00  0.00    -0.267 N 
ATOM      6  C   UNL     1      -3.741  -1.695  -0.399  0.00  0.00    +0.150 C 
ATOM      7  C   UNL     1      -6.058  -1.641   0.702  0.00  0.00    +0.048 C 
ATOM      8  C   UNL     1      -7.034  -2.381   1.273  0.00  0.00    +0.072 C 
ATOM      9  S   UNL     1      -6.358  -4.026   1.172  0.00  0.00    -0.060 S 
ENDROOT
BRANCH   6  10
ATOM     10  C   UNL     1      -4.213  -0.963  -1.628  0.00  0.00    -0.022 A 
ATOM     11  C   UNL     1      -5.049  -1.593  -2.530  0.00  0.00    +0.006 A 
ATOM     12  C   UNL     1      -5.482  -0.921  -3.658  0.00  0.00    +0.004 A 
ATOM     13  C   UNL     1      -5.079   0.381  -3.884  0.00  0.00    -0.045 A 
ATOM     14  C   UNL     1      -4.243   1.012  -2.981  0.00  0.00    +0.004 A 
ATOM     15  C   UNL     1      -3.814   0.342  -1.851  0.00  0.00    +0.006 A 
BRANCH  13  16
ATOM     16  C   UNL     1      -5.550   1.114  -5.114  0.00  0.00    +0.013 C 
ATOM     17  C   UNL     1      -6.332   2.361  -4.697  0.00  0.00    +0.012 C 
ATOM     18  C   UNL     1      -4.341   1.527  -5.955  0.00  0.00    +0.012 C 
ENDBRANCH  13  16
ENDBRANCH   6  10
BRANCH   2  19
ATOM     19  C   UNL     1      -1.731  -4.951  -0.928  0.00  0.00    +0.001 A 
ATOM     20  C   UNL     1      -0.477  -4.884  -0.321  0.00  0.00    +0.010 A 
ATOM     21  C   UNL     1       0.508  -5.782  -0.679  0.00  0.00    +0.001 A 
ATOM     22  C   UNL     1       0.254  -6.747  -1.638  0.00  0.00    +0.000 A 
ATOM     23  C   UNL     1      -0.988  -6.818  -2.243  0.00  0.00    +0.001 A 
ATOM     24  C   UNL     1      -1.984  -5.930  -1.889  0.00  0.00    +0.010 A 
ENDBRANCH   2  19
BRANCH   7  25
ATOM     25  C   UNL     1      -6.189  -0.183   0.567  0.00  0.00    +0.091 C 
ATOM     26  C   UNL     1      -7.345   0.423   0.899  0.00  0.00    +0.239 C 
ATOM     27  O   UNL     1      -8.348  -0.293   1.462  0.00  0.00    -0.271 OA
BRANCH  26  28
ATOM     28  N   UNL     1      -7.508   1.778   0.667  0.00  0.00    -0.314 N 
ATOM     29  H   UNL     1      -6.820   2.276   0.198  0.00  0.00    +0.149 HD
BRANCH  28  30
ATOM     30  C   UNL     1      -8.719   2.460   1.129  0.00  0.00    +0.086 C 
BRANCH  30  31
ATOM     31  C   UNL     1      -8.705   3.910   0.641  0.00  0.00    -0.061 C 
BRANCH  31  32
ATOM     32  N   UNL     1      -9.877   4.618   1.174  0.00  0.00    +0.377 N 
ATOM     33  C   UNL     1      -9.763   4.721   2.635  0.00  0.00    -0.097 C 
ATOM     34  C   UNL     1      -9.943   5.965   0.592  0.00  0.00    -0.097 C 
ATOM     35  H   UNL     1     -10.714   4.107   0.937  0.00  0.00    -0.083 HD
ENDBRANCH  31  32
ENDBRANCH  30  31
ENDBRANCH  28  30
ENDBRANCH  26  28
ENDBRANCH   7  25
BRANCH   1  36
ATOM     36  C   UNL     1      -1.474  -2.151  -1.435  0.00  0.00    +0.339 C 
ATOM     37  O   UNL     1      -0.648  -2.932  -1.875  0.00  0.00    -0.245 OA
BRANCH  36  38
ATOM     38  O   UNL     1      -1.272  -0.819  -1.549  0.00  0.00    -0.462 OA
BRANCH  38  40
ATOM     39  C   UNL     1      -0.017   1.131  -2.231  0.00  0.00    +0.048 C 
ATOM     40  C   UNL     1      -0.070  -0.398  -2.196  0.00  0.00    +0.229 C 
ENDBRANCH  38  40
ENDBRANCH  36  38
ENDBRANCH   1  36
TORSDOF 11
