REMARK  Name = ZINC38546985
REMARK  7 active torsions:
REMARK  status: ('A' for Active; 'I' for Inactive)
REMARK    1  A    between atoms: C_1  and  C_2
REMARK    2  A    between atoms: N_8  and  C_9
REMARK    3  A    between atoms: C_9  and  C_11
REMARK    4  A    between atoms: C_9  and  C_18
REMARK    5  A    between atoms: C_20  and  C_31
REMARK    6  A    between atoms: C_22  and  N_23
REMARK    7  A    between atoms: C_24  and  C_26
REMARK                            x       y       z     vdW  Elec       q    Type
REMARK                         _______ _______ _______ _____ _____    ______ ____
ROOT
ATOM      1  C   UNL     1       0.031  -2.205   3.743  0.00  0.00    +0.137 C 
ENDROOT
BRANCH   1   9
ATOM      2  C   UNL     1       0.094   1.418   0.119  0.00  0.00    +0.044 C 
ATOM      3  C   UNL     1       0.198  -0.085   0.126  0.00  0.00    -0.046 A 
ATOM      4  C   UNL     1       0.350  -0.792  -1.060  0.00  0.00    +0.021 A 
ATOM      5  C   UNL     1       0.443  -2.168  -1.020  0.00  0.00    +0.084 A 
ATOM      6  N   UNL     1       0.389  -2.817   0.128  0.00  0.00    -0.350 N 
ATOM      7  C   UNL     1       0.244  -2.180   1.279  0.00  0.00    +0.097 A 
ATOM      8  C   UNL     1       0.149  -0.792   1.313  0.00  0.00    +0.045 A 
ATOM      9  N   UNL     1       0.191  -2.903   2.465  0.00  0.00    -0.320 N 
ATOM     10  H   UNL     1       0.260  -3.871   2.446  0.00  0.00    +0.148 HD
ATOM     11  H   UNL     1       0.457  -3.785   0.128  0.00  0.00    +0.166 HD
ENDBRANCH   1   9
BRANCH   1  12
ATOM     12  C   UNL     1       1.380  -1.758   4.244  0.00  0.00    +0.012 A 
ATOM     13  C   UNL     1       2.521  -2.433   3.852  0.00  0.00    +0.008 A 
ATOM     14  C   UNL     1       3.759  -2.024   4.312  0.00  0.00    +0.001 A 
ATOM     15  C   UNL     1       3.857  -0.939   5.163  0.00  0.00    +0.003 A 
ATOM     16  C   UNL     1       2.718  -0.263   5.556  0.00  0.00    +0.039 A 
ATOM     17  C   UNL     1       1.478  -0.668   5.092  0.00  0.00    +0.129 A 
ATOM     18  F   UNL     1       0.364  -0.005   5.471  0.00  0.00    -0.205 F 
ENDBRANCH   1  12
BRANCH   1  19
ATOM     19  C   UNL     1      -0.596  -3.135   4.749  0.00  0.00    +0.006 A 
ATOM     20  C   UNL     1       0.171  -3.721   5.739  0.00  0.00    +0.018 A 
ATOM     21  C   UNL     1      -0.424  -4.553   6.627  0.00  0.00    -0.011 A 
ATOM     22  S   UNL     1      -2.123  -4.531   6.079  0.00  0.00    -0.078 S 
ATOM     23  C   UNL     1      -1.930  -3.410   4.703  0.00  0.00    +0.078 A 
ATOM     24  C   UNL     1       0.189  -5.303   7.781  0.00  0.00    +0.051 C 
BRANCH  23  25
ATOM     25  N   UNL     1      -2.895  -2.939   3.810  0.00  0.00    -0.273 N 
ATOM     26  C   UNL     1      -4.194  -3.244   3.999  0.00  0.00    +0.284 C 
ATOM     27  O   UNL     1      -4.526  -3.930   4.948  0.00  0.00    -0.266 OA
ATOM     28  H   UNL     1      -2.630  -2.392   3.054  0.00  0.00    +0.156 HD
BRANCH  26  29
ATOM     29  C   UNL     1      -5.207  -2.750   3.061  0.00  0.00    +0.189 A 
ATOM     30  C   UNL     1      -6.551  -2.978   3.138  0.00  0.00    +0.054 A 
ATOM     31  C   UNL     1      -7.135  -2.321   2.044  0.00  0.00    +0.042 A 
ATOM     32  C   UNL     1      -6.135  -1.728   1.356  0.00  0.00    +0.196 A 
ATOM     33  O   UNL     1      -4.975  -1.984   1.975  0.00  0.00    -0.458 OA
ENDBRANCH  26  29
ENDBRANCH  23  25
ENDBRANCH   1  19
TORSDOF 5
