REMARK  Name = ZINC09982169
REMARK  6 active torsions:
REMARK  status: ('A' for Active; 'I' for Inactive)
REMARK    1  A    between atoms: C_1  and  C_2
REMARK    2  A    between atoms: N_11  and  C_15
REMARK    3  A    between atoms: C_15  and  C_16
REMARK    4  A    between atoms: N_18  and  C_19
REMARK    5  A    between atoms: C_19  and  C_20
REMARK    6  A    between atoms: N_22  and  C_23
REMARK                            x       y       z     vdW  Elec       q    Type
REMARK                         _______ _______ _______ _____ _____    ______ ____
ROOT
ATOM      1  C   UNL     1       3.298   2.939   2.345  0.00  0.00    +0.231 C 
ATOM      2  O   UNL     1       2.376   3.279   1.633  0.00  0.00    -0.274 OA
ATOM      3  N   UNL     1       4.270   3.820   2.655  0.00  0.00    -0.305 N 
ATOM      4  H   UNL     1       5.007   3.548   3.223  0.00  0.00    +0.149 HD
ENDROOT
BRANCH   1   5
ATOM      5  C   UNL     1       3.356   1.532   2.881  0.00  0.00    +0.213 C 
BRANCH   5  15
ATOM      6  C   UNL     1       0.023   1.507  -0.042  0.00  0.00    +0.010 C 
ATOM      7  C   UNL     1       0.051  -0.023  -0.056  0.00  0.00    +0.018 C 
ATOM      8  C   UNL     1       0.776  -0.508  -1.314  0.00  0.00    +0.006 C 
ATOM      9  C   UNL     1       0.822  -2.037  -1.317  0.00  0.00    +0.000 C 
ATOM     10  C   UNL     1       1.580  -2.528  -0.082  0.00  0.00    +0.003 C 
ATOM     11  C   UNL     1       0.858  -2.051   1.181  0.00  0.00    +0.035 C 
ATOM     12  C   UNL     1       0.783  -0.528   1.182  0.00  0.00    +0.115 C 
ATOM     13  C   UNL     1       2.169   0.069   1.257  0.00  0.00    +0.247 C 
ATOM     14  O   UNL     1       3.069  -0.061   0.455  0.00  0.00    -0.273 OA
ATOM     15  N   UNL     1       2.194   0.779   2.404  0.00  0.00    -0.215 N 
ATOM     16  C   UNL     1       1.025   0.709   3.053  0.00  0.00    +0.310 C 
ATOM     17  O   UNL     1       0.804   1.266   4.110  0.00  0.00    -0.252 OA
ATOM     18  N   UNL     1       0.121  -0.048   2.402  0.00  0.00    -0.285 N 
ATOM     19  H   UNL     1      -0.788  -0.238   2.683  0.00  0.00    +0.151 HD
ENDBRANCH   5  15
ENDBRANCH   1   5
BRANCH   3  20
ATOM     20  C   UNL     1       4.213   5.187   2.132  0.00  0.00    +0.200 C 
BRANCH  20  21
ATOM     21  C   UNL     1       5.409   5.962   2.623  0.00  0.00    +0.234 C 
ATOM     22  O   UNL     1       6.228   5.425   3.338  0.00  0.00    -0.274 OA
ATOM     23  N   UNL     1       5.569   7.252   2.267  0.00  0.00    -0.282 N 
ATOM     24  H   UNL     1       4.949   7.663   1.644  0.00  0.00    +0.155 HD
BRANCH  23  25
ATOM     25  C   UNL     1       6.629   8.000   2.797  0.00  0.00    +0.072 A 
ATOM     26  C   UNL     1       7.848   7.389   3.057  0.00  0.00    +0.029 A 
ATOM     27  C   UNL     1       8.893   8.127   3.580  0.00  0.00    +0.043 A 
ATOM     28  C   UNL     1       8.726   9.475   3.846  0.00  0.00    +0.161 A 
ATOM     29  C   UNL     1       7.510  10.089   3.589  0.00  0.00    +0.195 A 
ATOM     30  C   UNL     1       6.462   9.355   3.059  0.00  0.00    +0.182 A 
ATOM     31  F   UNL     1       5.279   9.953   2.802  0.00  0.00    -0.200 F 
ATOM     32  F   UNL     1       7.349  11.405   3.850  0.00  0.00    -0.199 F 
ATOM     33  F   UNL     1       9.749  10.193   4.358  0.00  0.00    -0.202 F 
ENDBRANCH  23  25
ENDBRANCH  20  21
ENDBRANCH   3  20
TORSDOF 5
