REMARK  Name = ZINC12548500
REMARK  9 active torsions:
REMARK  status: ('A' for Active; 'I' for Inactive)
REMARK    1  A    between atoms: C_1  and  C_2
REMARK    2  A    between atoms: C_2  and  N_3
REMARK    3  A    between atoms: C_14  and  C_16
REMARK    4  A    between atoms: N_17  and  N_18
REMARK    5  A    between atoms: N_18  and  C_19
REMARK    6  A    between atoms: C_22  and  S_28
REMARK    7  A    between atoms: C_24  and  N_25
REMARK    8  A    between atoms: S_28  and  N_31
REMARK    9  A    between atoms: N_31  and  C_32
REMARK                            x       y       z     vdW  Elec       q    Type
REMARK                         _______ _______ _______ _____ _____    ______ ____
ROOT
ATOM      1  C   UNL     1      -0.101  12.305   0.121  0.00  0.00    +0.079 A 
ATOM      2  C   UNL     1       1.260  12.506   0.320  0.00  0.00    +0.029 A 
ATOM      3  C   UNL     1       1.810  13.754   0.110  0.00  0.00    +0.031 A 
ATOM      4  C   UNL     1       1.008  14.805  -0.299  0.00  0.00    +0.111 A 
ATOM      5  C   UNL     1      -0.346  14.609  -0.498  0.00  0.00    +0.063 A 
ATOM      6  C   UNL     1      -0.902  13.361  -0.296  0.00  0.00    +0.150 A 
ENDROOT
BRANCH   6   7
ATOM      7  N   UNL     1      -2.351  13.151  -0.516  0.00  0.00    +0.058 N 
ATOM      8  O   UNL     1      -2.747  12.114  -1.017  0.00  0.00    -0.126 OA
ATOM      9  O   UNL     1      -3.148  14.015  -0.197  0.00  0.00    -0.126 OA
ENDBRANCH   6   7
BRANCH   4  10
ATOM     10  S   UNL     1       1.715  16.397  -0.567  0.00  0.00    +0.072 S 
ATOM     11  O   UNL     1       0.693  17.346  -0.294  0.00  0.00    -0.150 OA
ATOM     12  O   UNL     1       2.964  16.406   0.111  0.00  0.00    -0.150 OA
BRANCH  10  13
ATOM     13  N   UNL     1       2.053  16.517  -2.183  0.00  0.00    -0.216 N 
ATOM     14  H   UNL     1       1.626  17.204  -2.718  0.00  0.00    +0.174 HD
BRANCH  13  15
ATOM     15  C   UNL     1       2.953  15.629  -2.777  0.00  0.00    +0.048 A 
ATOM     16  C   UNL     1       4.156  15.334  -2.148  0.00  0.00    +0.024 A 
ATOM     17  C   UNL     1       5.042  14.452  -2.735  0.00  0.00    +0.002 A 
ATOM     18  C   UNL     1       4.737  13.871  -3.952  0.00  0.00    +0.000 A 
ATOM     19  C   UNL     1       3.543  14.167  -4.583  0.00  0.00    +0.002 A 
ATOM     20  C   UNL     1       2.650  15.044  -3.999  0.00  0.00    +0.024 A 
ENDBRANCH  13  15
ENDBRANCH  10  13
ENDBRANCH   4  10
BRANCH   1  21
ATOM     21  N   UNL     1      -0.661  11.045   0.333  0.00  0.00    -0.236 N 
ATOM     22  H   UNL     1      -1.621  10.923   0.268  0.00  0.00    +0.174 HD
BRANCH  21  24
ATOM     23  C   UNL     1      -0.356   8.782   0.837  0.00  0.00    +0.138 C 
ATOM     24  N   UNL     1       0.164   9.955   0.640  0.00  0.00    -0.190 NA
BRANCH  23  36
ATOM     25  N   UNL     1       2.747   4.262   2.079  0.00  0.00    -0.340 N 
ATOM     26  C   UNL     1       1.775   3.285   2.193  0.00  0.00    +0.050 A 
ATOM     27  C   UNL     1       1.844   1.925   2.485  0.00  0.00    +0.026 A 
ATOM     28  C   UNL     1       0.691   1.172   2.535  0.00  0.00    +0.002 A 
ATOM     29  C   UNL     1      -0.543   1.754   2.291  0.00  0.00    +0.001 A 
ATOM     30  C   UNL     1      -0.632   3.100   2.006  0.00  0.00    +0.010 A 
ATOM     31  C   UNL     1       0.525   3.873   1.952  0.00  0.00    +0.008 A 
ATOM     32  C   UNL     1       0.780   5.300   1.676  0.00  0.00    +0.008 A 
ATOM     33  C   UNL     1       2.170   5.480   1.769  0.00  0.00    +0.050 A 
ATOM     34  C   UNL     1       2.715   6.744   1.554  0.00  0.00    +0.027 A 
ATOM     35  C   UNL     1       1.898   7.809   1.254  0.00  0.00    +0.011 A 
ATOM     36  C   UNL     1       0.512   7.635   1.160  0.00  0.00    -0.005 A 
ATOM     37  C   UNL     1      -0.046   6.375   1.373  0.00  0.00    +0.020 A 
BRANCH  25  39
ATOM     38  C   UNL     1       4.816   3.667   0.918  0.00  0.00    +0.027 C 
ATOM     39  C   UNL     1       4.184   4.039   2.260  0.00  0.00    +0.119 C 
ENDBRANCH  25  39
ENDBRANCH  23  36
ENDBRANCH  21  24
ENDBRANCH   1  21
TORSDOF 8
