REMARK  Name = ZINC20386559
REMARK  9 active torsions:
REMARK  status: ('A' for Active; 'I' for Inactive)
REMARK    1  A    between atoms: C_1  and  C_2
REMARK    2  A    between atoms: C_2  and  C_3
REMARK    3  A    between atoms: C_3  and  C_5
REMARK    4  A    between atoms: C_3  and  N_21
REMARK    5  A    between atoms: C_9  and  N_10
REMARK    6  A    between atoms: N_16  and  C_19
REMARK    7  A    between atoms: C_19  and  C_20
REMARK    8  A    between atoms: N_24  and  C_25
REMARK    9  A    between atoms: C_29  and  C_31
REMARK                            x       y       z     vdW  Elec       q    Type
REMARK                         _______ _______ _______ _____ _____    ______ ____
ROOT
ATOM      1  C   UNL     1      -0.655   1.804   2.349  0.00  0.00    +0.107 C 
ENDROOT
BRANCH   1   2
ATOM      2  C   UNL     1       0.400   0.954   3.008  0.00  0.00    +0.007 A 
ATOM      3  C   UNL     1       0.042   0.031   3.987  0.00  0.00    -0.034 A 
ATOM      4  C   UNL     1       1.050  -0.703   4.535  0.00  0.00    -0.021 A 
ATOM      5  S   UNL     1       2.501  -0.116   3.706  0.00  0.00    -0.077 S 
ATOM      6  C   UNL     1       1.706   1.088   2.652  0.00  0.00    +0.090 A 
ATOM      7  C   UNL     1       0.924  -1.749   5.593  0.00  0.00    -0.035 C 
ATOM      8  N   UNL     1      -0.415  -1.630   6.202  0.00  0.00    +0.383 N 
ATOM      9  C   UNL     1      -1.452  -1.558   5.163  0.00  0.00    -0.074 C 
ATOM     10  C   UNL     1      -1.394  -0.205   4.449  0.00  0.00    +0.018 C 
ATOM     11  H   UNL     1      -0.450  -0.697   6.783  0.00  0.00    -0.081 HD
BRANCH   6  12
ATOM     12  N   UNL     1       2.278   1.947   1.706  0.00  0.00    -0.317 N 
ATOM     13  C   UNL     1       1.591   2.751   0.843  0.00  0.00    +0.092 A 
ATOM     14  C   UNL     1       2.487   3.427   0.093  0.00  0.00    +0.019 A 
ATOM     15  C   UNL     1       3.772   3.019   0.501  0.00  0.00    +0.019 A 
ATOM     16  C   UNL     1       3.615   2.114   1.489  0.00  0.00    +0.092 A 
ENDBRANCH   6  12
BRANCH   8  17
ATOM     17  C   UNL     1      -0.673  -2.740   7.128  0.00  0.00    -0.082 C 
ATOM     18  C   UNL     1      -0.746  -4.052   6.344  0.00  0.00    -0.017 C 
ENDBRANCH   8  17
ENDBRANCH   1   2
BRANCH   1  19
ATOM     19  N   UNL     1      -0.220   3.204   2.343  0.00  0.00    -0.292 N 
ATOM     20  C   UNL     1      -1.130   4.191   2.229  0.00  0.00    +0.304 C 
ATOM     21  O   UNL     1      -2.312   3.921   2.131  0.00  0.00    -0.252 OA
ATOM     22  N   UNL     1      -0.731   5.479   2.224  0.00  0.00    -0.269 N 
ATOM     23  H   UNL     1       0.849   3.448   2.432  0.00  0.00    +0.151 HD
ATOM     24  H   UNL     1       0.323   5.728   2.417  0.00  0.00    +0.156 HD
BRANCH  22  25
ATOM     25  C   UNL     1      -1.657   6.498   1.974  0.00  0.00    +0.035 A 
ATOM     26  C   UNL     1      -2.726   6.271   1.118  0.00  0.00    +0.024 A 
ATOM     27  C   UNL     1      -3.641   7.277   0.877  0.00  0.00    +0.017 A 
ATOM     28  C   UNL     1      -3.487   8.513   1.479  0.00  0.00    +0.021 A 
ATOM     29  C   UNL     1      -2.419   8.744   2.328  0.00  0.00    -0.035 A 
ATOM     30  C   UNL     1      -1.504   7.739   2.577  0.00  0.00    +0.027 A 
ATOM     31  C   UNL     1      -2.255  10.091   2.982  0.00  0.00    +0.045 C 
ATOM     32 BR   UNL     1      -4.738   9.890   1.141  0.00  0.00    -0.050 Br
ENDBRANCH  22  25
ENDBRANCH   1  19
BRANCH   1  34
ATOM     33  C   UNL     1      -2.022   2.111   0.280  0.00  0.00    +0.006 C 
ATOM     34  C   UNL     1      -0.866   1.331   0.909  0.00  0.00    +0.024 C 
ENDBRANCH   1  34
TORSDOF 6
