REMARK  Name = ZINC39856187
REMARK  8 active torsions:
REMARK  status: ('A' for Active; 'I' for Inactive)
REMARK    1  A    between atoms: C_1  and  C_2
REMARK    2  A    between atoms: C_6  and  C_7
REMARK    3  A    between atoms: N_9  and  C_10
REMARK    4  A    between atoms: C_18  and  C_26
REMARK    5  A    between atoms: C_18  and  C_27
REMARK    6  A    between atoms: N_21  and  N_22
REMARK    7  A    between atoms: N_22  and  C_23
REMARK    8  A    between atoms: C_23  and  N_25
REMARK                            x       y       z     vdW  Elec       q    Type
REMARK                         _______ _______ _______ _____ _____    ______ ____
ROOT
ATOM      1  C   UNL     1      -0.014   1.502   0.010  0.00  0.00    +0.048 C 
ATOM      2  C   UNL     1      -0.004  -0.005   0.002  0.00  0.00    +0.009 A 
ATOM      3  C   UNL     1      -0.007  -0.839  -1.122  0.00  0.00    +0.042 A 
ATOM      4  C   UNL     1       0.004  -2.138  -0.672  0.00  0.00    +0.116 A 
ATOM      5  O   UNL     1       0.018  -2.112   0.658  0.00  0.00    -0.454 OA
ATOM      6  C   UNL     1       0.018  -0.831   1.091  0.00  0.00    +0.193 A 
ATOM      7  C   UNL     1      -0.001  -3.327  -1.599  0.00  0.00    +0.081 C 
ATOM      8  C   UNL     1      -0.528  -2.900  -2.972  0.00  0.00    -0.023 C 
ATOM      9  C   UNL     1       0.249  -1.688  -3.496  0.00  0.00    +0.064 C 
ATOM     10  C   UNL     1      -0.018  -0.513  -2.566  0.00  0.00    +0.070 C 
ATOM     11  N   UNL     1      -0.240   0.687  -3.007  0.00  0.00    -0.185 NA
ATOM     12  C   UNL     1      -0.373  -4.062  -3.955  0.00  0.00    +0.011 C 
ATOM     13  C   UNL     1      -2.009  -2.537  -2.852  0.00  0.00    +0.011 C 
ENDROOT
BRANCH   6  14
ATOM     14  C   UNL     1       0.034  -0.400   2.493  0.00  0.00    +0.284 C 
ATOM     15  O   UNL     1       0.029   0.786   2.765  0.00  0.00    -0.266 OA
ATOM     16  N   UNL     1       0.054  -1.318   3.480  0.00  0.00    -0.279 N 
ATOM     17  H   UNL     1      -0.010  -2.262   3.266  0.00  0.00    +0.155 HD
BRANCH  16  18
ATOM     18  C   UNL     1       0.167  -0.909   4.813  0.00  0.00    +0.034 A 
ATOM     19  C   UNL     1       0.888  -1.678   5.718  0.00  0.00    +0.024 A 
ATOM     20  C   UNL     1       0.998  -1.271   7.033  0.00  0.00    +0.017 A 
ATOM     21  C   UNL     1       0.391  -0.100   7.450  0.00  0.00    +0.018 A 
ATOM     22  C   UNL     1      -0.328   0.668   6.551  0.00  0.00    +0.017 A 
ATOM     23  C   UNL     1      -0.437   0.269   5.233  0.00  0.00    +0.024 A 
ATOM     24 BR   UNL     1       0.543   0.453   9.252  0.00  0.00    -0.050 Br
ENDBRANCH  16  18
ENDBRANCH   6  14
BRANCH  11  25
ATOM     25  N   UNL     1      -0.239   0.938  -4.385  0.00  0.00    -0.218 N 
ATOM     26  H   UNL     1      -0.072   0.215  -5.010  0.00  0.00    +0.176 HD
BRANCH  25  27
ATOM     27  C   UNL     1      -0.470   2.184  -4.843  0.00  0.00    +0.147 C 
ATOM     28  S   UNL     1      -0.468   2.491  -6.527  0.00  0.00    -0.017 S 
BRANCH  27  29
ATOM     29  N   UNL     1      -0.701   3.189  -3.975  0.00  0.00    -0.339 N 
ATOM     30  H   UNL     1      -0.702   3.015  -3.021  0.00  0.00    +0.144 HD
ATOM     31  H   UNL     1      -0.867   4.086  -4.305  0.00  0.00    +0.144 HD
ENDBRANCH  27  29
ENDBRANCH  25  27
ENDBRANCH  11  25
TORSDOF 5
