REMARK  Name = ZINC35667419
REMARK  10 active torsions:
REMARK  status: ('A' for Active; 'I' for Inactive)
REMARK    1  A    between atoms: C_1  and  C_2
REMARK    2  A    between atoms: C_5  and  N_8
REMARK    3  A    between atoms: C_10  and  C_25
REMARK    4  A    between atoms: N_13  and  C_14
REMARK    5  A    between atoms: C_14  and  C_16
REMARK    6  A    between atoms: C_16  and  N_17
REMARK    7  A    between atoms: N_17  and  C_18
REMARK    8  A    between atoms: C_18  and  C_19
REMARK    9  A    between atoms: C_28  and  O_31
REMARK   10  A    between atoms: O_31  and  C_32
REMARK                            x       y       z     vdW  Elec       q    Type
REMARK                         _______ _______ _______ _____ _____    ______ ____
ROOT
ATOM      1  N   UNL     1       0.057  -4.171  -0.021  0.00  0.00    -0.287 N 
ATOM      2  C   UNL     1       0.068  -4.975  -1.144  0.00  0.00    +0.120 A 
ATOM      3  C   UNL     1       0.085  -6.257  -0.738  0.00  0.00    +0.066 A 
ATOM      4  N   UNL     1       0.085  -6.265   0.651  0.00  0.00    -0.326 N 
ATOM      5  C   UNL     1       0.073  -4.975   1.076  0.00  0.00    +0.205 A 
ATOM      6  N   UNL     1       0.074  -4.568   2.345  0.00  0.00    -0.148 NA
ATOM      7  H   UNL     1       0.095  -7.052   1.218  0.00  0.00    +0.169 HD
ENDROOT
BRANCH   1  12
ATOM      8  C   UNL     1      -0.018   1.503   0.010  0.00  0.00    +0.044 C 
ATOM      9  C   UNL     1       0.002  -0.004   0.002  0.00  0.00    -0.050 A 
ATOM     10  C   UNL     1       0.006  -0.687  -1.200  0.00  0.00    +0.005 A 
ATOM     11  C   UNL     1       0.024  -2.068  -1.211  0.00  0.00    +0.026 A 
ATOM     12  C   UNL     1       0.039  -2.771  -0.013  0.00  0.00    +0.049 A 
ATOM     13  C   UNL     1       0.036  -2.081   1.192  0.00  0.00    +0.026 A 
ATOM     14  C   UNL     1       0.023  -0.700   1.197  0.00  0.00    +0.005 A 
ENDBRANCH   1  12
BRANCH   3  15
ATOM     15  C   UNL     1       0.100  -7.448  -1.616  0.00  0.00    +0.000 A 
ATOM     16  C   UNL     1       0.104  -7.295  -3.003  0.00  0.00    +0.013 A 
ATOM     17  C   UNL     1       0.118  -8.407  -3.817  0.00  0.00    +0.046 A 
ATOM     18  C   UNL     1       0.129  -9.678  -3.260  0.00  0.00    +0.120 A 
ATOM     19  C   UNL     1       0.125  -9.835  -1.880  0.00  0.00    +0.046 A 
ATOM     20  C   UNL     1       0.117  -8.727  -1.059  0.00  0.00    +0.013 A 
BRANCH  18  21
ATOM     21  O   UNL     1       0.143 -10.772  -4.066  0.00  0.00    -0.495 OA
ATOM     22  C   UNL     1       0.154 -12.050  -3.426  0.00  0.00    +0.277 C 
ENDBRANCH  18  21
ENDBRANCH   3  15
BRANCH   6  23
ATOM     23  C   UNL     1       0.090  -5.460   3.329  0.00  0.00    +0.222 C 
ATOM     24  O   UNL     1       0.105  -6.649   3.071  0.00  0.00    -0.276 OA
BRANCH  23  25
ATOM     25  C   UNL     1       0.091  -5.000   4.763  0.00  0.00    +0.017 C 
BRANCH  25  26
ATOM     26  N   UNL     1       0.111  -6.169   5.653  0.00  0.00    +0.386 N 
ATOM     27  H   UNL     1      -0.706  -6.736   5.481  0.00  0.00    -0.085 HD
ATOM     28  H   UNL     1       0.942  -6.714   5.473  0.00  0.00    -0.085 HD
BRANCH  26  29
ATOM     29  C   UNL     1       0.112  -5.721   7.051  0.00  0.00    -0.050 C 
BRANCH  29  30
ATOM     30  C   UNL     1       0.133  -6.939   7.977  0.00  0.00    +0.101 C 
ATOM     31  C   UNL     1       0.099  -6.488   9.460  0.00  0.00    +0.032 C 
ATOM     32  C   UNL     1      -0.512  -7.745  10.136  0.00  0.00    +0.030 C 
ATOM     33  C   UNL     1      -1.485  -8.260   9.053  0.00  0.00    +0.160 C 
ATOM     34  O   UNL     1      -1.056  -7.724   7.795  0.00  0.00    -0.378 OA
ENDBRANCH  29  30
ENDBRANCH  26  29
ENDBRANCH  25  26
ENDBRANCH  23  25
ENDBRANCH   6  23
TORSDOF 8
