REMARK  Name = ZINC21080076
REMARK  8 active torsions:
REMARK  status: ('A' for Active; 'I' for Inactive)
REMARK    1  A    between atoms: C_5  and  N_7
REMARK    2  A    between atoms: C_8  and  C_10
REMARK    3  A    between atoms: C_10  and  C_11
REMARK    4  A    between atoms: C_11  and  S_12
REMARK    5  A    between atoms: S_12  and  C_13
REMARK    6  A    between atoms: N_18  and  N_19
REMARK    7  A    between atoms: C_20  and  C_21
REMARK    8  A    between atoms: C_26  and  O_27
REMARK                            x       y       z     vdW  Elec       q    Type
REMARK                         _______ _______ _______ _____ _____    ______ ____
ROOT
ATOM      1  C   UNL     1       1.309  -0.407   0.030  0.00  0.00    +0.210 A 
ATOM      2  N   UNL     1       0.004  -0.002   0.056  0.00  0.00    -0.186 NA
ATOM      3  C   UNL     1      -0.013   1.365   0.064  0.00  0.00    +0.232 A 
ATOM      4  N   UNL     1       1.228   1.787   0.044  0.00  0.00    -0.245 N 
ATOM      5  N   UNL     1       2.066   0.664   0.023  0.00  0.00    -0.144 NA
ATOM      6  N   UNL     1      -1.146   2.166   0.083  0.00  0.00    -0.205 N 
ATOM      7  H   UNL     1      -2.145   1.705   0.093  0.00  0.00    +0.177 HD
ATOM      8  H   UNL     1       1.442   2.866   0.047  0.00  0.00    +0.192 HD
ENDROOT
BRANCH   6   9
ATOM      9  N   UNL     1      -1.018   3.561   0.089  0.00  0.00    -0.187 NA
ATOM     10  C   UNL     1      -2.079   4.310   0.107  0.00  0.00    +0.142 C 
BRANCH  10  11
ATOM     11  C   UNL     1      -1.944   5.778   0.114  0.00  0.00    +0.037 A 
ATOM     12  C   UNL     1      -3.082   6.588   0.133  0.00  0.00    +0.028 A 
ATOM     13  C   UNL     1      -2.949   7.961   0.140  0.00  0.00    +0.019 A 
ATOM     14  C   UNL     1      -1.691   8.540   0.127  0.00  0.00    +0.019 A 
ATOM     15  C   UNL     1      -0.557   7.749   0.108  0.00  0.00    +0.047 A 
ATOM     16  C   UNL     1      -0.673   6.369   0.107  0.00  0.00    +0.126 A 
ATOM     17 BR   UNL     1      -4.490   9.057   0.166  0.00  0.00    -0.050 Br
BRANCH  16  18
ATOM     18  O   UNL     1       0.440   5.591   0.094  0.00  0.00    -0.506 OA
ATOM     19  H   UNL     1       1.437   6.057   0.088  0.00  0.00    +0.292 HD
ENDBRANCH  16  18
ENDBRANCH  10  11
ENDBRANCH   6   9
BRANCH   1  20
ATOM     20  S   UNL     1       1.875  -2.075   0.010  0.00  0.00    -0.084 S 
BRANCH  20  21
ATOM     21  C   UNL     1       3.683  -1.925  -0.020  0.00  0.00    +0.086 C 
BRANCH  21  22
ATOM     22  C   UNL     1       4.310  -3.320  -0.039  0.00  0.00    +0.107 C 
BRANCH  22  24
ATOM     23  N   UNL     1       6.580  -4.303  -0.085  0.00  0.00    -0.284 N 
ATOM     24  C   UNL     1       5.812  -3.195  -0.065  0.00  0.00    +0.218 C 
ATOM     25  O   UNL     1       6.329  -2.098  -0.067  0.00  0.00    -0.275 OA
ATOM     26  H   UNL     1       6.114  -5.296  -0.008  0.00  0.00    +0.155 HD
BRANCH  23  31
ATOM     27  C   UNL     1      10.005  -3.014   0.275  0.00  0.00    +0.002 A 
ATOM     28  C   UNL     1      10.718  -3.962  -0.436  0.00  0.00    +0.002 A 
ATOM     29  C   UNL     1      10.061  -5.023  -1.031  0.00  0.00    +0.022 A 
ATOM     30  C   UNL     1       8.689  -5.139  -0.917  0.00  0.00    +0.062 A 
ATOM     31  C   UNL     1       7.970  -4.188  -0.203  0.00  0.00    +0.052 A 
ATOM     32  C   UNL     1       8.633  -3.121   0.388  0.00  0.00    +0.025 A 
ATOM     33 CL   UNL     1       7.864  -6.471  -1.664  0.00  0.00    -0.082 Cl
ENDBRANCH  23  31
ENDBRANCH  22  24
ENDBRANCH  21  22
ENDBRANCH  20  21
ENDBRANCH   1  20
TORSDOF 8
