REMARK  Name = ZINC01949330
REMARK  8 active torsions:
REMARK  status: ('A' for Active; 'I' for Inactive)
REMARK    1  A    between atoms: C_6  and  N_7
REMARK    2  A    between atoms: C_8  and  C_10
REMARK    3  A    between atoms: C_10  and  C_11
REMARK    4  A    between atoms: C_11  and  C_12
REMARK    5  A    between atoms: N_14  and  N_15
REMARK    6  A    between atoms: C_16  and  C_17
REMARK    7  A    between atoms: C_20  and  O_24
REMARK    8  A    between atoms: C_22  and  O_23
REMARK                            x       y       z     vdW  Elec       q    Type
REMARK                         _______ _______ _______ _____ _____    ______ ____
ROOT
ATOM      1  C   UNL     1      -3.475  -5.088  -0.422  0.00  0.00    +0.233 C 
ATOM      2  O   UNL     1      -4.533  -4.494  -0.409  0.00  0.00    -0.274 OA
ATOM      3  N   UNL     1      -3.459  -6.431  -0.531  0.00  0.00    -0.207 N 
ATOM      4  H   UNL     1      -2.613  -6.907  -0.542  0.00  0.00    +0.177 HD
ENDROOT
BRANCH   3   5
ATOM      5  N   UNL     1      -4.663  -7.141  -0.629  0.00  0.00    -0.188 NA
ATOM      6  C   UNL     1      -4.647  -8.435  -0.734  0.00  0.00    +0.142 C 
BRANCH   6   7
ATOM      7  C   UNL     1      -5.912  -9.181  -0.837  0.00  0.00    +0.036 A 
ATOM      8  C   UNL     1      -5.899 -10.575  -0.945  0.00  0.00    +0.016 A 
ATOM      9  C   UNL     1      -7.085 -11.269  -1.040  0.00  0.00    +0.046 A 
ATOM     10  C   UNL     1      -8.297 -10.588  -1.031  0.00  0.00    +0.120 A 
ATOM     11  C   UNL     1      -8.321  -9.205  -0.925  0.00  0.00    +0.091 A 
ATOM     12  C   UNL     1      -7.136  -8.497  -0.822  0.00  0.00    +0.129 A 
BRANCH  12  13
ATOM     13  O   UNL     1      -7.159  -7.144  -0.713  0.00  0.00    -0.506 OA
ATOM     14  H   UNL     1      -7.136  -6.680  -1.561  0.00  0.00    +0.292 HD
ENDBRANCH  12  13
BRANCH  10  15
ATOM     15  O   UNL     1      -9.462 -11.280  -1.126  0.00  0.00    -0.507 OA
ATOM     16  H   UNL     1      -9.831 -11.548  -0.273  0.00  0.00    +0.292 HD
ENDBRANCH  10  15
ENDBRANCH   6   7
ENDBRANCH   3   5
BRANCH   1  17
ATOM     17  C   UNL     1      -2.180  -4.325  -0.317  0.00  0.00    +0.107 C 
BRANCH  17  18
ATOM     18  C   UNL     1      -2.478  -2.828  -0.205  0.00  0.00    +0.105 C 
BRANCH  18  20
ATOM     19  N   UNL     1      -1.199  -0.722   0.010  0.00  0.00    -0.285 N 
ATOM     20  C   UNL     1      -1.183  -2.065  -0.100  0.00  0.00    +0.218 C 
ATOM     21  O   UNL     1      -0.126  -2.659  -0.113  0.00  0.00    -0.275 OA
ATOM     22  H   UNL     1      -2.044  -0.253   0.097  0.00  0.00    +0.155 HD
BRANCH  19  28
ATOM     23  C   UNL     1       1.072  -0.453  -0.766  0.00  0.00    +0.024 A 
ATOM     24  C   UNL     1       2.256   0.258  -0.777  0.00  0.00    +0.016 A 
ATOM     25  C   UNL     1       2.377   1.416  -0.030  0.00  0.00    +0.013 A 
ATOM     26  C   UNL     1       1.312   1.866   0.730  0.00  0.00    +0.016 A 
ATOM     27  C   UNL     1       0.126   1.159   0.745  0.00  0.00    +0.024 A 
ATOM     28  C   UNL     1       0.002  -0.004  -0.004  0.00  0.00    +0.033 A 
ATOM     29  I   UNL     1       4.175   2.490  -0.050  0.00  0.00    -0.044 I 
ENDBRANCH  19  28
ENDBRANCH  18  20
ENDBRANCH  17  18
ENDBRANCH   1  17
TORSDOF 8
