REMARK  Name = ZINC36597661
REMARK  14 active torsions:
REMARK  status: ('A' for Active; 'I' for Inactive)
REMARK    1  A    between atoms: C_1  and  C_2
REMARK    2  A    between atoms: C_5  and  C_7
REMARK    3  A    between atoms: C_7  and  N_8
REMARK    4  A    between atoms: N_8  and  C_9
REMARK    5  A    between atoms: C_9  and  C_11
REMARK    6  A    between atoms: C_9  and  C_18
REMARK    7  A    between atoms: C_14  and  O_17
REMARK    8  A    between atoms: N_20  and  C_21
REMARK    9  A    between atoms: C_21  and  C_22
REMARK   10  A    between atoms: C_21  and  C_23
REMARK   11  A    between atoms: C_21  and  C_24
REMARK   12  A    between atoms: C_25  and  C_27
REMARK   13  A    between atoms: C_31  and  O_34
REMARK   14  A    between atoms: C_32  and  O_33
REMARK                            x       y       z     vdW  Elec       q    Type
REMARK                         _______ _______ _______ _____ _____    ______ ____
ROOT
ATOM      1  N   UNL     1       1.028  -2.479  -1.964  0.00  0.00    -0.275 N 
ATOM      2  C   UNL     1       0.282  -3.497  -1.492  0.00  0.00    +0.252 C 
ATOM      3  O   UNL     1      -0.320  -3.374  -0.442  0.00  0.00    -0.270 OA
ENDROOT
BRANCH   2   4
ATOM      4  C   UNL     1       0.197  -4.762  -2.247  0.00  0.00    +0.082 A 
ATOM      5  C   UNL     1       1.363  -5.436  -2.622  0.00  0.00    +0.017 A 
ATOM      6  C   UNL     1       1.279  -6.616  -3.327  0.00  0.00    +0.005 A 
ATOM      7  C   UNL     1       0.043  -7.142  -3.669  0.00  0.00    +0.049 A 
ATOM      8  C   UNL     1      -1.120  -6.486  -3.305  0.00  0.00    +0.159 A 
ATOM      9  C   UNL     1      -1.052  -5.295  -2.587  0.00  0.00    +0.171 A 
BRANCH   9  10
ATOM     10  O   UNL     1      -2.190  -4.652  -2.224  0.00  0.00    -0.503 OA
ATOM     11  H   UNL     1      -2.507  -4.013  -2.877  0.00  0.00    +0.292 HD
ENDBRANCH   9  10
BRANCH   8  12
ATOM     12  O   UNL     1      -2.329  -7.007  -3.644  0.00  0.00    -0.503 OA
ATOM     13  H   UNL     1      -2.697  -7.610  -2.983  0.00  0.00    +0.292 HD
ENDBRANCH   8  12
ENDBRANCH   2   4
BRANCH   1  14
ATOM     14  C   UNL     1       1.018  -1.184  -1.278  0.00  0.00    +0.183 C 
BRANCH  14  19
ATOM     15  C   UNL     1      -3.312   1.067  -2.553  0.00  0.00    +0.086 C 
ATOM     16  C   UNL     1      -2.278   0.313  -1.757  0.00  0.00    +0.102 A 
ATOM     17  C   UNL     1      -2.442  -0.171  -0.513  0.00  0.00    +0.045 A 
ATOM     18  C   UNL     1      -1.228  -0.802  -0.156  0.00  0.00    +0.046 A 
ATOM     19  C   UNL     1      -0.395  -0.666  -1.203  0.00  0.00    +0.122 A 
ATOM     20  O   UNL     1      -1.038   0.005  -2.172  0.00  0.00    -0.463 OA
ENDBRANCH  14  19
ENDBRANCH   1  14
BRANCH   1  21
ATOM     21  C   UNL     1       1.848  -2.666  -3.163  0.00  0.00    +0.193 C 
BRANCH  21  22
ATOM     22  C   UNL     1       3.294  -2.407  -2.829  0.00  0.00    -0.018 A 
ATOM     23  C   UNL     1       3.709  -2.412  -1.510  0.00  0.00    +0.009 A 
ATOM     24  C   UNL     1       5.034  -2.173  -1.200  0.00  0.00    +0.046 A 
ATOM     25  C   UNL     1       5.949  -1.930  -2.215  0.00  0.00    +0.117 A 
ATOM     26  C   UNL     1       5.530  -1.926  -3.537  0.00  0.00    +0.046 A 
ATOM     27  C   UNL     1       4.205  -2.170  -3.842  0.00  0.00    +0.009 A 
BRANCH  25  28
ATOM     28  O   UNL     1       7.253  -1.695  -1.913  0.00  0.00    -0.507 OA
ATOM     29  H   UNL     1       7.799  -2.492  -1.881  0.00  0.00    +0.292 HD
ENDBRANCH  25  28
ENDBRANCH  21  22
BRANCH  21  30
ATOM     30  C   UNL     1       1.399  -1.705  -4.234  0.00  0.00    +0.239 C 
ATOM     31  O   UNL     1       0.826  -0.680  -3.928  0.00  0.00    -0.273 OA
ATOM     32  N   UNL     1       1.635  -1.983  -5.531  0.00  0.00    -0.309 N 
ATOM     33  H   UNL     1       2.094  -2.802  -5.776  0.00  0.00    +0.149 HD
BRANCH  32  34
ATOM     34  C   UNL     1       1.199  -1.048  -6.572  0.00  0.00    +0.026 C 
ATOM     35  C   UNL     1       1.875   0.307  -6.355  0.00  0.00    +0.031 C 
ATOM     36  C   UNL     1       1.587  -1.598  -7.946  0.00  0.00    +0.031 C 
ATOM     37  C   UNL     1      -0.320  -0.877  -6.500  0.00  0.00    +0.031 C 
ENDBRANCH  32  34
ENDBRANCH  21  30
ENDBRANCH   1  21
TORSDOF 10
