REMARK  Name = ZINC35560431
REMARK  5 active torsions:
REMARK  status: ('A' for Active; 'I' for Inactive)
REMARK    1  A    between atoms: C_1  and  C_2
REMARK    2  A    between atoms: C_2  and  N_3
REMARK    3  A    between atoms: N_3  and  C_4
REMARK    4  A    between atoms: C_4  and  C_6
REMARK    5  A    between atoms: C_4  and  C_13
REMARK                            x       y       z     vdW  Elec       q    Type
REMARK                         _______ _______ _______ _____ _____    ______ ____
ROOT
ATOM      1  C   UNL     1       0.710  -1.947  -1.215  0.00  0.00    -0.033 C 
ENDROOT
BRANCH   1   2
ATOM      2  C   UNL     1       1.532  -2.439  -2.407  0.00  0.00    -0.037 C 
ATOM      3  C   UNL     1       0.903  -1.930  -3.706  0.00  0.00    +0.009 C 
ATOM      4  C   UNL     1       1.726  -2.423  -4.898  0.00  0.00    -0.010 C 
ATOM      5  C   UNL     1       1.747  -3.953  -4.906  0.00  0.00    +0.007 C 
ATOM      6  C   UNL     1       2.376  -4.461  -3.607  0.00  0.00    -0.010 C 
ATOM      7  C   UNL     1       1.553  -3.969  -2.415  0.00  0.00    +0.009 C 
ATOM      8  C   UNL     1       3.807  -3.932  -3.493  0.00  0.00    +0.007 C 
ATOM      9  C   UNL     1       3.787  -2.402  -3.484  0.00  0.00    -0.010 C 
ATOM     10  C   UNL     1       3.158  -1.894  -4.783  0.00  0.00    +0.007 C 
ATOM     11  C   UNL     1       2.964  -1.910  -2.292  0.00  0.00    +0.009 C 
ENDBRANCH   1   2
BRANCH   1  12
ATOM     12  C   UNL     1      -0.700  -2.467  -1.328  0.00  0.00    -0.039 A 
ATOM     13  C   UNL     1      -1.689  -1.696  -1.910  0.00  0.00    +0.026 A 
ATOM     14  C   UNL     1      -2.947  -2.195  -1.995  0.00  0.00    +0.056 A 
ATOM     15  S   UNL     1      -2.760  -3.801  -1.240  0.00  0.00    -0.074 S 
ATOM     16  C   UNL     1      -1.017  -3.703  -0.866  0.00  0.00    +0.058 A 
ATOM     17 BR   UNL     1       0.098  -4.986  -0.038  0.00  0.00    -0.042 Br
ATOM     18 BR   UNL     1      -4.498  -1.396  -2.725  0.00  0.00    -0.043 Br
ENDBRANCH   1  12
BRANCH   1  19
ATOM     19  N   UNL     1       0.690  -0.478  -1.207  0.00  0.00    +0.384 N 
ATOM     20  H   UNL     1       0.202  -0.144  -2.024  0.00  0.00    -0.085 HD
ATOM     21  H   UNL     1       1.636  -0.129  -1.214  0.00  0.00    -0.085 HD
BRANCH  19  23
ATOM     22  C   UNL     1      -0.019   1.526   0.010  0.00  0.00    -0.017 C 
ATOM     23  C   UNL     1       0.002  -0.004   0.002  0.00  0.00    -0.085 C 
ENDBRANCH  19  23
ENDBRANCH   1  19
TORSDOF 4
