REMARK  Name = ZINC00718397
REMARK  8 active torsions:
REMARK  status: ('A' for Active; 'I' for Inactive)
REMARK    1  A    between atoms: C_1  and  C_2
REMARK    2  A    between atoms: C_2  and  O_3
REMARK    3  A    between atoms: O_3  and  C_4
REMARK    4  A    between atoms: C_6  and  C_12
REMARK    5  A    between atoms: C_9  and  O_10
REMARK    6  A    between atoms: C_15  and  C_26
REMARK    7  A    between atoms: C_21  and  N_25
REMARK    8  A    between atoms: C_22  and  C_23
REMARK                            x       y       z     vdW  Elec       q    Type
REMARK                         _______ _______ _______ _____ _____    ______ ____
ROOT
ATOM      1  C   UNL     1      -0.219  -4.963  -0.535  0.00  0.00    +0.102 C 
ATOM      2  C   UNL     1      -1.242  -5.863   0.107  0.00  0.00    +0.055 A 
ATOM      3  C   UNL     1      -2.525  -5.553   0.575  0.00  0.00    +0.107 A 
ATOM      4  N   UNL     1      -3.058  -6.660   1.060  0.00  0.00    -0.170 NA
ATOM      5  N   UNL     1      -2.127  -7.700   0.911  0.00  0.00    -0.246 N 
ATOM      6  H   UNL     1      -2.255  -8.623   1.182  0.00  0.00    +0.192 HD
ATOM      7  C   UNL     1      -1.023  -7.192   0.325  0.00  0.00    +0.223 A 
ATOM      8  O   UNL     1       0.134  -7.809  -0.022  0.00  0.00    -0.423 OA
ATOM      9  C   UNL     1       0.975  -7.146  -0.842  0.00  0.00    +0.200 C 
ATOM     10  C   UNL     1       0.867  -5.828  -1.125  0.00  0.00    +0.098 C 
ENDROOT
BRANCH   1  13
ATOM     11  C   UNL     1       0.802  -1.825   1.306  0.00  0.00    +0.163 A 
ATOM     12  C   UNL     1       0.260  -2.673   0.352  0.00  0.00    +0.054 A 
ATOM     13  C   UNL     1       0.371  -4.043   0.502  0.00  0.00    -0.030 A 
ATOM     14  C   UNL     1       1.022  -4.571   1.602  0.00  0.00    +0.023 A 
ATOM     15  C   UNL     1       1.565  -3.730   2.557  0.00  0.00    +0.063 A 
ATOM     16  C   UNL     1       1.462  -2.356   2.409  0.00  0.00    +0.173 A 
ATOM     17 BR   UNL     1       2.453  -4.456   4.061  0.00  0.00    -0.046 Br
BRANCH  16  18
ATOM     18  O   UNL     1       2.000  -1.528   3.345  0.00  0.00    -0.503 OA
ATOM     19  H   UNL     1       1.395  -1.301   4.064  0.00  0.00    +0.292 HD
ENDBRANCH  16  18
BRANCH  11  20
ATOM     20  O   UNL     1       0.693  -0.477   1.160  0.00  0.00    -0.489 OA
BRANCH  20  22
ATOM     21  C   UNL     1      -0.019   1.526   0.010  0.00  0.00    +0.048 C 
ATOM     22  C   UNL     1       0.002  -0.004   0.002  0.00  0.00    +0.226 C 
ENDBRANCH  20  22
ENDBRANCH  11  20
ENDBRANCH   1  13
BRANCH   3  23
ATOM     23  C   UNL     1      -3.169  -4.222   0.534  0.00  0.00    +0.040 A 
ATOM     24  C   UNL     1      -4.487  -3.908   0.345  0.00  0.00    +0.018 A 
ATOM     25  C   UNL     1      -4.858  -2.580   0.346  0.00  0.00    +0.008 A 
ATOM     26  C   UNL     1      -3.909  -1.628   0.534  0.00  0.00    +0.046 A 
ATOM     27  S   UNL     1      -2.430  -2.608   0.727  0.00  0.00    -0.095 S 
ENDBRANCH   3  23
BRANCH   9  28
ATOM     28  N   UNL     1       2.001  -7.849  -1.423  0.00  0.00    -0.328 N 
ATOM     29  H   UNL     1       2.104  -8.796  -1.239  0.00  0.00    +0.145 HD
ATOM     30  H   UNL     1       2.622  -7.400  -2.017  0.00  0.00    +0.145 HD
ENDBRANCH   9  28
BRANCH  10  31
ATOM     31  C   UNL     1       1.817  -5.232  -2.016  0.00  0.00    +0.101 C 
ATOM     32  N   UNL     1       2.570  -4.759  -2.722  0.00  0.00    -0.191 NA
ENDBRANCH  10  31
TORSDOF 7
