REMARK  Name = ZINC39694928
REMARK  5 active torsions:
REMARK  status: ('A' for Active; 'I' for Inactive)
REMARK    1  A    between atoms: C_1  and  C_2
REMARK    2  A    between atoms: C_3  and  C_9
REMARK    3  A    between atoms: C_9  and  N_10
REMARK    4  A    between atoms: C_11  and  C_13
REMARK    5  A    between atoms: C_24  and  C_26
REMARK                            x       y       z     vdW  Elec       q    Type
REMARK                         _______ _______ _______ _____ _____    ______ ____
ROOT
ATOM      1  C   UNL     1       2.961   1.737  -4.239  0.00  0.00    +0.100 C 
ATOM      2  C   UNL     1       3.391   2.826  -3.231  0.00  0.00    +0.121 C 
ATOM      3  N   UNL     1       4.171   3.795  -4.037  0.00  0.00    -0.296 N 
ATOM      4  C   UNL     1       3.437   3.881  -5.322  0.00  0.00    +0.115 C 
ATOM      5  C   UNL     1       2.991   2.433  -5.610  0.00  0.00    -0.004 C 
ATOM      6  C   UNL     1       1.601   2.425  -6.238  0.00  0.00    -0.010 C 
ATOM      7  C   UNL     1       1.668   3.070  -7.625  0.00  0.00    -0.082 C 
ATOM      8  N   UNL     1       2.612   2.326  -8.468  0.00  0.00    +0.379 N 
ATOM      9  C   UNL     1       3.965   2.418  -7.905  0.00  0.00    -0.082 C 
ATOM     10  C   UNL     1       3.994   1.745  -6.530  0.00  0.00    -0.010 C 
ATOM     11  C   UNL     1       5.294   4.449  -3.682  0.00  0.00    +0.248 C 
ATOM     12  O   UNL     1       5.835   4.198  -2.623  0.00  0.00    -0.270 OA
ATOM     13  H   UNL     1       2.332   1.358  -8.511  0.00  0.00    -0.086 HD
ATOM     14  H   UNL     1       2.609   2.716  -9.399  0.00  0.00    -0.086 HD
ENDROOT
BRANCH  11  15
ATOM     15  C   UNL     1       5.868   5.472  -4.581  0.00  0.00    +0.055 A 
ATOM     16  C   UNL     1       5.029   6.287  -5.343  0.00  0.00    +0.014 A 
ATOM     17  C   UNL     1       5.571   7.241  -6.179  0.00  0.00    +0.001 A 
ATOM     18  C   UNL     1       6.944   7.391  -6.264  0.00  0.00    +0.001 A 
ATOM     19  C   UNL     1       7.783   6.588  -5.514  0.00  0.00    +0.021 A 
ATOM     20  C   UNL     1       7.253   5.633  -4.667  0.00  0.00    +0.053 A 
ATOM     21 CL   UNL     1       8.307   4.630  -3.719  0.00  0.00    -0.083 Cl
ENDBRANCH  11  15
BRANCH   1  23
ATOM     22  N   UNL     1       1.151   0.057  -4.385  0.00  0.00    -0.311 N 
ATOM     23  C   UNL     1       1.568   1.254  -3.927  0.00  0.00    +0.218 C 
ATOM     24  O   UNL     1       0.822   1.942  -3.264  0.00  0.00    -0.275 OA
ATOM     25  H   UNL     1       1.748  -0.494  -4.916  0.00  0.00    +0.149 HD
BRANCH  22  26
ATOM     26  C   UNL     1      -0.203  -0.413  -4.081  0.00  0.00    +0.139 C 
BRANCH  26  29
ATOM     27  C   UNL     1       0.831  -2.779  -2.784  0.00  0.00    +0.045 C 
ATOM     28  C   UNL     1       0.078  -2.900  -4.084  0.00  0.00    -0.027 A 
ATOM     29  C   UNL     1      -0.416  -1.768  -4.705  0.00  0.00    -0.026 A 
ATOM     30  C   UNL     1      -1.107  -1.880  -5.897  0.00  0.00    +0.005 A 
ATOM     31  C   UNL     1      -1.303  -3.123  -6.469  0.00  0.00    +0.002 A 
ATOM     32  C   UNL     1      -0.809  -4.255  -5.849  0.00  0.00    +0.020 A 
ATOM     33  C   UNL     1      -0.113  -4.144  -4.659  0.00  0.00    +0.044 A 
ATOM     34 CL   UNL     1       0.513  -5.565  -3.883  0.00  0.00    -0.083 Cl
ENDBRANCH  26  29
ENDBRANCH  22  26
ENDBRANCH   1  23
TORSDOF 4
