REMARK  Name = ZINC16428636
REMARK  10 active torsions:
REMARK  status: ('A' for Active; 'I' for Inactive)
REMARK    1  A    between atoms: C_3  and  N_28
REMARK    2  A    between atoms: C_6  and  N_7
REMARK    3  A    between atoms: N_7  and  C_8
REMARK    4  A    between atoms: C_8  and  C_9
REMARK    5  A    between atoms: C_9  and  N_50
REMARK    6  A    between atoms: C_10  and  C_11
REMARK    7  A    between atoms: C_10  and  N_50
REMARK    8  A    between atoms: C_16  and  O_17
REMARK    9  A    between atoms: O_17  and  C_18
REMARK   10  A    between atoms: C_18  and  C_19
REMARK                            x       y       z     vdW  Elec       q    Type
REMARK                         _______ _______ _______ _____ _____    ______ ____
ROOT
ATOM      1  C   UNL     1      -1.700  -3.196  -0.021  0.00  0.00    -0.043 C 
ENDROOT
BRANCH   1   2
ATOM      2  C   UNL     1      -3.099  -2.638  -0.005  0.00  0.00    -0.021 A 
ATOM      3  C   UNL     1      -4.185  -3.493   0.000  0.00  0.00    +0.025 A 
ATOM      4  C   UNL     1      -5.470  -2.981   0.009  0.00  0.00    +0.041 A 
ATOM      5  C   UNL     1      -5.671  -1.612   0.018  0.00  0.00    +0.023 A 
ATOM      6  C   UNL     1      -4.589  -0.754   0.018  0.00  0.00    +0.047 A 
ATOM      7  C   UNL     1      -3.299  -1.265   0.009  0.00  0.00    +0.122 A 
ATOM      8 CL   UNL     1      -6.832  -4.058   0.008  0.00  0.00    -0.084 Cl
BRANCH   7   9
ATOM      9  O   UNL     1      -2.233  -0.422   0.009  0.00  0.00    -0.487 OA
BRANCH   9  10
ATOM     10  C   UNL     1      -2.514   0.979   0.019  0.00  0.00    +0.266 C 
BRANCH  10  11
ATOM     11  C   UNL     1      -1.219   1.750   0.017  0.00  0.00    +0.008 A 
ATOM     12  C   UNL     1      -0.013   1.076   0.008  0.00  0.00    +0.010 A 
ATOM     13  C   UNL     1       1.175   1.783   0.000  0.00  0.00    +0.020 A 
ATOM     14  C   UNL     1       1.157   3.166   0.008  0.00  0.00    +0.042 A 
ATOM     15  C   UNL     1      -0.050   3.842   0.023  0.00  0.00    +0.040 A 
ATOM     16  C   UNL     1      -1.238   3.134   0.031  0.00  0.00    +0.049 A 
ATOM     17 CL   UNL     1      -2.754   3.981   0.049  0.00  0.00    -0.083 Cl
ATOM     18 CL   UNL     1       2.648   4.054  -0.001  0.00  0.00    -0.083 Cl
ENDBRANCH  10  11
ENDBRANCH   9  10
ENDBRANCH   7   9
ENDBRANCH   1   2
BRANCH   1  19
ATOM     19  N   UNL     1      -1.151  -3.163   1.348  0.00  0.00    +0.383 N 
ATOM     20  H   UNL     1      -1.135  -2.193   1.683  0.00  0.00    -0.085 HD
ATOM     21  H   UNL     1      -1.745  -3.729   1.964  0.00  0.00    -0.085 HD
BRANCH  19  22
ATOM     22  C   UNL     1       0.221  -3.704   1.362  0.00  0.00    -0.063 C 
BRANCH  22  23
ATOM     23  C   UNL     1       0.763  -3.658   2.792  0.00  0.00    +0.082 C 
BRANCH  23  24
ATOM     24  N   UNL     1       2.127  -4.194   2.815  0.00  0.00    -0.346 N 
ATOM     25  H   UNL     1       2.538  -4.508   1.995  0.00  0.00    +0.146 HD
BRANCH  24  31
ATOM     26  C   UNL     1       2.247  -3.801   5.193  0.00  0.00    +0.025 A 
ATOM     27  C   UNL     1       2.947  -3.866   6.382  0.00  0.00    +0.034 A 
ATOM     28  C   UNL     1       4.233  -4.373   6.402  0.00  0.00    +0.126 A 
ATOM     29  C   UNL     1       4.822  -4.821   5.234  0.00  0.00    +0.034 A 
ATOM     30  C   UNL     1       4.126  -4.763   4.042  0.00  0.00    +0.025 A 
ATOM     31  C   UNL     1       2.833  -4.254   4.018  0.00  0.00    +0.027 A 
BRANCH  28  32
ATOM     32  N   UNL     1       4.982  -4.437   7.677  0.00  0.00    +0.056 N 
ATOM     33  O   UNL     1       6.115  -4.883   7.697  0.00  0.00    -0.126 OA
ATOM     34  O   UNL     1       4.465  -4.043   8.707  0.00  0.00    -0.126 OA
ENDBRANCH  28  32
ENDBRANCH  24  31
ENDBRANCH  23  24
ENDBRANCH  22  23
ENDBRANCH  19  22
ENDBRANCH   1  19
TORSDOF 10
