REMARK  Name = ZINC39325270
REMARK  13 active torsions:
REMARK  status: ('A' for Active; 'I' for Inactive)
REMARK    1  A    between atoms: C_1  and  C_2
REMARK    2  A    between atoms: C_2  and  O_3
REMARK    3  A    between atoms: O_3  and  C_4
REMARK    4  A    between atoms: C_4  and  C_6
REMARK    5  A    between atoms: C_10  and  S_14
REMARK    6  A    between atoms: C_11  and  C_12
REMARK    7  A    between atoms: S_14  and  C_15
REMARK    8  A    between atoms: C_15  and  C_16
REMARK    9  A    between atoms: N_18  and  C_19
REMARK   10  A    between atoms: C_20  and  C_28
REMARK   11  A    between atoms: C_28  and  O_30
REMARK   12  A    between atoms: O_30  and  C_31
REMARK   13  A    between atoms: C_31  and  C_32
REMARK                            x       y       z     vdW  Elec       q    Type
REMARK                         _______ _______ _______ _____ _____    ______ ____
ROOT
ATOM      1  C   UNL     1       1.856  -4.118  -7.419  0.00  0.00    +0.172 C 
ENDROOT
BRANCH   1   2
ATOM      2  C   UNL     1       1.245  -4.459  -8.753  0.00  0.00    +0.228 C 
ATOM      3  O   UNL     1       0.058  -4.292  -8.937  0.00  0.00    -0.275 OA
ATOM      4  N   UNL     1       2.017  -4.950  -9.742  0.00  0.00    -0.279 N 
ATOM      5  H   UNL     1       2.967  -5.084  -9.596  0.00  0.00    +0.155 HD
BRANCH   4   6
ATOM      6  C   UNL     1       1.455  -5.264 -10.970  0.00  0.00    +0.086 A 
ATOM      7  C   UNL     1       2.088  -5.779 -12.091  0.00  0.00    +0.091 A 
ATOM      8  C   UNL     1       1.266  -6.022 -13.264  0.00  0.00    -0.021 A 
ATOM      9  C   UNL     1      -0.037  -5.706 -13.101  0.00  0.00    -0.004 A 
ATOM     10  S   UNL     1      -0.151  -5.114 -11.439  0.00  0.00    -0.077 S 
ATOM     11  C   UNL     1      -1.129  -5.839 -14.118  0.00  0.00    +0.043 C 
ATOM     12  C   UNL     1      -0.482  -6.035 -15.497  0.00  0.00    +0.005 C 
ATOM     13  C   UNL     1       0.599  -7.114 -15.389  0.00  0.00    +0.005 C 
ATOM     14  C   UNL     1       1.785  -6.584 -14.580  0.00  0.00    +0.037 C 
BRANCH   7  15
ATOM     15  C   UNL     1       3.524  -6.065 -12.093  0.00  0.00    +0.342 C 
ATOM     16  O   UNL     1       3.926  -7.162 -11.755  0.00  0.00    -0.245 OA
BRANCH  15  17
ATOM     17  O   UNL     1       4.401  -5.112 -12.470  0.00  0.00    -0.461 OA
BRANCH  17  18
ATOM     18  C   UNL     1       5.787  -5.461 -12.448  0.00  0.00    +0.229 C 
ATOM     19  C   UNL     1       6.622  -4.262 -12.903  0.00  0.00    +0.048 C 
ENDBRANCH  17  18
ENDBRANCH  15  17
ENDBRANCH   7  15
ENDBRANCH   4   6
ENDBRANCH   1   2
BRANCH   1  20
ATOM     20  S   UNL     1       0.569  -3.486  -6.308  0.00  0.00    -0.095 S 
BRANCH  20  25
ATOM     21  C   UNL     1       1.456  -2.348  -2.529  0.00  0.00    +0.084 A 
ATOM     22  C   UNL     1       2.833  -2.608  -2.511  0.00  0.00    -0.011 A 
ATOM     23  C   UNL     1       3.438  -3.122  -3.637  0.00  0.00    +0.047 A 
ATOM     24  N   UNL     1       2.729  -3.363  -4.733  0.00  0.00    -0.244 NA
ATOM     25  C   UNL     1       1.431  -3.137  -4.811  0.00  0.00    +0.116 A 
ATOM     26  C   UNL     1       0.732  -2.626  -3.704  0.00  0.00    +0.098 A 
ATOM     27  C   UNL     1       4.911  -3.443  -3.683  0.00  0.00    +0.056 C 
ATOM     28  C   UNL     1       5.652  -2.727  -2.556  0.00  0.00    +0.006 C 
ATOM     29  C   UNL     1       4.934  -3.027  -1.235  0.00  0.00    +0.005 C 
ATOM     30  C   UNL     1       3.588  -2.304  -1.245  0.00  0.00    +0.038 C 
BRANCH  21  31
ATOM     31  C   UNL     1       0.776  -1.798  -1.335  0.00  0.00    +0.341 C 
ATOM     32  O   UNL     1       0.312  -2.549  -0.500  0.00  0.00    -0.245 OA
BRANCH  31  33
ATOM     33  O   UNL     1       0.671  -0.465  -1.174  0.00  0.00    -0.461 OA
BRANCH  33  35
ATOM     34  C   UNL     1      -0.019   1.526   0.010  0.00  0.00    +0.048 C 
ATOM     35  C   UNL     1       0.002  -0.004   0.002  0.00  0.00    +0.229 C 
ENDBRANCH  33  35
ENDBRANCH  31  33
ENDBRANCH  21  31
BRANCH  26  36
ATOM     36  C   UNL     1      -0.679  -2.390  -3.770  0.00  0.00    +0.103 C 
ATOM     37  N   UNL     1      -1.798  -2.202  -3.824  0.00  0.00    -0.191 NA
ENDBRANCH  26  36
ENDBRANCH  20  25
ENDBRANCH   1  20
TORSDOF 11
