REMARK  Name = ZINC01068712
REMARK  7 active torsions:
REMARK  status: ('A' for Active; 'I' for Inactive)
REMARK    1  A    between atoms: C_1  and  C_2
REMARK    2  A    between atoms: C_3  and  C_11
REMARK    3  A    between atoms: C_7  and  N_8
REMARK    4  A    between atoms: C_14  and  C_16
REMARK    5  A    between atoms: C_18  and  C_31
REMARK    6  A    between atoms: C_19  and  C_30
REMARK    7  A    between atoms: N_33  and  C_34
REMARK                            x       y       z     vdW  Elec       q    Type
REMARK                         _______ _______ _______ _____ _____    ______ ____
ROOT
ATOM      1  C   UNL     1      -3.698   2.534  -4.531  0.00  0.00    +0.193 C 
ATOM      2  C   UNL     1      -3.550   4.025  -4.671  0.00  0.00    +0.061 C 
ATOM      3  C   UNL     1      -4.591   4.868  -4.694  0.00  0.00    +0.018 C 
ATOM      4  N   UNL     1      -5.889   4.435  -4.579  0.00  0.00    -0.290 N 
ATOM      5  C   UNL     1      -6.096   3.128  -4.163  0.00  0.00    +0.179 A 
ATOM      6  N   UNL     1      -5.068   2.212  -4.129  0.00  0.00    -0.298 N 
ATOM      7  C   UNL     1      -5.591   1.037  -3.673  0.00  0.00    +0.069 A 
ATOM      8  C   UNL     1      -5.037  -0.215  -3.433  0.00  0.00    +0.028 A 
ATOM      9  C   UNL     1      -5.887  -1.201  -2.960  0.00  0.00    +0.002 A 
ATOM     10  C   UNL     1      -7.232  -0.964  -2.731  0.00  0.00    +0.002 A 
ATOM     11  C   UNL     1      -7.808   0.272  -2.961  0.00  0.00    +0.028 A 
ATOM     12  C   UNL     1      -6.968   1.284  -3.440  0.00  0.00    +0.066 A 
ATOM     13  N   UNL     1      -7.205   2.570  -3.760  0.00  0.00    -0.327 N 
ATOM     14  C   UNL     1      -4.328   6.343  -4.851  0.00  0.00    +0.061 C 
ATOM     15  H   UNL     1      -6.634   5.022  -4.782  0.00  0.00    +0.155 HD
ATOM     16  H   UNL     1      -8.066   3.013  -3.698  0.00  0.00    +0.169 HD
ENDROOT
BRANCH   1  20
ATOM     17  C   UNL     1      -1.772   1.696  -1.541  0.00  0.00    +0.136 A 
ATOM     18  C   UNL     1      -1.060   0.999  -2.466  0.00  0.00    +0.050 A 
ATOM     19  C   UNL     1      -1.686   1.219  -3.710  0.00  0.00    +0.048 A 
ATOM     20  C   UNL     1      -2.737   2.031  -3.485  0.00  0.00    +0.133 A 
ATOM     21  O   UNL     1      -2.790   2.312  -2.173  0.00  0.00    -0.457 OA
BRANCH  17  24
ATOM     22  C   UNL     1      -1.654   4.267  -0.219  0.00  0.00    +0.047 C 
ATOM     23  C   UNL     1      -1.425   2.995   0.556  0.00  0.00    -0.010 A 
ATOM     24  C   UNL     1      -1.484   1.760  -0.093  0.00  0.00    +0.022 A 
ATOM     25  C   UNL     1      -1.270   0.587   0.632  0.00  0.00    +0.012 A 
ATOM     26  C   UNL     1      -1.002   0.654   1.983  0.00  0.00    +0.003 A 
ATOM     27  C   UNL     1      -0.945   1.881   2.620  0.00  0.00    +0.033 A 
ATOM     28  C   UNL     1      -1.151   3.048   1.907  0.00  0.00    +0.130 A 
BRANCH  28  29
ATOM     29  N   UNL     1      -1.082   4.356   2.595  0.00  0.00    +0.057 N 
ATOM     30  O   UNL     1      -0.577   5.305   2.041  0.00  0.00    -0.126 OA
ATOM     31  O   UNL     1      -1.530   4.476   3.711  0.00  0.00    -0.126 OA
ENDBRANCH  28  29
ENDBRANCH  17  24
ENDBRANCH   1  20
BRANCH   2  32
ATOM     32  C   UNL     1      -2.246   4.563  -4.783  0.00  0.00    +0.248 C 
ATOM     33  O   UNL     1      -1.570   4.733  -3.784  0.00  0.00    -0.270 OA
ATOM     34  N   UNL     1      -1.753   4.888  -5.994  0.00  0.00    -0.282 N 
ATOM     35  H   UNL     1      -2.325   4.849  -6.777  0.00  0.00    +0.155 HD
BRANCH  34  36
ATOM     36  C   UNL     1      -0.417   5.280  -6.123  0.00  0.00    +0.034 A 
ATOM     37  C   UNL     1       0.557   4.710  -5.314  0.00  0.00    +0.023 A 
ATOM     38  C   UNL     1       1.875   5.099  -5.444  0.00  0.00    +0.002 A 
ATOM     39  C   UNL     1       2.226   6.057  -6.378  0.00  0.00    +0.000 A 
ATOM     40  C   UNL     1       1.259   6.627  -7.185  0.00  0.00    +0.002 A 
ATOM     41  C   UNL     1      -0.061   6.237  -7.064  0.00  0.00    +0.023 A 
ENDBRANCH  34  36
ENDBRANCH   2  32
TORSDOF 5
