REMARK  Name = ZINC39636127
REMARK  9 active torsions:
REMARK  status: ('A' for Active; 'I' for Inactive)
REMARK    1  A    between atoms: C_1  and  C_2
REMARK    2  A    between atoms: C_8  and  N_10
REMARK    3  A    between atoms: C_11  and  C_13
REMARK    4  A    between atoms: C_24  and  C_26
REMARK    5  A    between atoms: C_26  and  C_28
REMARK    6  A    between atoms: C_26  and  O_31
REMARK    7  A    between atoms: C_28  and  C_29
REMARK    8  A    between atoms: C_28  and  C_30
REMARK    9  A    between atoms: O_31  and  C_32
REMARK                            x       y       z     vdW  Elec       q    Type
REMARK                         _______ _______ _______ _____ _____    ______ ____
ROOT
ATOM      1  C   UNL     1      -0.240   0.236   5.361  0.00  0.00    +0.100 C 
ATOM      2  C   UNL     1      -0.699   1.639   4.906  0.00  0.00    +0.121 C 
ATOM      3  N   UNL     1      -0.143   2.563   5.923  0.00  0.00    -0.297 N 
ATOM      4  C   UNL     1       1.203   2.018   6.219  0.00  0.00    +0.115 C 
ATOM      5  C   UNL     1       1.009   0.489   6.222  0.00  0.00    -0.004 C 
ATOM      6  C   UNL     1       0.780  -0.011   7.645  0.00  0.00    -0.010 C 
ATOM      7  C   UNL     1       2.055   0.200   8.466  0.00  0.00    -0.082 C 
ATOM      8  N   UNL     1       3.167  -0.529   7.843  0.00  0.00    +0.379 N 
ATOM      9  C   UNL     1       3.441   0.021   6.510  0.00  0.00    -0.082 C 
ATOM     10  C   UNL     1       2.224  -0.198   5.606  0.00  0.00    -0.010 C 
ATOM     11  C   UNL     1      -0.730   3.652   6.457  0.00  0.00    +0.257 C 
ATOM     12  O   UNL     1      -0.106   4.369   7.211  0.00  0.00    -0.272 OA
ATOM     13  H   UNL     1       3.991  -0.438   8.419  0.00  0.00    -0.086 HD
ATOM     14  H   UNL     1       2.923  -1.504   7.760  0.00  0.00    -0.086 HD
ENDROOT
BRANCH   1  16
ATOM     15  N   UNL     1       0.108  -1.958   4.273  0.00  0.00    -0.312 N 
ATOM     16  C   UNL     1       0.110  -0.615   4.167  0.00  0.00    +0.218 C 
ATOM     17  O   UNL     1       0.392  -0.090   3.111  0.00  0.00    -0.275 OA
ATOM     18  H   UNL     1      -0.118  -2.378   5.118  0.00  0.00    +0.149 HD
BRANCH  15  25
ATOM     19  C   UNL     1      -1.718  -4.009   3.350  0.00  0.00    +0.009 C 
ATOM     20  C   UNL     1      -0.199  -4.164   3.262  0.00  0.00    +0.006 C 
ATOM     21  C   UNL     1       0.156  -5.028   2.050  0.00  0.00    +0.005 C 
ATOM     22  C   UNL     1       1.676  -5.183   1.962  0.00  0.00    +0.000 C 
ATOM     23  C   UNL     1       2.322  -3.804   1.812  0.00  0.00    +0.002 C 
ATOM     24  C   UNL     1       1.967  -2.941   3.024  0.00  0.00    +0.022 C 
ATOM     25  C   UNL     1       0.447  -2.785   3.112  0.00  0.00    +0.076 C 
ENDBRANCH  15  25
ENDBRANCH   1  16
BRANCH  11  26
ATOM     26  C   UNL     1      -2.161   3.981   6.118  0.00  0.00    +0.261 C 
BRANCH  26  27
ATOM     27  C   UNL     1      -3.094   3.264   7.096  0.00  0.00    +0.033 C 
ATOM     28  C   UNL     1      -4.537   3.703   6.839  0.00  0.00    +0.011 C 
ATOM     29  C   UNL     1      -2.978   1.751   6.896  0.00  0.00    +0.011 C 
ENDBRANCH  26  27
BRANCH  26  30
ATOM     30  O   UNL     1      -2.362   5.392   6.215  0.00  0.00    -0.479 OA
BRANCH  30  31
ATOM     31  C   UNL     1      -3.219   5.956   5.324  0.00  0.00    +0.122 A 
ATOM     32  C   UNL     1      -3.471   7.320   5.370  0.00  0.00    +0.045 A 
ATOM     33  C   UNL     1      -4.342   7.891   4.463  0.00  0.00    +0.004 A 
ATOM     34  C   UNL     1      -4.962   7.105   3.509  0.00  0.00    +0.000 A 
ATOM     35  C   UNL     1      -4.712   5.746   3.461  0.00  0.00    +0.004 A 
ATOM     36  C   UNL     1      -3.837   5.171   4.362  0.00  0.00    +0.045 A 
ENDBRANCH  30  31
ENDBRANCH  26  30
ENDBRANCH  11  26
TORSDOF 6
