REMARK  Name = ZINC46773170
REMARK  6 active torsions:
REMARK  status: ('A' for Active; 'I' for Inactive)
REMARK    1  A    between atoms: C_1  and  C_2
REMARK    2  A    between atoms: C_16  and  C_17
REMARK    3  A    between atoms: N_19  and  N_20
REMARK    4  A    between atoms: N_20  and  C_21
REMARK    5  A    between atoms: C_21  and  N_23
REMARK    6  A    between atoms: N_23  and  C_24
REMARK                            x       y       z     vdW  Elec       q    Type
REMARK                         _______ _______ _______ _____ _____    ______ ____
ROOT
ATOM      1  C   UNL     1      -0.029  -0.214   2.514  0.00  0.00    +0.267 C 
ATOM      2  O   UNL     1       0.180   0.975   2.668  0.00  0.00    -0.268 OA
ATOM      3  N   UNL     1       0.009  -1.047   3.573  0.00  0.00    -0.231 N 
ATOM      4  H   UNL     1      -0.158  -1.994   3.451  0.00  0.00    +0.173 HD
ENDROOT
BRANCH   1  20
ATOM      5  C   UNL     1      -0.178   1.426  -0.040  0.00  0.00    +0.046 C 
ATOM      6  C   UNL     1      -0.404  -0.064  -0.005  0.00  0.00    -0.017 A 
ATOM      7  C   UNL     1      -0.692  -0.756  -1.183  0.00  0.00    +0.076 A 
ATOM      8  C   UNL     1      -0.890  -2.149  -1.046  0.00  0.00    +0.116 A 
ATOM      9  N   UNL     1      -1.173  -2.921  -2.087  0.00  0.00    -0.226 NA
ATOM     10  C   UNL     1      -1.290  -2.437  -3.291  0.00  0.00    +0.114 A 
ATOM     11  N   UNL     1      -1.119  -1.108  -3.547  0.00  0.00    -0.296 N 
ATOM     12  C   UNL     1      -0.823  -0.239  -2.565  0.00  0.00    +0.263 A 
ATOM     13  O   UNL     1      -0.665   0.945  -2.805  0.00  0.00    -0.267 OA
ATOM     14  C   UNL     1      -1.268  -0.642  -4.933  0.00  0.00    +0.126 C 
ATOM     15  C   UNL     1      -2.749  -0.643  -5.304  0.00  0.00    +0.022 C 
ATOM     16  C   UNL     1      -3.168  -1.982  -5.887  0.00  0.00    +0.002 C 
ATOM     17  C   UNL     1      -3.073  -3.105  -4.870  0.00  0.00    +0.008 C 
ATOM     18  C   UNL     1      -1.625  -3.347  -4.451  0.00  0.00    +0.074 C 
ATOM     19  S   UNL     1      -0.664  -2.423   0.693  0.00  0.00    -0.064 S 
ATOM     20  C   UNL     1      -0.322  -0.740   1.177  0.00  0.00    +0.081 A 
ENDBRANCH   1  20
BRANCH   3  21
ATOM     21  N   UNL     1       0.289  -0.544   4.850  0.00  0.00    -0.245 N 
ATOM     22  H   UNL     1       0.456   0.404   4.973  0.00  0.00    +0.172 HD
BRANCH  21  23
ATOM     23  C   UNL     1       0.327  -1.377   5.909  0.00  0.00    +0.151 C 
ATOM     24  S   UNL     1       0.670  -0.763   7.470  0.00  0.00    -0.017 S 
BRANCH  23  25
ATOM     25  N   UNL     1       0.096  -2.694   5.739  0.00  0.00    -0.295 N 
ATOM     26  H   UNL     1      -0.160  -3.033   4.867  0.00  0.00    +0.154 HD
BRANCH  25  27
ATOM     27  C   UNL     1       0.224  -3.573   6.821  0.00  0.00    +0.051 A 
ATOM     28  C   UNL     1      -0.360  -3.262   8.042  0.00  0.00    +0.026 A 
ATOM     29  C   UNL     1      -0.232  -4.131   9.108  0.00  0.00    +0.022 A 
ATOM     30  C   UNL     1       0.477  -5.311   8.961  0.00  0.00    +0.042 A 
ATOM     31  C   UNL     1       1.060  -5.623   7.746  0.00  0.00    +0.041 A 
ATOM     32  C   UNL     1       0.931  -4.760   6.674  0.00  0.00    +0.063 A 
ATOM     33 CL   UNL     1       1.656  -5.155   5.147  0.00  0.00    -0.082 Cl
ATOM     34 CL   UNL     1       0.635  -6.400  10.303  0.00  0.00    -0.083 Cl
ENDBRANCH  25  27
ENDBRANCH  23  25
ENDBRANCH  21  23
ENDBRANCH   3  21
TORSDOF 5
