REMARK  Name = ZINC35711914
REMARK  10 active torsions:
REMARK  status: ('A' for Active; 'I' for Inactive)
REMARK    1  A    between atoms: C_1  and  C_2
REMARK    2  A    between atoms: C_2  and  C_3
REMARK    3  A    between atoms: C_3  and  N_4
REMARK    4  A    between atoms: C_5  and  C_34
REMARK    5  A    between atoms: C_6  and  C_30
REMARK    6  A    between atoms: C_7  and  C_12
REMARK    7  A    between atoms: C_15  and  N_18
REMARK    8  A    between atoms: N_21  and  C_22
REMARK    9  A    between atoms: C_30  and  O_32
REMARK   10  A    between atoms: O_32  and  C_33
REMARK                            x       y       z     vdW  Elec       q    Type
REMARK                         _______ _______ _______ _____ _____    ______ ____
ROOT
ATOM      1  C   UNL     1      -0.251  -5.471  -0.112  0.00  0.00    -0.022 A 
ATOM      2  C   UNL     1       1.002  -4.912   0.062  0.00  0.00    +0.007 A 
ATOM      3  C   UNL     1       2.135  -5.676  -0.144  0.00  0.00    +0.024 A 
ATOM      4  C   UNL     1       2.014  -7.005  -0.528  0.00  0.00    +0.035 A 
ATOM      5  C   UNL     1       0.754  -7.562  -0.702  0.00  0.00    +0.024 A 
ATOM      6  C   UNL     1      -0.375  -6.795  -0.488  0.00  0.00    +0.007 A 
ENDROOT
BRANCH   1  10
ATOM      7  N   UNL     1      -1.579  -1.874   0.254  0.00  0.00    -0.259 N 
ATOM      8  C   UNL     1      -1.745  -2.450  -0.973  0.00  0.00    +0.024 C 
ATOM      9  C   UNL     1      -1.712  -3.792  -1.123  0.00  0.00    +0.078 C 
ATOM     10  C   UNL     1      -1.484  -4.635   0.115  0.00  0.00    +0.143 C 
ATOM     11  N   UNL     1      -1.317  -3.916   1.389  0.00  0.00    -0.288 N 
ATOM     12  C   UNL     1      -1.371  -2.570   1.379  0.00  0.00    +0.307 C 
ATOM     13  O   UNL     1      -1.230  -1.967   2.425  0.00  0.00    -0.252 OA
ATOM     14  C   UNL     1      -1.968  -1.574  -2.179  0.00  0.00    +0.061 C 
ATOM     15  H   UNL     1      -1.168  -4.401   2.217  0.00  0.00    +0.151 HD
BRANCH   9  16
ATOM     16  C   UNL     1      -1.884  -4.390  -2.394  0.00  0.00    +0.339 C 
ATOM     17  O   UNL     1      -2.066  -3.693  -3.375  0.00  0.00    -0.245 OA
BRANCH  16  18
ATOM     18  O   UNL     1      -1.847  -5.733  -2.518  0.00  0.00    -0.465 OA
ATOM     19  C   UNL     1      -2.028  -6.269  -3.830  0.00  0.00    +0.280 C 
ENDBRANCH  16  18
ENDBRANCH   9  16
BRANCH   7  20
ATOM     20  C   UNL     1      -1.627  -0.413   0.344  0.00  0.00    +0.114 C 
BRANCH  20  22
ATOM     21  C   UNL     1      -3.132   1.571   0.544  0.00  0.00    +0.005 C 
ATOM     22  C   UNL     1      -3.083   0.045   0.450  0.00  0.00    +0.016 C 
ENDBRANCH  20  22
ENDBRANCH   7  20
ENDBRANCH   1  10
BRANCH   4  23
ATOM     23  N   UNL     1       3.159  -7.781  -0.739  0.00  0.00    -0.269 N 
ATOM     24  C   UNL     1       4.252  -7.591   0.027  0.00  0.00    +0.308 C 
ATOM     25  O   UNL     1       4.271  -6.695   0.848  0.00  0.00    -0.252 OA
ATOM     26  N   UNL     1       5.324  -8.395  -0.118  0.00  0.00    -0.268 N 
ATOM     27  H   UNL     1       3.166  -8.455  -1.436  0.00  0.00    +0.156 HD
ATOM     28  H   UNL     1       5.342  -9.056  -0.828  0.00  0.00    +0.156 HD
BRANCH  26  29
ATOM     29  C   UNL     1       6.411  -8.276   0.756  0.00  0.00    +0.053 A 
ATOM     30  C   UNL     1       6.202  -7.931   2.084  0.00  0.00    +0.026 A 
ATOM     31  C   UNL     1       7.276  -7.814   2.944  0.00  0.00    +0.022 A 
ATOM     32  C   UNL     1       8.561  -8.041   2.484  0.00  0.00    +0.042 A 
ATOM     33  C   UNL     1       8.774  -8.385   1.161  0.00  0.00    +0.041 A 
ATOM     34  C   UNL     1       7.702  -8.509   0.297  0.00  0.00    +0.064 A 
ATOM     35 CL   UNL     1       7.968  -8.948  -1.361  0.00  0.00    -0.082 Cl
ATOM     36 CL   UNL     1       9.909  -7.892   3.568  0.00  0.00    -0.083 Cl
ENDBRANCH  26  29
ENDBRANCH   4  23
TORSDOF 7
