REMARK  Name = ZINC23706137
REMARK  10 active torsions:
REMARK  status: ('A' for Active; 'I' for Inactive)
REMARK    1  A    between atoms: C_1  and  C_2
REMARK    2  A    between atoms: C_2  and  C_23
REMARK    3  A    between atoms: N_5  and  N_9
REMARK    4  A    between atoms: C_10  and  C_12
REMARK    5  A    between atoms: C_12  and  N_13
REMARK    6  A    between atoms: N_13  and  C_14
REMARK    7  A    between atoms: N_13  and  C_15
REMARK    8  A    between atoms: C_15  and  C_16
REMARK    9  A    between atoms: C_23  and  C_24
REMARK   10  A    between atoms: C_24  and  C_25
REMARK                            x       y       z     vdW  Elec       q    Type
REMARK                         _______ _______ _______ _____ _____    ______ ____
ROOT
ATOM      1  C   UNL     1      -0.690  -0.545  -1.251  0.00  0.00    +0.041 C 
ATOM      2  C   UNL     1       0.002  -0.004   0.002  0.00  0.00    +0.112 C 
ATOM      3  C   UNL     1       1.480  -0.340  -0.014  0.00  0.00    +0.263 C 
ATOM      4  O   UNL     1       1.980  -1.445  -0.025  0.00  0.00    -0.271 OA
ATOM      5  N   UNL     1       2.123   0.844  -0.014  0.00  0.00    -0.137 N 
ATOM      6  C   UNL     1       1.266   1.871   0.000  0.00  0.00    +0.326 C 
ATOM      7  O   UNL     1       1.608   3.037   0.003  0.00  0.00    -0.251 OA
ATOM      8  N   UNL     1      -0.018   1.469   0.010  0.00  0.00    -0.284 N 
ATOM      9  H   UNL     1      -0.978   2.006   0.022  0.00  0.00    +0.151 HD
ENDROOT
BRANCH   5  10
ATOM     10  N   UNL     1       3.517   0.983  -0.027  0.00  0.00    -0.225 N 
ATOM     11  C   UNL     1       4.147   1.356  -1.158  0.00  0.00    +0.213 C 
ATOM     12  O   UNL     1       3.506   1.572  -2.165  0.00  0.00    -0.276 OA
ATOM     13  H   UNL     1       4.098   0.787   0.887  0.00  0.00    +0.173 HD
BRANCH  11  14
ATOM     14  C   UNL     1       5.646   1.506  -1.172  0.00  0.00    +0.020 C 
BRANCH  14  15
ATOM     15  N   UNL     1       6.085   1.918  -2.512  0.00  0.00    +0.386 N 
ATOM     16  C   UNL     1       5.597   3.266  -2.834  0.00  0.00    -0.095 C 
ATOM     17  H   UNL     1       5.650   1.218  -3.240  0.00  0.00    -0.081 HD
BRANCH  15  18
ATOM     18  C   UNL     1       7.547   1.845  -2.633  0.00  0.00    -0.042 C 
BRANCH  18  19
ATOM     19  C   UNL     1       7.942   2.034  -4.075  0.00  0.00    -0.050 A 
ATOM     20  C   UNL     1       8.492   3.233  -4.490  0.00  0.00    +0.003 A 
ATOM     21  C   UNL     1       8.855   3.406  -5.812  0.00  0.00    +0.000 A 
ATOM     22  C   UNL     1       8.668   2.381  -6.721  0.00  0.00    +0.001 A 
ATOM     23  C   UNL     1       8.117   1.183  -6.308  0.00  0.00    +0.015 A 
ATOM     24  C   UNL     1       7.759   1.007  -4.983  0.00  0.00    +0.019 A 
ATOM     25 BR   UNL     1       7.012  -0.635  -4.415  0.00  0.00    -0.050 Br
ENDBRANCH  18  19
ENDBRANCH  15  18
ENDBRANCH  14  15
ENDBRANCH  11  14
ENDBRANCH   5  10
BRANCH   2  26
ATOM     26  C   UNL     1      -0.662  -0.558   1.264  0.00  0.00    +0.040 C 
BRANCH  26  27
ATOM     27  C   UNL     1      -2.125  -0.113   1.308  0.00  0.00    +0.038 C 
BRANCH  27  28
ATOM     28  C   UNL     1      -2.780  -0.659   2.550  0.00  0.00    -0.047 A 
ATOM     29  C   UNL     1      -3.403  -1.892   2.518  0.00  0.00    +0.003 A 
ATOM     30  C   UNL     1      -4.000  -2.395   3.659  0.00  0.00    +0.000 A 
ATOM     31  C   UNL     1      -3.982  -1.660   4.830  0.00  0.00    +0.000 A 
ATOM     32  C   UNL     1      -3.362  -0.424   4.861  0.00  0.00    +0.000 A 
ATOM     33  C   UNL     1      -2.762   0.076   3.721  0.00  0.00    +0.003 A 
ENDBRANCH  27  28
ENDBRANCH  26  27
ENDBRANCH   2  26
TORSDOF 8
