REMARK  Name = ZINC39753244
REMARK  11 active torsions:
REMARK  status: ('A' for Active; 'I' for Inactive)
REMARK    1  A    between atoms: C_1  and  C_2
REMARK    2  A    between atoms: C_5  and  N_8
REMARK    3  A    between atoms: C_9  and  C_11
REMARK    4  A    between atoms: C_11  and  C_13
REMARK    5  A    between atoms: C_11  and  S_14
REMARK    6  A    between atoms: S_14  and  C_15
REMARK    7  A    between atoms: C_18  and  C_21
REMARK    8  A    between atoms: N_19  and  C_20
REMARK    9  A    between atoms: C_21  and  C_23
REMARK   10  A    between atoms: C_21  and  N_24
REMARK   11  A    between atoms: C_25  and  C_27
REMARK                            x       y       z     vdW  Elec       q    Type
REMARK                         _______ _______ _______ _____ _____    ______ ____
ROOT
ATOM      1  C   UNL     1       1.250  -8.642   2.462  0.00  0.00    +0.192 A 
ATOM      2  N   UNL     1       0.962  -9.331   1.383  0.00  0.00    -0.122 NA
ATOM      3  N   UNL     1       1.256 -10.569   1.563  0.00  0.00    -0.132 NA
ATOM      4  C   UNL     1       1.746 -10.743   2.758  0.00  0.00    +0.154 A 
ATOM      5  N   UNL     1       1.765  -9.521   3.372  0.00  0.00    -0.308 N 
ATOM      6  C   UNL     1       2.237  -9.218   4.725  0.00  0.00    +0.152 C 
ENDROOT
BRANCH   4   7
ATOM      7  C   UNL     1       2.211 -12.048   3.351  0.00  0.00    +0.138 C 
ATOM      8  C   UNL     1       0.996 -12.899   3.726  0.00  0.00    +0.036 C 
BRANCH   7   9
ATOM      9  N   UNL     1       3.027 -12.767   2.370  0.00  0.00    -0.302 N 
ATOM     10  C   UNL     1       3.945 -13.663   2.785  0.00  0.00    +0.245 C 
ATOM     11  O   UNL     1       4.096 -13.874   3.972  0.00  0.00    -0.270 OA
ATOM     12  H   UNL     1       2.907 -12.599   1.423  0.00  0.00    +0.150 HD
BRANCH  10  13
ATOM     13  C   UNL     1       4.769 -14.389   1.795  0.00  0.00    +0.038 A 
ATOM     14  C   UNL     1       4.602 -14.144   0.430  0.00  0.00    +0.014 A 
ATOM     15  C   UNL     1       5.373 -14.824  -0.489  0.00  0.00    +0.022 A 
ATOM     16  C   UNL     1       6.311 -15.748  -0.061  0.00  0.00    +0.059 A 
ATOM     17  C   UNL     1       6.482 -15.996   1.292  0.00  0.00    +0.060 A 
ATOM     18  C   UNL     1       5.720 -15.317   2.221  0.00  0.00    +0.034 A 
ATOM     19 CL   UNL     1       7.660 -17.157   1.819  0.00  0.00    -0.082 Cl
ATOM     20 CL   UNL     1       7.278 -16.601  -1.225  0.00  0.00    -0.082 Cl
ENDBRANCH  10  13
ENDBRANCH   7   9
ENDBRANCH   4   7
BRANCH   1  21
ATOM     21  S   UNL     1       1.023  -6.910   2.692  0.00  0.00    -0.074 S 
BRANCH  21  22
ATOM     22  C   UNL     1       0.309  -6.349   1.121  0.00  0.00    +0.137 C 
ATOM     23  C   UNL     1      -1.072  -6.982   0.934  0.00  0.00    +0.029 C 
BRANCH  22  25
ATOM     24  N   UNL     1       0.059  -4.170  -0.021  0.00  0.00    -0.285 N 
ATOM     25  C   UNL     1       0.175  -4.848   1.138  0.00  0.00    +0.230 C 
ATOM     26  O   UNL     1       0.173  -4.251   2.193  0.00  0.00    -0.274 OA
ATOM     27  H   UNL     1      -0.017  -4.651  -0.860  0.00  0.00    +0.155 HD
BRANCH  24  32
ATOM     28  C   UNL     1       0.008   1.503   0.007  0.00  0.00    +0.044 C 
ATOM     29  C   UNL     1       0.022  -0.004  -0.001  0.00  0.00    -0.050 A 
ATOM     30  C   UNL     1       0.777  -0.692   0.931  0.00  0.00    +0.005 A 
ATOM     31  C   UNL     1       0.791  -2.073   0.927  0.00  0.00    +0.023 A 
ATOM     32  C   UNL     1       0.046  -2.771  -0.014  0.00  0.00    +0.033 A 
ATOM     33  C   UNL     1      -0.712  -2.077  -0.948  0.00  0.00    +0.023 A 
ATOM     34  C   UNL     1      -0.726  -0.696  -0.936  0.00  0.00    +0.005 A 
ENDBRANCH  24  32
ENDBRANCH  22  25
ENDBRANCH  21  22
ENDBRANCH   1  21
TORSDOF 7
