REMARK  Name = ZINC12243291
REMARK  8 active torsions:
REMARK  status: ('A' for Active; 'I' for Inactive)
REMARK    1  A    between atoms: C_4  and  S_7
REMARK    2  A    between atoms: S_7  and  N_10
REMARK    3  A    between atoms: N_10  and  C_11
REMARK    4  A    between atoms: C_14  and  N_17
REMARK    5  A    between atoms: C_20  and  N_65
REMARK    6  A    between atoms: C_23  and  C_24
REMARK    7  A    between atoms: C_23  and  N_65
REMARK    8  A    between atoms: C_24  and  C_25
REMARK                            x       y       z     vdW  Elec       q    Type
REMARK                         _______ _______ _______ _____ _____    ______ ____
ROOT
ATOM      1  N   UNL     1       0.136  -3.971  -1.274  0.00  0.00    -0.330 N 
ATOM      2  C   UNL     1       0.588  -4.765  -0.125  0.00  0.00    +0.103 C 
ATOM      3  C   UNL     1       0.478  -6.255  -0.457  0.00  0.00    +0.003 C 
ATOM      4  C   UNL     1       1.339  -6.564  -1.685  0.00  0.00    -0.069 C 
ATOM      5  C   UNL     1       0.879  -5.689  -2.854  0.00  0.00    +0.003 C 
ATOM      6  C   UNL     1       0.978  -4.216  -2.453  0.00  0.00    +0.103 C 
ENDROOT
BRANCH   1  10
ATOM      7  C   UNL     1       0.025   0.090  -0.335  0.00  0.00    +0.048 A 
ATOM      8  C   UNL     1       0.765  -0.351  -1.424  0.00  0.00    +0.026 A 
ATOM      9  C   UNL     1       0.806  -1.696  -1.732  0.00  0.00    +0.025 A 
ATOM     10  C   UNL     1       0.098  -2.607  -0.959  0.00  0.00    +0.030 A 
ATOM     11  C   UNL     1      -0.646  -2.166   0.127  0.00  0.00    +0.025 A 
ATOM     12  C   UNL     1      -0.683  -0.821   0.438  0.00  0.00    +0.026 A 
BRANCH   7  13
ATOM     13  N   UNL     1      -0.011   1.453  -0.019  0.00  0.00    -0.216 N 
ATOM     14  H   UNL     1      -0.532   2.064  -0.565  0.00  0.00    +0.174 HD
BRANCH  13  15
ATOM     15  S   UNL     1       0.839   2.025   1.282  0.00  0.00    +0.072 S 
ATOM     16  O   UNL     1       0.648   3.433   1.305  0.00  0.00    -0.150 OA
ATOM     17  O   UNL     1       0.503   1.193   2.384  0.00  0.00    -0.150 OA
BRANCH  15  21
ATOM     18  C   UNL     1       5.228   1.327   0.424  0.00  0.00    +0.000 A 
ATOM     19  C   UNL     1       4.641   2.532   0.086  0.00  0.00    +0.002 A 
ATOM     20  C   UNL     1       3.300   2.745   0.348  0.00  0.00    +0.029 A 
ATOM     21  C   UNL     1       2.547   1.753   0.948  0.00  0.00    +0.108 A 
ATOM     22  C   UNL     1       3.136   0.551   1.291  0.00  0.00    +0.029 A 
ATOM     23  C   UNL     1       4.475   0.336   1.024  0.00  0.00    +0.002 A 
ENDBRANCH  15  21
ENDBRANCH  13  15
ENDBRANCH   7  13
ENDBRANCH   1  10
BRANCH   4  24
ATOM     24  N   UNL     1       1.187  -7.984  -2.051  0.00  0.00    +0.381 N 
ATOM     25  H   UNL     1       1.386  -8.099  -3.052  0.00  0.00    -0.086 HD
ATOM     26  H   UNL     1       0.223  -8.282  -1.858  0.00  0.00    -0.086 HD
BRANCH  24  27
ATOM     27  C   UNL     1       2.120  -8.818  -1.271  0.00  0.00    -0.079 C 
BRANCH  27  28
ATOM     28  C   UNL     1       1.939 -10.283  -1.672  0.00  0.00    +0.029 C 
BRANCH  28  29
ATOM     29  C   UNL     1       2.904 -11.155  -0.866  0.00  0.00    +0.209 C 
ATOM     30  C   UNL     1       2.795 -12.614  -1.331  0.00  0.00    +0.273 C 
ATOM     31  O   UNL     1       3.699 -13.402  -0.550  0.00  0.00    -0.485 OA
ATOM     32  C   UNL     1       3.689 -13.191   0.795  0.00  0.00    +0.162 A 
ATOM     33  C   UNL     1       4.254 -14.138   1.637  0.00  0.00    +0.049 A 
ATOM     34  C   UNL     1       4.255 -13.936   3.004  0.00  0.00    +0.004 A 
ATOM     35  C   UNL     1       3.694 -12.790   3.536  0.00  0.00    +0.004 A 
ATOM     36  C   UNL     1       3.129 -11.843   2.703  0.00  0.00    +0.049 A 
ATOM     37  C   UNL     1       3.123 -12.040   1.330  0.00  0.00    +0.162 A 
ATOM     38  O   UNL     1       2.561 -11.100   0.523  0.00  0.00    -0.482 OA
ENDBRANCH  28  29
ENDBRANCH  27  28
ENDBRANCH  24  27
ENDBRANCH   4  24
TORSDOF 8
