REMARK  Name = ZINC06085545
REMARK  9 active torsions:
REMARK  status: ('A' for Active; 'I' for Inactive)
REMARK    1  A    between atoms: C_1  and  C_2
REMARK    2  A    between atoms: C_2  and  C_3
REMARK    3  A    between atoms: C_2  and  C_4
REMARK    4  A    between atoms: C_4  and  N_5
REMARK    5  A    between atoms: N_5  and  C_6
REMARK    6  A    between atoms: C_6  and  C_8
REMARK    7  A    between atoms: C_6  and  C_14
REMARK    8  A    between atoms: N_16  and  C_17
REMARK    9  A    between atoms: C_20  and  N_24
REMARK                            x       y       z     vdW  Elec       q    Type
REMARK                         _______ _______ _______ _____ _____    ______ ____
ROOT
ATOM      1  C   UNL     1       0.694  -0.616   3.651  0.00  0.00    +0.047 C 
ENDROOT
BRANCH   1   2
ATOM      2  C   UNL     1      -0.128  -0.337   4.883  0.00  0.00    -0.053 A 
ATOM      3  C   UNL     1      -0.816   0.856   4.998  0.00  0.00    +0.002 A 
ATOM      4  C   UNL     1      -1.571   1.112   6.128  0.00  0.00    +0.000 A 
ATOM      5  C   UNL     1      -1.637   0.174   7.142  0.00  0.00    +0.000 A 
ATOM      6  C   UNL     1      -0.949  -1.019   7.026  0.00  0.00    +0.000 A 
ATOM      7  C   UNL     1      -0.198  -1.277   5.894  0.00  0.00    +0.002 A 
ENDBRANCH   1   2
BRANCH   1   8
ATOM      8  C   UNL     1       2.022   0.089   3.763  0.00  0.00    +0.207 C 
ATOM      9  O   UNL     1       2.200   1.141   3.186  0.00  0.00    -0.277 OA
ATOM     10  N   UNL     1       3.010  -0.450   4.504  0.00  0.00    -0.286 N 
ATOM     11  H   UNL     1       2.847  -1.257   5.017  0.00  0.00    +0.155 HD
BRANCH  10  12
ATOM     12  C   UNL     1       4.272   0.155   4.532  0.00  0.00    +0.048 A 
ATOM     13  C   UNL     1       4.383   1.537   4.466  0.00  0.00    +0.026 A 
ATOM     14  C   UNL     1       5.630   2.131   4.494  0.00  0.00    +0.034 A 
ATOM     15  C   UNL     1       6.768   1.350   4.588  0.00  0.00    +0.127 A 
ATOM     16  C   UNL     1       6.661  -0.026   4.654  0.00  0.00    +0.049 A 
ATOM     17  C   UNL     1       5.417  -0.627   4.633  0.00  0.00    +0.041 A 
ATOM     18 BR   UNL     1       5.272  -2.510   4.731  0.00  0.00    -0.048 Br
BRANCH  15  19
ATOM     19  N   UNL     1       8.102   1.990   4.617  0.00  0.00    +0.056 N 
ATOM     20  O   UNL     1       8.196   3.194   4.559  0.00  0.00    -0.126 OA
ATOM     21  O   UNL     1       9.097   1.309   4.699  0.00  0.00    -0.126 OA
ENDBRANCH  15  19
ENDBRANCH  10  12
ENDBRANCH   1   8
BRANCH   1  22
ATOM     22  N   UNL     1      -0.021  -0.128   2.464  0.00  0.00    +0.390 N 
ATOM     23  H   UNL     1      -0.101   0.876   2.509  0.00  0.00    -0.084 HD
ATOM     24  H   UNL     1      -0.942  -0.539   2.434  0.00  0.00    -0.084 HD
BRANCH  22  25
ATOM     25  C   UNL     1       0.723  -0.506   1.255  0.00  0.00    -0.078 C 
BRANCH  25  27
ATOM     26  C   UNL     1      -0.035   1.532   0.024  0.00  0.00    +0.005 C 
ATOM     27  C   UNL     1      -0.022   0.002   0.018  0.00  0.00    -0.034 C 
ATOM     28  C   UNL     1       0.685  -0.497  -1.243  0.00  0.00    +0.005 C 
ENDBRANCH  25  27
ENDBRANCH  22  25
ENDBRANCH   1  22
TORSDOF 7
