REMARK  Name = ZINC35710939
REMARK  14 active torsions:
REMARK  status: ('A' for Active; 'I' for Inactive)
REMARK    1  A    between atoms: C_1  and  C_2
REMARK    2  A    between atoms: C_2  and  C_3
REMARK    3  A    between atoms: C_3  and  N_4
REMARK    4  A    between atoms: C_5  and  C_38
REMARK    5  A    between atoms: C_6  and  C_31
REMARK    6  A    between atoms: C_7  and  C_12
REMARK    7  A    between atoms: C_16  and  N_18
REMARK    8  A    between atoms: C_19  and  C_21
REMARK    9  A    between atoms: C_24  and  N_28
REMARK   10  A    between atoms: C_31  and  O_33
REMARK   11  A    between atoms: O_33  and  C_34
REMARK   12  A    between atoms: C_34  and  C_35
REMARK   13  A    between atoms: C_35  and  C_36
REMARK   14  A    between atoms: C_35  and  C_37
REMARK                            x       y       z     vdW  Elec       q    Type
REMARK                         _______ _______ _______ _____ _____    ______ ____
ROOT
ATOM      1  C   UNL     1       0.329  -5.924  -0.592  0.00  0.00    -0.021 A 
ATOM      2  C   UNL     1      -0.534  -5.587   0.435  0.00  0.00    +0.006 A 
ATOM      3  C   UNL     1      -1.155  -6.578   1.173  0.00  0.00    +0.002 A 
ATOM      4  C   UNL     1      -0.916  -7.907   0.886  0.00  0.00    +0.023 A 
ATOM      5  C   UNL     1      -0.051  -8.249  -0.145  0.00  0.00    +0.034 A 
ATOM      6  C   UNL     1       0.568  -7.251  -0.887  0.00  0.00    +0.029 A 
ENDROOT
BRANCH   1  10
ATOM      7  N   UNL     1       1.224  -2.179  -0.675  0.00  0.00    -0.259 N 
ATOM      8  C   UNL     1       2.223  -3.023  -0.282  0.00  0.00    +0.024 C 
ATOM      9  C   UNL     1       2.188  -4.337  -0.594  0.00  0.00    +0.078 C 
ATOM     10  C   UNL     1       1.003  -4.840  -1.394  0.00  0.00    +0.144 C 
ATOM     11  N   UNL     1      -0.020  -3.849  -1.767  0.00  0.00    -0.288 N 
ATOM     12  C   UNL     1       0.153  -2.571  -1.377  0.00  0.00    +0.307 C 
ATOM     13  O   UNL     1      -0.687  -1.746  -1.678  0.00  0.00    -0.252 OA
ATOM     14  C   UNL     1       3.383  -2.480   0.511  0.00  0.00    +0.061 C 
ATOM     15  H   UNL     1      -0.801  -4.111  -2.279  0.00  0.00    +0.151 HD
BRANCH   9  16
ATOM     16  C   UNL     1       3.222  -5.212  -0.189  0.00  0.00    +0.339 C 
ATOM     17  O   UNL     1       4.164  -4.785   0.452  0.00  0.00    -0.245 OA
BRANCH  16  18
ATOM     18  O   UNL     1       3.164  -6.521  -0.513  0.00  0.00    -0.461 OA
BRANCH  18  19
ATOM     19  C   UNL     1       4.243  -7.347  -0.071  0.00  0.00    +0.235 C 
BRANCH  19  20
ATOM     20  C   UNL     1       4.004  -8.787  -0.530  0.00  0.00    +0.020 C 
ATOM     21  C   UNL     1       4.046  -8.849  -2.058  0.00  0.00    +0.010 C 
ATOM     22  C   UNL     1       5.092  -9.694   0.048  0.00  0.00    +0.010 C 
ENDBRANCH  19  20
ENDBRANCH  18  19
ENDBRANCH  16  18
ENDBRANCH   9  16
BRANCH   7  23
ATOM     23  C   UNL     1       1.326  -0.766  -0.302  0.00  0.00    +0.114 C 
BRANCH  23  25
ATOM     24  C   UNL     1       2.295   1.447  -0.939  0.00  0.00    +0.005 C 
ATOM     25  C   UNL     1       2.188  -0.028  -1.329  0.00  0.00    +0.016 C 
ENDBRANCH  23  25
ENDBRANCH   7  23
ENDBRANCH   1  10
BRANCH   5  26
ATOM     26  N   UNL     1       0.194  -9.594  -0.438  0.00  0.00    -0.281 N 
ATOM     27  C   UNL     1       0.194 -10.510   0.550  0.00  0.00    +0.250 C 
ATOM     28  O   UNL     1       0.077 -10.156   1.708  0.00  0.00    -0.270 OA
ATOM     29  H   UNL     1       0.363  -9.868  -1.353  0.00  0.00    +0.155 HD
BRANCH  27  30
ATOM     30  C   UNL     1       0.336 -11.945   0.228  0.00  0.00    +0.055 A 
ATOM     31  C   UNL     1       0.475 -12.355  -1.099  0.00  0.00    +0.017 A 
ATOM     32  C   UNL     1       0.608 -13.696  -1.393  0.00  0.00    +0.033 A 
ATOM     33  C   UNL     1       0.602 -14.635  -0.377  0.00  0.00    +0.128 A 
ATOM     34  C   UNL     1       0.464 -14.238   0.941  0.00  0.00    +0.053 A 
ATOM     35  C   UNL     1       0.336 -12.897   1.250  0.00  0.00    +0.055 A 
ATOM     36 CL   UNL     1       0.170 -12.398   2.905  0.00  0.00    -0.083 Cl
BRANCH  33  37
ATOM     37  N   UNL     1       0.745 -16.072  -0.701  0.00  0.00    +0.056 N 
ATOM     38  O   UNL     1       0.866 -16.424  -1.851  0.00  0.00    -0.126 OA
ATOM     39  O   UNL     1       0.740 -16.895   0.185  0.00  0.00    -0.126 OA
ENDBRANCH  33  37
ENDBRANCH  27  30
ENDBRANCH   5  26
TORSDOF 10
