REMARK  Name = ZINC39678255
REMARK  7 active torsions:
REMARK  status: ('A' for Active; 'I' for Inactive)
REMARK    1  A    between atoms: C_1  and  C_2
REMARK    2  A    between atoms: C_2  and  C_3
REMARK    3  A    between atoms: C_6  and  C_9
REMARK    4  A    between atoms: C_13  and  C_22
REMARK    5  A    between atoms: N_24  and  C_25
REMARK    6  A    between atoms: C_25  and  C_26
REMARK    7  A    between atoms: C_31  and  N_32
REMARK                            x       y       z     vdW  Elec       q    Type
REMARK                         _______ _______ _______ _____ _____    ______ ____
ROOT
ATOM      1  C   UNL     1      -4.188  -2.276   0.318  0.00  0.00    +0.247 C 
ATOM      2  O   UNL     1      -4.607  -2.464   1.444  0.00  0.00    -0.270 OA
ATOM      3  N   UNL     1      -5.007  -2.433  -0.741  0.00  0.00    -0.296 N 
ATOM      4  C   UNL     1      -4.654  -2.373  -2.179  0.00  0.00    +0.121 C 
ATOM      5  C   UNL     1      -5.490  -3.496  -2.833  0.00  0.00    +0.100 C 
ATOM      6  C   UNL     1      -6.677  -3.708  -1.879  0.00  0.00    -0.004 C 
ATOM      7  C   UNL     1      -6.463  -2.712  -0.730  0.00  0.00    +0.115 C 
ATOM      8  C   UNL     1      -6.673  -5.135  -1.340  0.00  0.00    -0.010 C 
ATOM      9  C   UNL     1      -7.895  -5.338  -0.439  0.00  0.00    -0.082 C 
ATOM     10  N   UNL     1      -9.120  -5.088  -1.208  0.00  0.00    +0.379 N 
ATOM     11  C   UNL     1      -9.159  -3.687  -1.645  0.00  0.00    -0.082 C 
ATOM     12  C   UNL     1      -7.991  -3.414  -2.597  0.00  0.00    -0.010 C 
ATOM     13  H   UNL     1      -9.137  -5.691  -2.017  0.00  0.00    -0.086 HD
ATOM     14  H   UNL     1      -9.924  -5.281  -0.630  0.00  0.00    -0.086 HD
ENDROOT
BRANCH   1  18
ATOM     15  C   UNL     1      -0.144  -1.123  -0.277  0.00  0.00    -0.048 A 
ATOM     16  C   UNL     1      -0.543  -1.628   0.948  0.00  0.00    +0.004 A 
ATOM     17  C   UNL     1      -1.855  -2.004   1.147  0.00  0.00    +0.013 A 
ATOM     18  C   UNL     1      -2.781  -1.874   0.111  0.00  0.00    +0.037 A 
ATOM     19  C   UNL     1      -2.372  -1.363  -1.122  0.00  0.00    +0.013 A 
ATOM     20  C   UNL     1      -1.058  -0.986  -1.307  0.00  0.00    +0.004 A 
BRANCH  15  22
ATOM     21  C   UNL     1       1.443   0.781  -0.199  0.00  0.00    +0.009 C 
ATOM     22  C   UNL     1       1.291  -0.714  -0.488  0.00  0.00    +0.032 C 
ENDBRANCH  15  22
ENDBRANCH   1  18
BRANCH   5  23
ATOM     23  C   UNL     1      -4.675  -4.758  -2.949  0.00  0.00    +0.218 C 
ATOM     24  O   UNL     1      -3.831  -5.014  -2.116  0.00  0.00    -0.275 OA
ATOM     25  N   UNL     1      -4.883  -5.603  -3.978  0.00  0.00    -0.311 N 
ATOM     26  H   UNL     1      -5.503  -5.364  -4.684  0.00  0.00    +0.149 HD
BRANCH  25  27
ATOM     27  C   UNL     1      -4.172  -6.883  -4.031  0.00  0.00    +0.141 C 
BRANCH  27  28
ATOM     28  C   UNL     1      -4.492  -7.582  -5.327  0.00  0.00    -0.009 A 
ATOM     29  C   UNL     1      -5.411  -8.613  -5.347  0.00  0.00    +0.007 A 
ATOM     30  C   UNL     1      -5.705  -9.255  -6.536  0.00  0.00    +0.000 A 
ATOM     31  C   UNL     1      -5.080  -8.869  -7.707  0.00  0.00    +0.002 A 
ATOM     32  C   UNL     1      -4.160  -7.839  -7.694  0.00  0.00    +0.023 A 
ATOM     33  C   UNL     1      -3.866  -7.188  -6.502  0.00  0.00    +0.034 A 
BRANCH  33  34
ATOM     34  N   UNL     1      -2.940  -6.142  -6.486  0.00  0.00    -0.330 N 
ATOM     35  C   UNL     1      -1.523  -6.402  -6.198  0.00  0.00    +0.105 C 
ATOM     36  C   UNL     1      -0.674  -5.811  -7.328  0.00  0.00    +0.019 C 
ATOM     37  C   UNL     1      -1.020  -4.330  -7.500  0.00  0.00    +0.003 C 
ATOM     38  C   UNL     1      -2.495  -4.190  -7.880  0.00  0.00    +0.019 C 
ATOM     39  C   UNL     1      -3.364  -4.763  -6.762  0.00  0.00    +0.105 C 
ENDBRANCH  33  34
ENDBRANCH  27  28
ENDBRANCH  25  27
ENDBRANCH   5  23
TORSDOF 6
