REMARK  Name = ZINC39659161
REMARK  7 active torsions:
REMARK  status: ('A' for Active; 'I' for Inactive)
REMARK    1  A    between atoms: C_1  and  C_2
REMARK    2  A    between atoms: C_2  and  C_36
REMARK    3  A    between atoms: C_5  and  C_8
REMARK    4  A    between atoms: C_8  and  N_9
REMARK    5  A    between atoms: C_10  and  C_12
REMARK    6  A    between atoms: C_23  and  C_25
REMARK    7  A    between atoms: C_28  and  C_32
REMARK                            x       y       z     vdW  Elec       q    Type
REMARK                         _______ _______ _______ _____ _____    ______ ____
ROOT
ATOM      1  C   UNL     1       2.882  -3.476   4.842  0.00  0.00    +0.100 C 
ATOM      2  C   UNL     1       3.554  -4.677   4.138  0.00  0.00    +0.121 C 
ATOM      3  N   UNL     1       4.474  -5.239   5.154  0.00  0.00    -0.296 N 
ATOM      4  C   UNL     1       3.722  -5.142   6.428  0.00  0.00    +0.115 C 
ATOM      5  C   UNL     1       2.993  -3.786   6.344  0.00  0.00    -0.004 C 
ATOM      6  C   UNL     1       1.604  -3.895   6.966  0.00  0.00    -0.010 C 
ATOM      7  C   UNL     1       1.741  -4.145   8.470  0.00  0.00    -0.082 C 
ATOM      8  N   UNL     1       2.490  -3.042   9.085  0.00  0.00    +0.379 N 
ATOM      9  C   UNL     1       3.856  -3.003   8.549  0.00  0.00    -0.082 C 
ATOM     10  C   UNL     1       3.808  -2.705   7.047  0.00  0.00    -0.010 C 
ATOM     11  C   UNL     1       5.716  -5.727   4.963  0.00  0.00    +0.247 C 
ATOM     12  O   UNL     1       6.251  -5.620   3.877  0.00  0.00    -0.270 OA
ATOM     13  H   UNL     1       2.026  -2.169   8.884  0.00  0.00    -0.086 HD
ATOM     14  H   UNL     1       2.526  -3.179  10.084  0.00  0.00    -0.086 HD
ENDROOT
BRANCH  11  15
ATOM     15  C   UNL     1       6.428  -6.391   6.076  0.00  0.00    +0.040 A 
ATOM     16  C   UNL     1       5.712  -6.902   7.160  0.00  0.00    +0.014 A 
ATOM     17  C   UNL     1       6.381  -7.522   8.195  0.00  0.00    +0.016 A 
ATOM     18  C   UNL     1       7.759  -7.639   8.161  0.00  0.00    +0.090 A 
ATOM     19  C   UNL     1       8.477  -7.134   7.089  0.00  0.00    +0.136 A 
ATOM     20  C   UNL     1       7.817  -6.516   6.043  0.00  0.00    +0.052 A 
ATOM     21  F   UNL     1       9.823  -7.250   7.063  0.00  0.00    -0.205 F 
BRANCH  18  22
ATOM     22  C   UNL     1       8.483  -8.317   9.296  0.00  0.00    +0.420 C 
ATOM     23  F   UNL     1       7.556  -8.740  10.254  0.00  0.00    -0.166 F 
ATOM     24  F   UNL     1       9.185  -9.424   8.806  0.00  0.00    -0.166 F 
ATOM     25  F   UNL     1       9.380  -7.417   9.881  0.00  0.00    -0.166 F 
ENDBRANCH  18  22
ENDBRANCH  11  15
BRANCH   1  27
ATOM     26  N   UNL     1       0.830  -2.168   4.398  0.00  0.00    -0.312 N 
ATOM     27  C   UNL     1       1.435  -3.372   4.434  0.00  0.00    +0.218 C 
ATOM     28  O   UNL     1       0.815  -4.371   4.137  0.00  0.00    -0.275 OA
ATOM     29  H   UNL     1       1.326  -1.369   4.635  0.00  0.00    +0.149 HD
BRANCH  26  30
ATOM     30  C   UNL     1      -0.577  -2.066   4.001  0.00  0.00    +0.138 C 
BRANCH  30  35
ATOM     31  C   UNL     1      -2.765   0.986   6.712  0.00  0.00    +0.074 C 
ATOM     32  C   UNL     1      -1.995   0.966   5.390  0.00  0.00    +0.165 C 
ATOM     33  O   UNL     1      -2.907   0.755   4.304  0.00  0.00    -0.347 OA
ATOM     34  C   UNL     1      -2.499  -0.452   3.630  0.00  0.00    +0.196 C 
ATOM     35  C   UNL     1      -1.014  -0.600   4.045  0.00  0.00    +0.164 C 
ATOM     36  O   UNL     1      -1.037  -0.106   5.405  0.00  0.00    -0.342 OA
ATOM     37  C   UNL     1      -1.271   2.300   5.198  0.00  0.00    +0.074 C 
ENDBRANCH  30  35
ENDBRANCH  26  30
ENDBRANCH   1  27
TORSDOF 5
