REMARK  Name = ZINC36545204
REMARK  13 active torsions:
REMARK  status: ('A' for Active; 'I' for Inactive)
REMARK    1  A    between atoms: C_1  and  C_2
REMARK    2  A    between atoms: C_2  and  C_4
REMARK    3  A    between atoms: C_2  and  C_10
REMARK    4  A    between atoms: C_10  and  C_12
REMARK    5  A    between atoms: C_10  and  N_19
REMARK    6  A    between atoms: N_14  and  C_15
REMARK    7  A    between atoms: C_15  and  C_16
REMARK    8  A    between atoms: C_15  and  C_17
REMARK    9  A    between atoms: C_15  and  C_18
REMARK   10  A    between atoms: N_19  and  C_20
REMARK   11  A    between atoms: C_27  and  C_29
REMARK   12  A    between atoms: C_30  and  O_36
REMARK   13  A    between atoms: C_34  and  O_35
REMARK                            x       y       z     vdW  Elec       q    Type
REMARK                         _______ _______ _______ _____ _____    ______ ____
ROOT
ATOM      1  N   UNL     1      -2.612  -0.123  -0.290  0.00  0.00    -0.253 N 
ATOM      2  C   UNL     1      -3.520   0.522   0.469  0.00  0.00    +0.259 C 
ATOM      3  O   UNL     1      -3.194   0.986   1.545  0.00  0.00    -0.269 OA
ENDROOT
BRANCH   1   4
ATOM      4  C   UNL     1      -2.961  -0.572  -1.568  0.00  0.00    +0.056 A 
ATOM      5  C   UNL     1      -2.630   0.183  -2.686  0.00  0.00    +0.025 A 
ATOM      6  C   UNL     1      -2.975  -0.264  -3.946  0.00  0.00    +0.002 A 
ATOM      7  C   UNL     1      -3.651  -1.460  -4.097  0.00  0.00    +0.002 A 
ATOM      8  C   UNL     1      -3.984  -2.215  -2.987  0.00  0.00    +0.022 A 
ATOM      9  C   UNL     1      -3.636  -1.777  -1.723  0.00  0.00    +0.062 A 
ATOM     10 CL   UNL     1      -4.047  -2.728  -0.330  0.00  0.00    -0.082 Cl
ENDBRANCH   1   4
BRANCH   2  11
ATOM     11  C   UNL     1      -4.907   0.665  -0.004  0.00  0.00    +0.120 A 
ATOM     12  C   UNL     1      -5.901  -0.216   0.446  0.00  0.00    +0.133 A 
ATOM     13  C   UNL     1      -7.203  -0.073  -0.005  0.00  0.00    +0.046 A 
ATOM     14  C   UNL     1      -7.523   0.934  -0.897  0.00  0.00    +0.007 A 
ATOM     15  C   UNL     1      -6.551   1.808  -1.347  0.00  0.00    +0.046 A 
ATOM     16  C   UNL     1      -5.244   1.687  -0.904  0.00  0.00    +0.133 A 
BRANCH  16  17
ATOM     17  O   UNL     1      -4.293   2.549  -1.343  0.00  0.00    -0.506 OA
ATOM     18  H   UNL     1      -3.910   2.310  -2.198  0.00  0.00    +0.292 HD
ENDBRANCH  16  17
BRANCH  12  19
ATOM     19  O   UNL     1      -5.589  -1.205   1.321  0.00  0.00    -0.506 OA
ATOM     20  H   UNL     1      -5.673  -0.950   2.250  0.00  0.00    +0.292 HD
ENDBRANCH  12  19
ENDBRANCH   2  11
BRANCH   1  21
ATOM     21  C   UNL     1      -1.260  -0.354   0.224  0.00  0.00    +0.174 C 
BRANCH  21  22
ATOM     22  C   UNL     1      -0.917  -1.816   0.096  0.00  0.00    +0.235 C 
ATOM     23  O   UNL     1      -1.269  -2.438  -0.884  0.00  0.00    -0.274 OA
ATOM     24  N   UNL     1      -0.218  -2.432   1.070  0.00  0.00    -0.309 N 
ATOM     25  H   UNL     1       0.063  -1.934   1.854  0.00  0.00    +0.149 HD
BRANCH  24  26
ATOM     26  C   UNL     1       0.115  -3.853   0.946  0.00  0.00    +0.026 C 
ATOM     27  C   UNL     1       0.962  -4.070  -0.310  0.00  0.00    +0.031 C 
ATOM     28  C   UNL     1       0.904  -4.301   2.178  0.00  0.00    +0.031 C 
ATOM     29  C   UNL     1      -1.173  -4.672   0.840  0.00  0.00    +0.031 C 
ENDBRANCH  24  26
ENDBRANCH  21  22
BRANCH  21  31
ATOM     30  C   UNL     1      -0.681   1.948  -0.558  0.00  0.00    +0.015 C 
ATOM     31  C   UNL     1      -0.259   0.477  -0.583  0.00  0.00    +0.046 C 
BRANCH  31  32
ATOM     32  C   UNL     1       1.113   0.338   0.024  0.00  0.00    -0.042 A 
ATOM     33  C   UNL     1       1.332   0.722   1.334  0.00  0.00    +0.004 A 
ATOM     34  C   UNL     1       2.591   0.595   1.891  0.00  0.00    +0.000 A 
ATOM     35  C   UNL     1       3.631   0.083   1.137  0.00  0.00    +0.000 A 
ATOM     36  C   UNL     1       3.412  -0.301  -0.172  0.00  0.00    +0.000 A 
ATOM     37  C   UNL     1       2.152  -0.178  -0.728  0.00  0.00    +0.004 A 
ENDBRANCH  31  32
ENDBRANCH  21  31
ENDBRANCH   1  21
TORSDOF 9
