REMARK  Name = ZINC19900952
REMARK  15 active torsions:
REMARK  status: ('A' for Active; 'I' for Inactive)
REMARK    1  A    between atoms: C_1  and  C_2
REMARK    2  A    between atoms: C_2  and  C_3
REMARK    3  A    between atoms: C_2  and  C_4
REMARK    4  A    between atoms: C_2  and  C_5
REMARK    5  A    between atoms: C_7  and  C_16
REMARK    6  A    between atoms: C_9  and  C_12
REMARK    7  A    between atoms: C_10  and  O_11
REMARK    8  A    between atoms: C_12  and  C_13
REMARK    9  A    between atoms: C_12  and  C_14
REMARK   10  A    between atoms: C_12  and  C_15
REMARK   11  A    between atoms: C_16  and  C_18
REMARK   12  A    between atoms: C_18  and  N_19
REMARK   13  A    between atoms: N_26  and  C_29
REMARK   14  A    between atoms: C_29  and  C_30
REMARK   15  A    between atoms: C_30  and  N_31
REMARK                            x       y       z     vdW  Elec       q    Type
REMARK                         _______ _______ _______ _____ _____    ______ ____
ROOT
ATOM      1  N   UNL     1      -2.571   3.554   0.046  0.00  0.00    -0.303 N 
ATOM      2  C   UNL     1      -1.237   3.149   0.031  0.00  0.00    +0.069 A 
ATOM      3  C   UNL     1      -0.040   3.851   0.023  0.00  0.00    +0.028 A 
ATOM      4  C   UNL     1       1.160   3.167   0.008  0.00  0.00    +0.002 A 
ATOM      5  C   UNL     1       1.173   1.784   0.000  0.00  0.00    +0.002 A 
ATOM      6  C   UNL     1      -0.013   1.076   0.008  0.00  0.00    +0.028 A 
ATOM      7  C   UNL     1      -1.223   1.754   0.017  0.00  0.00    +0.068 A 
ATOM      8  N   UNL     1      -2.549   1.323   0.034  0.00  0.00    -0.312 N 
ATOM      9  C   UNL     1      -3.359   2.430   0.048  0.00  0.00    +0.205 A 
ATOM     10  N   UNL     1      -4.665   2.417   0.060  0.00  0.00    -0.268 NA
ATOM     11  H   UNL     1      -5.158   3.252   0.070  0.00  0.00    +0.190 HD
ENDROOT
BRANCH   1  12
ATOM     12  C   UNL     1      -3.049   4.938   0.059  0.00  0.00    +0.204 C 
BRANCH  12  13
ATOM     13  C   UNL     1      -3.227   5.421  -1.357  0.00  0.00    +0.183 C 
ATOM     14  O   UNL     1      -2.979   4.681  -2.286  0.00  0.00    -0.290 OA
BRANCH  13  17
ATOM     15  C   UNL     1      -4.310   8.515  -3.162  0.00  0.00    +0.000 A 
ATOM     16  C   UNL     1      -3.867   7.239  -2.929  0.00  0.00    +0.019 A 
ATOM     17  C   UNL     1      -3.701   6.787  -1.613  0.00  0.00    +0.020 A 
ATOM     18  C   UNL     1      -3.994   7.642  -0.543  0.00  0.00    +0.019 A 
ATOM     19  C   UNL     1      -4.431   8.918  -0.787  0.00  0.00    +0.000 A 
ATOM     20  C   UNL     1      -4.594   9.361  -2.095  0.00  0.00    +0.124 A 
BRANCH  15  22
ATOM     21  C   UNL     1      -4.112   7.886  -5.552  0.00  0.00    +0.015 C 
ATOM     22  C   UNL     1      -4.490   9.002  -4.577  0.00  0.00    -0.009 C 
ATOM     23  C   UNL     1      -5.951   9.399  -4.798  0.00  0.00    +0.015 C 
ATOM     24  C   UNL     1      -3.589  10.216  -4.817  0.00  0.00    +0.015 C 
ENDBRANCH  15  22
BRANCH  19  25
ATOM     25  C   UNL     1      -4.741   9.840   0.364  0.00  0.00    -0.009 C 
ATOM     26  C   UNL     1      -4.479   9.113   1.684  0.00  0.00    +0.015 C 
ATOM     27  C   UNL     1      -3.848  11.080   0.278  0.00  0.00    +0.015 C 
ATOM     28  C   UNL     1      -6.209  10.264   0.297  0.00  0.00    +0.015 C 
ENDBRANCH  19  25
BRANCH  20  29
ATOM     29  O   UNL     1      -5.032  10.623  -2.332  0.00  0.00    -0.506 OA
ATOM     30  H   UNL     1      -5.258  11.294  -1.490  0.00  0.00    +0.292 HD
ENDBRANCH  20  29
ENDBRANCH  13  17
ENDBRANCH  12  13
ENDBRANCH   1  12
BRANCH   8  31
ATOM     31  C   UNL     1      -2.999  -0.071   0.030  0.00  0.00    +0.107 C 
BRANCH  31  32
ATOM     32  C   UNL     1      -3.170  -0.548  -1.413  0.00  0.00    -0.057 C 
BRANCH  32  33
ATOM     33  N   UNL     1      -3.622  -1.946  -1.417  0.00  0.00    +0.381 N 
ATOM     34  C   UNL     1      -2.589  -2.834  -0.871  0.00  0.00    -0.079 C 
ATOM     35  C   UNL     1      -3.145  -4.255  -0.755  0.00  0.00    -0.019 C 
ATOM     36  C   UNL     1      -3.582  -4.741  -2.139  0.00  0.00    -0.004 C 
ATOM     37  C   UNL     1      -4.623  -3.772  -2.707  0.00  0.00    -0.019 C 
ATOM     38  C   UNL     1      -4.024  -2.365  -2.766  0.00  0.00    -0.079 C 
ATOM     39  H   UNL     1      -4.506  -2.019  -0.766  0.00  0.00    -0.082 HD
ENDBRANCH  32  33
ENDBRANCH  31  32
ENDBRANCH   8  31
TORSDOF 9
