REMARK  Name = ZINC39741306
REMARK  9 active torsions:
REMARK  status: ('A' for Active; 'I' for Inactive)
REMARK    1  A    between atoms: C_1  and  C_2
REMARK    2  A    between atoms: C_3  and  C_8
REMARK    3  A    between atoms: C_8  and  C_10
REMARK    4  A    between atoms: C_8  and  C_22
REMARK    5  A    between atoms: C_16  and  O_18
REMARK    6  A    between atoms: O_18  and  C_19
REMARK    7  A    between atoms: C_19  and  C_20
REMARK    8  A    between atoms: C_23  and  O_29
REMARK    9  A    between atoms: C_26  and  C_28
REMARK                            x       y       z     vdW  Elec       q    Type
REMARK                         _______ _______ _______ _____ _____    ______ ____
ROOT
ATOM      1  C   UNL     1      -0.005  -0.342  -2.566  0.00  0.00    +0.069 C 
ENDROOT
BRANCH   1   4
ATOM      2  C   UNL     1      -0.034   1.537  -0.015  0.00  0.00    +0.068 C 
ATOM      3  C   UNL     1      -0.019   0.030  -0.003  0.00  0.00    +0.067 A 
ATOM      4  C   UNL     1      -0.006  -0.797  -1.129  0.00  0.00    +0.049 A 
ATOM      5  C   UNL     1       0.004  -2.087  -0.698  0.00  0.00    +0.270 A 
ATOM      6  N   UNL     1      -0.002  -2.066   0.653  0.00  0.00    -0.243 N 
ATOM      7  N   UNL     1      -0.011  -0.727   1.064  0.00  0.00    -0.176 NA
ATOM      8  O   UNL     1       0.018  -3.195  -1.483  0.00  0.00    -0.266 OA
ATOM      9  H   UNL     1       0.003  -2.842   1.236  0.00  0.00    +0.192 HD
ENDBRANCH   1   4
BRANCH   1  10
ATOM     10  C   UNL     1       1.306  -0.762  -3.233  0.00  0.00    +0.056 C 
ATOM     11  C   UNL     1       2.463  -0.134  -2.502  0.00  0.00    -0.020 C 
ATOM     12  C   UNL     1       3.615   0.076  -3.129  0.00  0.00    -0.004 C 
ATOM     13  C   UNL     1       3.756  -0.305  -4.544  0.00  0.00    -0.002 C 
ATOM     14  C   UNL     1       2.672  -0.488  -5.289  0.00  0.00    +0.005 C 
ATOM     15  C   UNL     1       1.303  -0.303  -4.691  0.00  0.00    +0.149 C 
BRANCH  15  16
ATOM     16  O   UNL     1       0.939   1.077  -4.753  0.00  0.00    -0.368 OA
BRANCH  16  17
ATOM     17  C   UNL     1       0.262   1.446  -5.956  0.00  0.00    +0.187 C 
BRANCH  17  18
ATOM     18  C   UNL     1      -0.072   2.915  -5.914  0.00  0.00    -0.007 C 
ATOM     19  C   UNL     1       0.146   3.667  -6.965  0.00  0.00    +0.006 C 
ENDBRANCH  17  18
ENDBRANCH  16  17
ENDBRANCH  15  16
ENDBRANCH   1  10
BRANCH   1  20
ATOM     20  C   UNL     1      -1.164  -0.973  -3.294  0.00  0.00    +0.027 C 
ATOM     21  C   UNL     1      -1.145  -2.030  -4.117  0.00  0.00    +0.233 C 
ATOM     22  N   UNL     1      -2.390  -2.299  -4.578  0.00  0.00    -0.116 NA
ATOM     23  N   UNL     1      -3.266  -1.538  -4.159  0.00  0.00    -0.176 NA
ATOM     24  C   UNL     1      -2.626  -0.563  -3.260  0.00  0.00    +0.157 C 
ATOM     25  C   UNL     1      -2.801   0.859  -3.796  0.00  0.00    +0.039 C 
BRANCH  21  26
ATOM     26  O   UNL     1      -0.030  -2.735  -4.445  0.00  0.00    -0.491 OA
ATOM     27  H   UNL     1      -0.194  -3.469  -5.052  0.00  0.00    +0.294 HD
ENDBRANCH  21  26
ENDBRANCH   1  20
TORSDOF 7
