REMARK  Name = ZINC08986959
REMARK  9 active torsions:
REMARK  status: ('A' for Active; 'I' for Inactive)
REMARK    1  A    between atoms: C_1  and  C_2
REMARK    2  A    between atoms: C_2  and  C_3
REMARK    3  A    between atoms: C_11  and  C_12
REMARK    4  A    between atoms: C_12  and  C_13
REMARK    5  A    between atoms: N_15  and  N_16
REMARK    6  A    between atoms: C_17  and  C_19
REMARK    7  A    between atoms: C_19  and  C_20
REMARK    8  A    between atoms: C_26  and  C_32
REMARK    9  A    between atoms: C_27  and  C_31
REMARK                            x       y       z     vdW  Elec       q    Type
REMARK                         _______ _______ _______ _____ _____    ______ ____
ROOT
ATOM      1  N   UNL     1      -3.804   7.210  -2.895  0.00  0.00    -0.234 N 
ATOM      2  C   UNL     1      -4.268   8.453  -3.128  0.00  0.00    +0.236 C 
ATOM      3  O   UNL     1      -4.621   9.152  -2.202  0.00  0.00    -0.274 OA
ATOM      4  H   UNL     1      -3.522   6.650  -3.636  0.00  0.00    +0.173 HD
ENDROOT
BRANCH   1   7
ATOM      5  C   UNL     1      -3.264   5.481  -1.350  0.00  0.00    +0.234 C 
ATOM      6  O   UNL     1      -2.912   4.782  -2.276  0.00  0.00    -0.274 OA
ATOM      7  N   UNL     1      -3.729   6.724  -1.583  0.00  0.00    -0.234 N 
ATOM      8  H   UNL     1      -4.011   7.284  -0.842  0.00  0.00    +0.173 HD
BRANCH   5   9
ATOM      9  C   UNL     1      -3.184   4.959   0.061  0.00  0.00    +0.136 C 
BRANCH   9  18
ATOM     10  C   UNL     1       1.171   1.783   0.001  0.00  0.00    -0.044 A 
ATOM     11  C   UNL     1       1.166   3.171   0.008  0.00  0.00    +0.004 A 
ATOM     12  C   UNL     1      -0.015   3.859   0.024  0.00  0.00    +0.012 A 
ATOM     13  C   UNL     1      -1.222   3.161   0.031  0.00  0.00    +0.024 A 
ATOM     14  C   UNL     1      -1.224   1.756   0.017  0.00  0.00    +0.135 A 
ATOM     15  C   UNL     1      -0.013   1.076   0.008  0.00  0.00    +0.050 A 
ATOM     16  O   UNL     1      -2.512   1.358   0.021  0.00  0.00    -0.463 OA
ATOM     17  C   UNL     1      -3.341   2.416   0.031  0.00  0.00    +0.200 A 
ATOM     18  C   UNL     1      -2.636   3.555   0.047  0.00  0.00    +0.007 A 
BRANCH  10  20
ATOM     19  C   UNL     1       2.912   0.799  -1.465  0.00  0.00    +0.009 C 
ATOM     20  C   UNL     1       2.482   1.042  -0.017  0.00  0.00    +0.032 C 
ENDBRANCH  10  20
ENDBRANCH   9  18
ENDBRANCH   5   9
ENDBRANCH   1   7
BRANCH   2  21
ATOM     21  C   UNL     1      -4.349   8.975  -4.540  0.00  0.00    +0.171 C 
BRANCH  21  22
ATOM     22  C   UNL     1      -4.897  10.379  -4.526  0.00  0.00    +0.120 A 
ATOM     23  N   UNL     1      -5.050  11.047  -5.698  0.00  0.00    -0.310 N 
ATOM     24  H   UNL     1      -4.804  10.611  -6.529  0.00  0.00    +0.170 HD
ATOM     25  C   UNL     1      -5.541  12.300  -5.731  0.00  0.00    +0.260 A 
ATOM     26  O   UNL     1      -5.677  12.884  -6.792  0.00  0.00    -0.267 OA
ATOM     27  C   UNL     1      -5.896  12.938  -4.498  0.00  0.00    +0.075 A 
ATOM     28  C   UNL     1      -6.434  14.267  -4.271  0.00  0.00    -0.026 A 
ATOM     29  C   UNL     1      -6.696  14.661  -3.014  0.00  0.00    -0.008 A 
ATOM     30  S   UNL     1      -6.231  13.248  -2.032  0.00  0.00    -0.073 S 
ATOM     31  C   UNL     1      -5.698  12.170  -3.336  0.00  0.00    +0.116 A 
ATOM     32  N   UNL     1      -5.212  10.933  -3.385  0.00  0.00    -0.226 NA
ATOM     33  C   UNL     1      -7.251  15.982  -2.547  0.00  0.00    +0.052 C 
ATOM     34  C   UNL     1      -6.693  15.193  -5.431  0.00  0.00    +0.045 C 
ENDBRANCH  21  22
ENDBRANCH   2  21
TORSDOF 6
