REMARK  Name = ZINC32542475
REMARK  10 active torsions:
REMARK  status: ('A' for Active; 'I' for Inactive)
REMARK    1  A    between atoms: C_1  and  C_2
REMARK    2  A    between atoms: C_8  and  N_10
REMARK    3  A    between atoms: C_14  and  C_16
REMARK    4  A    between atoms: C_16  and  N_17
REMARK    5  A    between atoms: N_17  and  C_18
REMARK    6  A    between atoms: N_17  and  C_19
REMARK    7  A    between atoms: C_19  and  C_21
REMARK    8  A    between atoms: C_19  and  C_22
REMARK    9  A    between atoms: C_25  and  S_28
REMARK   10  A    between atoms: S_28  and  N_31
REMARK                            x       y       z     vdW  Elec       q    Type
REMARK                         _______ _______ _______ _____ _____    ______ ____
ROOT
ATOM      1  N   UNL     1      -2.107   1.071   1.277  0.00  0.00    +0.388 N 
ATOM      2  C   UNL     1      -2.855   1.601   2.425  0.00  0.00    -0.095 C 
ATOM      3  H   UNL     1      -2.603   1.420   0.360  0.00  0.00    -0.081 HD
ENDROOT
BRANCH   1   4
ATOM      4  C   UNL     1      -0.729   1.579   1.267  0.00  0.00    -0.041 C 
ATOM      5  C   UNL     1      -0.013   1.086   0.008  0.00  0.00    -0.008 C 
BRANCH   4   6
ATOM      6  C   UNL     1      -0.749   3.086   1.275  0.00  0.00    -0.061 A 
ATOM      7  C   UNL     1      -1.679   3.769   0.514  0.00  0.00    +0.004 A 
ATOM      8  C   UNL     1      -1.701   5.151   0.525  0.00  0.00    +0.029 A 
ATOM      9  C   UNL     1      -0.786   5.851   1.290  0.00  0.00    +0.105 A 
ATOM     10  C   UNL     1       0.147   5.168   2.047  0.00  0.00    +0.029 A 
ATOM     11  C   UNL     1       0.166   3.785   2.040  0.00  0.00    +0.004 A 
BRANCH   9  12
ATOM     12  S   UNL     1      -0.811   7.612   1.301  0.00  0.00    +0.056 S 
ATOM     13  O   UNL     1      -2.128   8.002   0.936  0.00  0.00    -0.153 OA
ATOM     14  O   UNL     1      -0.206   8.020   2.520  0.00  0.00    -0.153 OA
BRANCH  12  15
ATOM     15  N   UNL     1       0.188   8.123   0.083  0.00  0.00    -0.204 NA
ATOM     16  H   UNL     1       0.200   9.223   0.056  0.00  0.00    +0.144 HD
ATOM     17  H   UNL     1      -0.179   7.737  -0.879  0.00  0.00    +0.144 HD
ENDBRANCH  12  15
ENDBRANCH   9  12
ENDBRANCH   4   6
ENDBRANCH   1   4
BRANCH   1  18
ATOM     18  C   UNL     1      -2.126  -0.398   1.270  0.00  0.00    +0.019 C 
BRANCH  18  23
ATOM     19  N   UNL     1      -5.314  -3.955   0.728  0.00  0.00    -0.296 N 
ATOM     20  C   UNL     1      -5.054  -2.634   0.775  0.00  0.00    +0.306 C 
ATOM     21  O   UNL     1      -5.955  -1.831   0.628  0.00  0.00    -0.252 OA
ATOM     22  N   UNL     1      -3.795  -2.202   0.986  0.00  0.00    -0.242 N 
ATOM     23  C   UNL     1      -3.534  -0.881   1.034  0.00  0.00    +0.204 C 
ATOM     24  O   UNL     1      -4.433  -0.080   0.886  0.00  0.00    -0.277 OA
ATOM     25  H   UNL     1      -4.499  -4.682   0.861  0.00  0.00    +0.151 HD
ATOM     26  H   UNL     1      -2.979  -2.929   1.120  0.00  0.00    +0.159 HD
BRANCH  19  33
ATOM     27  C   UNL     1      -6.566  -5.788   2.589  0.00  0.00    +0.009 C 
ATOM     28  C   UNL     1      -6.846  -5.828   1.085  0.00  0.00    +0.006 C 
ATOM     29  C   UNL     1      -5.859  -6.782   0.408  0.00  0.00    +0.005 C 
ATOM     30  C   UNL     1      -6.140  -6.822  -1.096  0.00  0.00    +0.000 C 
ATOM     31  C   UNL     1      -5.977  -5.418  -1.683  0.00  0.00    +0.002 C 
ATOM     32  C   UNL     1      -6.963  -4.465  -1.005  0.00  0.00    +0.022 C 
ATOM     33  C   UNL     1      -6.683  -4.425   0.499  0.00  0.00    +0.077 C 
ENDBRANCH  19  33
ENDBRANCH  18  23
ENDBRANCH   1  18
TORSDOF 7
