REMARK  Name = ZINC44714577
REMARK  7 active torsions:
REMARK  status: ('A' for Active; 'I' for Inactive)
REMARK    1  A    between atoms: C_1  and  C_2
REMARK    2  A    between atoms: C_3  and  C_14
REMARK    3  A    between atoms: C_6  and  C_12
REMARK    4  A    between atoms: C_14  and  C_15
REMARK    5  A    between atoms: C_15  and  N_16
REMARK    6  A    between atoms: C_17  and  C_19
REMARK    7  A    between atoms: C_30  and  C_32
REMARK                            x       y       z     vdW  Elec       q    Type
REMARK                         _______ _______ _______ _____ _____    ______ ____
ROOT
ATOM      1  C   UNL     1       2.732   0.397  -6.338  0.00  0.00    +0.100 C 
ATOM      2  C   UNL     1       2.017  -0.405  -7.448  0.00  0.00    +0.121 C 
ATOM      3  N   UNL     1       2.852  -0.200  -8.655  0.00  0.00    -0.296 N 
ATOM      4  C   UNL     1       4.245  -0.247  -8.152  0.00  0.00    +0.115 C 
ATOM      5  C   UNL     1       4.194   0.498  -6.803  0.00  0.00    -0.004 C 
ATOM      6  C   UNL     1       5.118  -0.176  -5.793  0.00  0.00    -0.010 C 
ATOM      7  C   UNL     1       6.571  -0.012  -6.248  0.00  0.00    -0.082 C 
ATOM      8  N   UNL     1       6.893   1.416  -6.359  0.00  0.00    +0.379 N 
ATOM      9  C   UNL     1       6.064   2.037  -7.398  0.00  0.00    -0.082 C 
ATOM     10  C   UNL     1       4.589   1.960  -6.992  0.00  0.00    -0.010 C 
ATOM     11  C   UNL     1       2.437  -0.013  -9.924  0.00  0.00    +0.247 C 
ATOM     12  O   UNL     1       1.253   0.113 -10.164  0.00  0.00    -0.270 OA
ATOM     13  H   UNL     1       6.716   1.868  -5.474  0.00  0.00    -0.086 HD
ATOM     14  H   UNL     1       7.867   1.522  -6.599  0.00  0.00    -0.086 HD
ENDROOT
BRANCH  11  15
ATOM     15  C   UNL     1       3.426   0.040 -11.026  0.00  0.00    +0.040 A 
ATOM     16  C   UNL     1       4.707  -0.497 -10.868  0.00  0.00    +0.033 A 
ATOM     17  C   UNL     1       5.598  -0.426 -11.922  0.00  0.00    +0.111 A 
ATOM     18  N   UNL     1       5.253   0.138 -13.062  0.00  0.00    -0.263 NA
ATOM     19  C   UNL     1       4.056   0.655 -13.253  0.00  0.00    +0.111 A 
ATOM     20  C   UNL     1       3.102   0.623 -12.255  0.00  0.00    +0.033 A 
ENDBRANCH  11  15
BRANCH   1  22
ATOM     21  N   UNL     1       2.662   0.353  -3.866  0.00  0.00    -0.315 N 
ATOM     22  C   UNL     1       2.649  -0.336  -5.024  0.00  0.00    +0.218 C 
ATOM     23  O   UNL     1       2.569  -1.546  -5.009  0.00  0.00    -0.275 OA
ATOM     24  H   UNL     1       2.726   1.321  -3.878  0.00  0.00    +0.149 HD
BRANCH  21  25
ATOM     25  C   UNL     1       2.581  -0.359  -2.589  0.00  0.00    +0.109 C 
BRANCH  25  26
ATOM     26  C   UNL     1       2.616   0.649  -1.439  0.00  0.00    +0.056 C 
BRANCH  26  29
ATOM     27  C   UNL     1       5.016  -0.404   0.224  0.00  0.00    +0.063 C 
ATOM     28  C   UNL     1       3.564  -0.542   0.601  0.00  0.00    +0.017 A 
ATOM     29  C   UNL     1       2.533  -0.084  -0.125  0.00  0.00    -0.018 A 
ATOM     30  C   UNL     1       1.310  -0.431   0.604  0.00  0.00    +0.004 A 
ATOM     31  C   UNL     1      -0.048  -0.230   0.366  0.00  0.00    +0.029 A 
ATOM     32  C   UNL     1      -0.980  -0.699   1.288  0.00  0.00    +0.052 A 
ATOM     33  C   UNL     1      -0.550  -1.368   2.443  0.00  0.00    +0.021 A 
ATOM     34  C   UNL     1       0.779  -1.566   2.677  0.00  0.00    +0.027 A 
ATOM     35  C   UNL     1       1.729  -1.104   1.768  0.00  0.00    +0.047 A 
ATOM     36  N   UNL     1       3.102  -1.159   1.732  0.00  0.00    -0.358 N 
ATOM     37  H   UNL     1       3.661  -1.572   2.409  0.00  0.00    +0.166 HD
BRANCH  32  38
ATOM     38  C   UNL     1      -2.379  -0.499   1.056  0.00  0.00    +0.099 C 
ATOM     39  N   UNL     1      -3.488  -0.340   0.872  0.00  0.00    -0.191 NA
ENDBRANCH  32  38
ENDBRANCH  26  29
ENDBRANCH  25  26
ENDBRANCH  21  25
ENDBRANCH   1  22
TORSDOF 6
