REMARK  Name = ZINC15675847
REMARK  7 active torsions:
REMARK  status: ('A' for Active; 'I' for Inactive)
REMARK    1  A    between atoms: C_1  and  C_2
REMARK    2  A    between atoms: C_11  and  C_21
REMARK    3  A    between atoms: C_11  and  C_22
REMARK    4  A    between atoms: N_12  and  C_15
REMARK    5  A    between atoms: C_15  and  C_16
REMARK    6  A    between atoms: C_16  and  N_71
REMARK    7  A    between atoms: N_24  and  C_25
REMARK                            x       y       z     vdW  Elec       q    Type
REMARK                         _______ _______ _______ _____ _____    ______ ____
ROOT
ATOM      1  C   UNL     1      -2.865   3.549  -7.986  0.00  0.00    +0.086 C 
ATOM      2  C   UNL     1      -2.614   2.182  -7.402  0.00  0.00    +0.105 A 
ATOM      3  C   UNL     1      -1.472   1.484  -7.525  0.00  0.00    +0.071 A 
ATOM      4  C   UNL     1      -1.652   0.260  -6.836  0.00  0.00    +0.088 A 
ATOM      5  C   UNL     1      -2.945   0.297  -6.313  0.00  0.00    +0.154 A 
ATOM      6  O   UNL     1      -3.497   1.473  -6.680  0.00  0.00    -0.458 OA
ATOM      7  C   UNL     1      -3.155  -0.902  -5.617  0.00  0.00    +0.079 A 
ATOM      8  C   UNL     1      -2.012  -1.639  -5.715  0.00  0.00    +0.109 A 
ATOM      9  N   UNL     1      -1.088  -0.926  -6.476  0.00  0.00    -0.331 N 
ATOM     10  C   UNL     1       0.239  -1.470  -6.781  0.00  0.00    +0.157 C 
ATOM     11  C   UNL     1       0.674  -2.397  -5.647  0.00  0.00    +0.128 C 
ATOM     12  N   UNL     1      -0.374  -3.330  -5.252  0.00  0.00    -0.282 N 
ATOM     13  C   UNL     1      -1.671  -2.954  -5.158  0.00  0.00    +0.264 C 
ATOM     14  O   UNL     1      -2.510  -3.667  -4.639  0.00  0.00    -0.268 OA
ATOM     15  C   UNL     1       1.898  -3.194  -6.102  0.00  0.00    +0.043 C 
ENDROOT
BRANCH  11  16
ATOM     16  C   UNL     1       1.056  -1.560  -4.453  0.00  0.00    +0.238 C 
ATOM     17  O   UNL     1       2.216  -1.258  -4.270  0.00  0.00    -0.273 OA
ATOM     18  N   UNL     1       0.107  -1.148  -3.588  0.00  0.00    -0.311 N 
ATOM     19  H   UNL     1      -0.820  -1.389  -3.735  0.00  0.00    +0.149 HD
BRANCH  18  20
ATOM     20  C   UNL     1       0.478  -0.334  -2.428  0.00  0.00    +0.073 C 
ATOM     21  C   UNL     1      -0.566  -0.515  -1.324  0.00  0.00    +0.022 C 
ATOM     22  C   UNL     1       0.002  -0.004   0.002  0.00  0.00    +0.002 C 
ATOM     23  C   UNL     1      -0.019   1.526   0.010  0.00  0.00    +0.000 C 
ATOM     24  C   UNL     1       1.416   2.056  -0.000  0.00  0.00    +0.000 C 
ATOM     25  C   UNL     1       2.245   1.265  -1.015  0.00  0.00    +0.000 C 
ATOM     26  C   UNL     1       1.893   1.726  -2.431  0.00  0.00    +0.002 C 
ATOM     27  C   UNL     1       0.539   1.139  -2.836  0.00  0.00    +0.022 C 
ENDBRANCH  18  20
ENDBRANCH  11  16
BRANCH  12  28
ATOM     28  C   UNL     1      -0.013  -4.718  -4.949  0.00  0.00    +0.091 C 
BRANCH  28  29
ATOM     29  C   UNL     1       0.316  -4.845  -3.460  0.00  0.00    -0.060 C 
BRANCH  29  34
ATOM     30  C   UNL     1       1.746  -6.719  -4.068  0.00  0.00    -0.079 C 
ATOM     31  C   UNL     1       2.347  -7.925  -3.302  0.00  0.00    -0.020 C 
ATOM     32  C   UNL     1       2.306  -7.454  -1.830  0.00  0.00    -0.020 C 
ATOM     33  C   UNL     1       1.231  -6.353  -1.789  0.00  0.00    -0.079 C 
ATOM     34  N   UNL     1       0.696  -6.256  -3.148  0.00  0.00    +0.381 N 
ATOM     35  H   UNL     1      -0.133  -6.855  -3.238  0.00  0.00    -0.082 HD
ENDBRANCH  29  34
ENDBRANCH  28  29
ENDBRANCH  12  28
TORSDOF 5
