REMARK  Name = ZINC57291944
REMARK  7 active torsions:
REMARK  status: ('A' for Active; 'I' for Inactive)
REMARK    1  A    between atoms: C_1  and  C_2
REMARK    2  A    between atoms: C_5  and  C_8
REMARK    3  A    between atoms: N_9  and  C_10
REMARK    4  A    between atoms: C_10  and  S_18
REMARK    5  A    between atoms: C_11  and  C_12
REMARK    6  A    between atoms: S_18  and  C_21
REMARK    7  A    between atoms: C_28  and  C_29
REMARK                            x       y       z     vdW  Elec       q    Type
REMARK                         _______ _______ _______ _____ _____    ______ ____
ROOT
ATOM      1  C   UNL     1      -0.254  -3.866  -0.153  0.00  0.00    +0.142 C 
ATOM      2  N   UNL     1      -0.601  -4.593  -1.203  0.00  0.00    -0.210 NA
ATOM      3  N   UNL     1       0.537  -4.394   0.800  0.00  0.00    -0.328 N 
ATOM      4  C   UNL     1       1.426  -3.638   1.413  0.00  0.00    +0.102 C 
ATOM      5  N   UNL     1       1.646  -2.354   0.985  0.00  0.00    -0.344 N 
ATOM      6  H   UNL     1       1.229  -2.037   0.169  0.00  0.00    +0.144 HD
ATOM      7  H   UNL     1       2.219  -1.763   1.498  0.00  0.00    +0.144 HD
ATOM      8  H   UNL     1       0.453  -5.332   1.035  0.00  0.00    +0.169 HD
ENDROOT
BRANCH   1  13
ATOM      9  C   UNL     1      -2.125   1.555   0.339  0.00  0.00    +0.044 C 
ATOM     10  C   UNL     1      -1.635   0.136   0.210  0.00  0.00    -0.050 A 
ATOM     11  C   UNL     1      -1.648  -0.488  -1.025  0.00  0.00    +0.004 A 
ATOM     12  C   UNL     1      -1.200  -1.787  -1.150  0.00  0.00    +0.012 A 
ATOM     13  C   UNL     1      -0.735  -2.472  -0.027  0.00  0.00    +0.017 A 
ATOM     14  C   UNL     1      -0.724  -1.837   1.216  0.00  0.00    +0.012 A 
ATOM     15  C   UNL     1      -1.169  -0.536   1.326  0.00  0.00    +0.004 A 
ENDBRANCH   1  13
BRANCH   4  16
ATOM     16  C   UNL     1       2.184  -4.173   2.562  0.00  0.00    +0.013 A 
ATOM     17  C   UNL     1       2.547  -5.521   2.595  0.00  0.00    +0.011 A 
ATOM     18  C   UNL     1       3.256  -6.014   3.671  0.00  0.00    +0.001 A 
ATOM     19  C   UNL     1       3.606  -5.177   4.716  0.00  0.00    +0.000 A 
ATOM     20  C   UNL     1       3.250  -3.840   4.689  0.00  0.00    +0.001 A 
ATOM     21  C   UNL     1       2.546  -3.332   3.617  0.00  0.00    +0.011 A 
ENDBRANCH   4  16
BRANCH   2  22
ATOM     22  C   UNL     1      -0.200  -5.872  -1.297  0.00  0.00    +0.184 C 
ATOM     23  C   UNL     1      -0.705  -6.802  -0.455  0.00  0.00    +0.055 C 
BRANCH  23  24
ATOM     24  C   UNL     1      -1.814  -6.454   0.446  0.00  0.00    -0.022 A 
ATOM     25  C   UNL     1      -2.674  -5.397   0.128  0.00  0.00    +0.008 A 
ATOM     26  C   UNL     1      -3.711  -5.077   0.978  0.00  0.00    +0.001 A 
ATOM     27  C   UNL     1      -3.902  -5.798   2.144  0.00  0.00    +0.000 A 
ATOM     28  C   UNL     1      -3.055  -6.844   2.466  0.00  0.00    +0.001 A 
ATOM     29  C   UNL     1      -2.017  -7.181   1.624  0.00  0.00    +0.008 A 
ENDBRANCH  23  24
BRANCH  22  30
ATOM     30  S   UNL     1       0.983  -6.336  -2.516  0.00  0.00    +0.042 S 
ATOM     31  O   UNL     1       0.939  -7.754  -2.606  0.00  0.00    -0.163 OA
ATOM     32  O   UNL     1       0.761  -5.495  -3.639  0.00  0.00    -0.163 OA
BRANCH  30  33
ATOM     33  C   UNL     1       2.575  -5.922  -1.883  0.00  0.00    +0.095 A 
ATOM     34  C   UNL     1       3.111  -4.671  -2.126  0.00  0.00    +0.027 A 
ATOM     35  C   UNL     1       4.359  -4.346  -1.629  0.00  0.00    +0.002 A 
ATOM     36  C   UNL     1       5.071  -5.271  -0.889  0.00  0.00    +0.000 A 
ATOM     37  C   UNL     1       4.534  -6.521  -0.644  0.00  0.00    +0.002 A 
ATOM     38  C   UNL     1       3.284  -6.845  -1.138  0.00  0.00    +0.027 A 
ENDBRANCH  30  33
ENDBRANCH  22  30
ENDBRANCH   2  22
TORSDOF 6
