REMARK  Name = ZINC16330944
REMARK  6 active torsions:
REMARK  status: ('A' for Active; 'I' for Inactive)
REMARK    1  A    between atoms: C_4  and  N_7
REMARK    2  A    between atoms: C_11  and  C_13
REMARK    3  A    between atoms: C_13  and  S_14
REMARK    4  A    between atoms: S_14  and  C_15
REMARK    5  A    between atoms: N_20  and  C_21
REMARK    6  A    between atoms: C_21  and  C_22
REMARK                            x       y       z     vdW  Elec       q    Type
REMARK                         _______ _______ _______ _____ _____    ______ ____
ROOT
ATOM      1  C   UNL     1       5.437  -3.841   4.702  0.00  0.00    +0.172 C 
ENDROOT
BRANCH   1   6
ATOM      2  N   UNL     1       2.886  -0.467   2.418  0.00  0.00    -0.296 N 
ATOM      3  C   UNL     1       3.471  -1.681   2.404  0.00  0.00    +0.306 C 
ATOM      4  O   UNL     1       3.411  -2.373   1.407  0.00  0.00    -0.252 OA
ATOM      5  N   UNL     1       4.123  -2.127   3.495  0.00  0.00    -0.240 N 
ATOM      6  C   UNL     1       4.708  -3.341   3.482  0.00  0.00    +0.231 C 
ATOM      7  O   UNL     1       4.648  -4.032   2.487  0.00  0.00    -0.274 OA
ATOM      8  H   UNL     1       2.934   0.086   3.213  0.00  0.00    +0.151 HD
ATOM      9  H   UNL     1       4.171  -1.575   4.291  0.00  0.00    +0.159 HD
BRANCH   2  13
ATOM     10  C   UNL     1      -0.019   1.526   0.010  0.00  0.00    +0.000 C 
ATOM     11  C   UNL     1       1.417   2.055  -0.000  0.00  0.00    +0.002 C 
ATOM     12  C   UNL     1       2.157   1.548   1.239  0.00  0.00    +0.022 C 
ATOM     13  C   UNL     1       2.178   0.019   1.231  0.00  0.00    +0.074 C 
ATOM     14  C   UNL     1       0.742  -0.511   1.242  0.00  0.00    +0.022 C 
ATOM     15  C   UNL     1       0.002  -0.004   0.002  0.00  0.00    +0.002 C 
ENDBRANCH   2  13
ENDBRANCH   1   6
BRANCH   1  16
ATOM     16  S   UNL     1       6.109  -5.493   4.372  0.00  0.00    -0.088 S 
BRANCH  16  17
ATOM     17  C   UNL     1       6.920  -5.931   5.874  0.00  0.00    +0.160 A 
ATOM     18  N   UNL     1       7.027  -5.247   6.997  0.00  0.00    -0.133 NA
ATOM     19  N   UNL     1       7.713  -5.783   8.062  0.00  0.00    -0.125 NA
ATOM     20  C   UNL     1       8.260  -6.978   7.955  0.00  0.00    +0.182 A 
ATOM     21  S   UNL     1       7.810  -7.424   6.285  0.00  0.00    -0.025 S 
ATOM     22  N   UNL     1       8.988  -7.700   8.894  0.00  0.00    -0.320 N 
ATOM     23  H   UNL     1       9.332  -8.579   8.670  0.00  0.00    +0.148 HD
BRANCH  22  24
ATOM     24  C   UNL     1       9.234  -7.135  10.223  0.00  0.00    +0.135 C 
BRANCH  24  25
ATOM     25  C   UNL     1      10.052  -8.125  11.055  0.00  0.00    +0.135 C 
ATOM     26  C   UNL     1      10.213  -7.591  12.495  0.00  0.00    +0.035 C 
ATOM     27  C   UNL     1      11.678  -7.984  12.829  0.00  0.00    +0.031 C 
ATOM     28  C   UNL     1      12.350  -7.825  11.442  0.00  0.00    +0.160 C 
ATOM     29  O   UNL     1      11.362  -8.265  10.494  0.00  0.00    -0.375 OA
ENDBRANCH  24  25
ENDBRANCH  22  24
ENDBRANCH  16  17
ENDBRANCH   1  16
TORSDOF 6
