REMARK  Name = ZINC39684575
REMARK  11 active torsions:
REMARK  status: ('A' for Active; 'I' for Inactive)
REMARK    1  A    between atoms: C_1  and  C_2
REMARK    2  A    between atoms: C_2  and  C_4
REMARK    3  A    between atoms: C_2  and  N_8
REMARK    4  A    between atoms: C_4  and  C_5
REMARK    5  A    between atoms: C_4  and  C_6
REMARK    6  A    between atoms: C_4  and  C_7
REMARK    7  A    between atoms: C_9  and  C_11
REMARK    8  A    between atoms: C_22  and  C_24
REMARK    9  A    between atoms: C_27  and  O_34
REMARK   10  A    between atoms: C_28  and  C_30
REMARK   11  A    between atoms: O_34  and  C_35
REMARK                            x       y       z     vdW  Elec       q    Type
REMARK                         _______ _______ _______ _____ _____    ______ ____
ROOT
ATOM      1  C   UNL     1       0.362  -1.560   3.226  0.00  0.00    +0.100 C 
ATOM      2  C   UNL     1       1.069  -2.934   3.216  0.00  0.00    +0.121 C 
ATOM      3  N   UNL     1       0.897  -3.454   4.593  0.00  0.00    -0.296 N 
ATOM      4  C   UNL     1      -0.483  -3.061   4.966  0.00  0.00    +0.115 C 
ATOM      5  C   UNL     1      -0.655  -1.648   4.375  0.00  0.00    -0.004 C 
ATOM      6  C   UNL     1      -0.349  -0.593   5.434  0.00  0.00    -0.010 C 
ATOM      7  C   UNL     1      -1.408  -0.662   6.538  0.00  0.00    -0.082 C 
ATOM      8  N   UNL     1      -2.737  -0.432   5.960  0.00  0.00    +0.379 N 
ATOM      9  C   UNL     1      -3.062  -1.503   5.010  0.00  0.00    -0.082 C 
ATOM     10  C   UNL     1      -2.073  -1.469   3.841  0.00  0.00    -0.010 C 
ATOM     11  C   UNL     1       1.794  -4.130   5.338  0.00  0.00    +0.247 C 
ATOM     12  O   UNL     1       2.935  -4.266   4.942  0.00  0.00    -0.270 OA
ATOM     13  H   UNL     1      -3.425  -0.418   6.697  0.00  0.00    -0.086 HD
ATOM     14  H   UNL     1      -2.744   0.455   5.479  0.00  0.00    -0.086 HD
ENDROOT
BRANCH  11  15
ATOM     15  C   UNL     1       1.390  -4.706   6.636  0.00  0.00    +0.038 A 
ATOM     16  C   UNL     1       0.040  -4.945   6.907  0.00  0.00    +0.016 A 
ATOM     17  C   UNL     1      -0.333  -5.483   8.118  0.00  0.00    +0.047 A 
ATOM     18  C   UNL     1       0.632  -5.787   9.072  0.00  0.00    +0.132 A 
ATOM     19  C   UNL     1       1.975  -5.551   8.806  0.00  0.00    +0.097 A 
ATOM     20  C   UNL     1       2.357  -5.018   7.595  0.00  0.00    +0.029 A 
BRANCH  19  21
ATOM     21  C   UNL     1       3.017  -5.882   9.844  0.00  0.00    +0.421 C 
ATOM     22  F   UNL     1       4.285  -5.558   9.351  0.00  0.00    -0.166 F 
ATOM     23  F   UNL     1       2.767  -5.146  11.007  0.00  0.00    -0.166 F 
ATOM     24  F   UNL     1       2.965  -7.249  10.136  0.00  0.00    -0.166 F 
ENDBRANCH  19  21
BRANCH  18  25
ATOM     25  O   UNL     1       0.261  -6.316  10.265  0.00  0.00    -0.495 OA
ATOM     26  C   UNL     1      -1.137  -6.533  10.472  0.00  0.00    +0.277 C 
ENDBRANCH  18  25
ENDBRANCH  11  15
BRANCH   1  28
ATOM     27  N   UNL     1      -0.493  -0.068   1.448  0.00  0.00    -0.312 N 
ATOM     28  C   UNL     1      -0.344  -1.323   1.916  0.00  0.00    +0.218 C 
ATOM     29  O   UNL     1      -0.779  -2.262   1.284  0.00  0.00    -0.275 OA
ATOM     30  H   UNL     1      -0.145   0.683   1.954  0.00  0.00    +0.149 HD
BRANCH  27  32
ATOM     31  C   UNL     1      -2.689   0.230   0.414  0.00  0.00    +0.028 C 
ATOM     32  C   UNL     1      -1.180   0.162   0.174  0.00  0.00    +0.075 C 
BRANCH  32  33
ATOM     33  C   UNL     1      -0.700   1.482  -0.433  0.00  0.00    -0.020 C 
ATOM     34  C   UNL     1      -1.012   2.629   0.530  0.00  0.00    +0.012 C 
ATOM     35  C   UNL     1       0.809   1.414  -0.673  0.00  0.00    +0.012 C 
ATOM     36  C   UNL     1      -1.417   1.722  -1.763  0.00  0.00    +0.012 C 
ENDBRANCH  32  33
ENDBRANCH  27  32
ENDBRANCH   1  28
TORSDOF 6
