REMARK  Name = ZINC03628255
REMARK  15 active torsions:
REMARK  status: ('A' for Active; 'I' for Inactive)
REMARK    1  A    between atoms: C_1  and  C_2
REMARK    2  A    between atoms: C_2  and  O_3
REMARK    3  A    between atoms: O_3  and  C_4
REMARK    4  A    between atoms: C_4  and  C_6
REMARK    5  A    between atoms: C_7  and  C_34
REMARK    6  A    between atoms: N_8  and  C_27
REMARK    7  A    between atoms: C_12  and  O_15
REMARK    8  A    between atoms: O_15  and  C_16
REMARK    9  A    between atoms: C_16  and  C_17
REMARK   10  A    between atoms: C_17  and  C_19
REMARK   11  A    between atoms: C_17  and  O_26
REMARK   12  A    between atoms: C_19  and  N_63
REMARK   13  A    between atoms: C_20  and  C_21
REMARK   14  A    between atoms: C_20  and  N_63
REMARK   15  A    between atoms: C_30  and  C_33
REMARK                            x       y       z     vdW  Elec       q    Type
REMARK                         _______ _______ _______ _____ _____    ______ ____
ROOT
ATOM      1  C   UNL     1       0.023  -0.795   1.114  0.00  0.00    +0.088 A 
ATOM      2  C   UNL     1       0.002  -0.004   0.002  0.00  0.00    +0.036 A 
ATOM      3  N   UNL     1      -0.003  -0.778  -1.111  0.00  0.00    -0.312 N 
ATOM      4  C   UNL     1       0.023  -2.117  -0.766  0.00  0.00    +0.055 A 
ATOM      5  C   UNL     1       0.037  -2.191   0.636  0.00  0.00    +0.018 A 
ATOM      6  C   UNL     1       0.059  -3.429   1.271  0.00  0.00    +0.056 A 
ATOM      7  C   UNL     1       0.067  -4.586   0.514  0.00  0.00    +0.121 A 
ATOM      8  C   UNL     1       0.054  -4.512  -0.876  0.00  0.00    +0.048 A 
ATOM      9  C   UNL     1       0.031  -3.291  -1.512  0.00  0.00    +0.030 A 
ATOM     10  C   UNL     1      -0.018   1.503   0.010  0.00  0.00    +0.065 C 
ENDROOT
BRANCH   3  11
ATOM     11  C   UNL     1      -0.028  -0.291  -2.424  0.00  0.00    +0.047 A 
ATOM     12  C   UNL     1      -1.124  -0.543  -3.239  0.00  0.00    +0.026 A 
ATOM     13  C   UNL     1      -1.148  -0.057  -4.531  0.00  0.00    +0.005 A 
ATOM     14  C   UNL     1      -0.078   0.672  -5.017  0.00  0.00    -0.050 A 
ATOM     15  C   UNL     1       1.017   0.920  -4.210  0.00  0.00    +0.005 A 
ATOM     16  C   UNL     1       1.044   0.442  -2.915  0.00  0.00    +0.026 A 
ATOM     17  C   UNL     1      -0.104   1.196  -6.430  0.00  0.00    +0.044 C 
ENDBRANCH   3  11
BRANCH   1  18
ATOM     18  C   UNL     1       0.029  -0.346   2.511  0.00  0.00    +0.342 C 
ATOM     19  O   UNL     1      -1.021  -0.175   3.099  0.00  0.00    -0.245 OA
BRANCH  18  20
ATOM     20  O   UNL     1       1.200  -0.124   3.142  0.00  0.00    -0.461 OA
BRANCH  20  22
ATOM     21  C   UNL     1       2.546   0.518   5.067  0.00  0.00    +0.048 C 
ATOM     22  C   UNL     1       1.130   0.319   4.523  0.00  0.00    +0.229 C 
ENDBRANCH  20  22
ENDBRANCH  18  20
ENDBRANCH   1  18
BRANCH   7  23
ATOM     23  O   UNL     1       0.088  -5.798   1.128  0.00  0.00    -0.489 OA
BRANCH  23  24
ATOM     24  C   UNL     1       0.096  -6.953   0.286  0.00  0.00    +0.258 C 
BRANCH  24  25
ATOM     25  C   UNL     1       0.120  -8.215   1.150  0.00  0.00    +0.135 C 
BRANCH  25  26
ATOM     26  O   UNL     1      -1.093  -8.302   1.900  0.00  0.00    -0.390 OA
ATOM     27  H   UNL     1      -1.890  -8.345   1.354  0.00  0.00    +0.210 HD
ENDBRANCH  25  26
BRANCH  25  28
ATOM     28  C   UNL     1       0.254  -9.446   0.251  0.00  0.00    -0.047 C 
BRANCH  28  29
ATOM     29  N   UNL     1       0.277 -10.658   1.092  0.00  0.00    +0.385 N 
ATOM     30  H   UNL     1      -0.595 -10.713   1.631  0.00  0.00    -0.085 HD
ATOM     31  H   UNL     1       1.075 -10.608   1.736  0.00  0.00    -0.085 HD
BRANCH  29  32
ATOM     32  C   UNL     1       0.406 -11.863   0.250  0.00  0.00    -0.007 C 
BRANCH  32  33
ATOM     33  C   UNL     1       0.426 -13.083   1.134  0.00  0.00    +0.088 A 
ATOM     34  C   UNL     1      -0.650 -13.788   1.527  0.00  0.00    +0.042 A 
ATOM     35  C   UNL     1      -0.175 -14.842   2.341  0.00  0.00    +0.041 A 
ATOM     36  C   UNL     1       1.164 -14.718   2.396  0.00  0.00    +0.195 A 
ATOM     37  O   UNL     1       1.522 -13.654   1.659  0.00  0.00    -0.470 OA
ENDBRANCH  32  33
ENDBRANCH  29  32
ENDBRANCH  28  29
ENDBRANCH  25  28
ENDBRANCH  24  25
ENDBRANCH  23  24
ENDBRANCH   7  23
TORSDOF 12
