REMARK  Name = ZINC03288409
REMARK  11 active torsions:
REMARK  status: ('A' for Active; 'I' for Inactive)
REMARK    1  A    between atoms: C_1  and  C_2
REMARK    2  A    between atoms: C_2  and  C_3
REMARK    3  A    between atoms: C_2  and  N_4
REMARK    4  A    between atoms: N_4  and  C_5
REMARK    5  A    between atoms: N_4  and  C_11
REMARK    6  A    between atoms: C_14  and  N_17
REMARK    7  A    between atoms: C_18  and  C_20
REMARK    8  A    between atoms: C_20  and  O_21
REMARK    9  A    between atoms: O_21  and  C_22
REMARK   10  A    between atoms: C_22  and  C_24
REMARK   11  A    between atoms: C_29  and  N_30
REMARK                            x       y       z     vdW  Elec       q    Type
REMARK                         _______ _______ _______ _____ _____    ______ ____
ROOT
ATOM      1  N   UNL     1       1.705  -4.505   0.898  0.00  0.00    -0.283 N 
ATOM      2  C   UNL     1       0.741  -5.259   0.334  0.00  0.00    +0.255 C 
ATOM      3  O   UNL     1      -0.013  -4.770  -0.482  0.00  0.00    -0.272 OA
ATOM      4  H   UNL     1       2.351  -4.912   1.496  0.00  0.00    +0.155 HD
ENDROOT
BRANCH   1   8
ATOM      5  C   UNL     1       1.913  -0.423   0.069  0.00  0.00    +0.034 A 
ATOM      6  C   UNL     1       3.079  -1.152   0.268  0.00  0.00    +0.025 A 
ATOM      7  C   UNL     1       3.010  -2.502   0.548  0.00  0.00    +0.025 A 
ATOM      8  C   UNL     1       1.775  -3.134   0.619  0.00  0.00    +0.034 A 
ATOM      9  C   UNL     1       0.610  -2.406   0.415  0.00  0.00    +0.025 A 
ATOM     10  C   UNL     1       0.678  -1.055   0.141  0.00  0.00    +0.025 A 
BRANCH   5  11
ATOM     11  N   UNL     1       1.983   0.946  -0.209  0.00  0.00    -0.297 N 
BRANCH  11  12
ATOM     12  C   UNL     1       2.150   1.863   0.832  0.00  0.00    +0.034 A 
ATOM     13  C   UNL     1       2.129   1.429   2.152  0.00  0.00    +0.023 A 
ATOM     14  C   UNL     1       2.288   2.339   3.178  0.00  0.00    +0.002 A 
ATOM     15  C   UNL     1       2.479   3.679   2.894  0.00  0.00    +0.000 A 
ATOM     16  C   UNL     1       2.501   4.114   1.581  0.00  0.00    +0.002 A 
ATOM     17  C   UNL     1       2.337   3.210   0.550  0.00  0.00    +0.023 A 
ENDBRANCH  11  12
BRANCH  11  19
ATOM     18  C   UNL     1       2.927   0.707  -2.452  0.00  0.00    +0.028 C 
ATOM     19  C   UNL     1       1.882   1.419  -1.592  0.00  0.00    +0.073 C 
ATOM     20  C   UNL     1       0.483   1.115  -2.133  0.00  0.00    +0.028 C 
ENDBRANCH  11  19
ENDBRANCH   5  11
ENDBRANCH   1   8
BRANCH   2  21
ATOM     21  C   UNL     1       0.598  -6.710   0.717  0.00  0.00    +0.328 C 
BRANCH  21  22
ATOM     22  O   UNL     1      -0.505  -7.299  -0.023  0.00  0.00    -0.452 OA
BRANCH  22  23
ATOM     23  C   UNL     1      -0.768  -8.601   0.205  0.00  0.00    +0.342 C 
ATOM     24  O   UNL     1      -0.094  -9.226   1.000  0.00  0.00    -0.245 OA
BRANCH  23  25
ATOM     25  C   UNL     1      -1.871  -9.265  -0.509  0.00  0.00    +0.082 A 
ATOM     26  C   UNL     1      -2.584  -8.579  -1.496  0.00  0.00    +0.037 A 
ATOM     27  C   UNL     1      -3.616  -9.206  -2.161  0.00  0.00    +0.043 A 
ATOM     28  C   UNL     1      -3.951 -10.517  -1.856  0.00  0.00    +0.042 A 
ATOM     29  C   UNL     1      -3.256 -11.208  -0.884  0.00  0.00    +0.064 A 
ATOM     30  C   UNL     1      -2.210 -10.593  -0.206  0.00  0.00    +0.057 A 
ATOM     31 CL   UNL     1      -3.686 -12.848  -0.511  0.00  0.00    -0.082 Cl
ATOM     32 CL   UNL     1      -4.499  -8.351  -3.387  0.00  0.00    -0.083 Cl
BRANCH  30  33
ATOM     33  N   UNL     1      -1.505 -11.289   0.769  0.00  0.00    -0.356 N 
ATOM     34  H   UNL     1      -1.925 -12.029   1.236  0.00  0.00    +0.142 HD
ATOM     35  H   UNL     1      -0.594 -11.034   0.984  0.00  0.00    +0.142 HD
ENDBRANCH  30  33
ENDBRANCH  23  25
ENDBRANCH  22  23
ENDBRANCH  21  22
ENDBRANCH   2  21
TORSDOF 9
