REMARK  Name = ZINC09273077
REMARK  6 active torsions:
REMARK  status: ('A' for Active; 'I' for Inactive)
REMARK    1  A    between atoms: C_1  and  C_2
REMARK    2  A    between atoms: C_2  and  C_3
REMARK    3  A    between atoms: C_5  and  C_32
REMARK    4  A    between atoms: C_7  and  N_25
REMARK    5  A    between atoms: C_16  and  C_18
REMARK    6  A    between atoms: N_25  and  C_26
REMARK                            x       y       z     vdW  Elec       q    Type
REMARK                         _______ _______ _______ _____ _____    ______ ____
ROOT
ATOM      1  C   UNL     1       4.924   1.072   0.063  0.00  0.00    +0.086 C 
ATOM      2  C   UNL     1       5.795   1.678   1.171  0.00  0.00    +0.031 C 
ATOM      3  C   UNL     1       6.051   3.150   0.848  0.00  0.00    +0.107 C 
ATOM      4  C   UNL     1       4.754   3.860   0.562  0.00  0.00    -0.006 A 
ATOM      5  C   UNL     1       4.707   5.240   0.671  0.00  0.00    +0.007 A 
ATOM      6  C   UNL     1       3.533   5.920   0.412  0.00  0.00    +0.000 A 
ATOM      7  C   UNL     1       2.396   5.227   0.041  0.00  0.00    +0.002 A 
ATOM      8  C   UNL     1       2.433   3.851  -0.069  0.00  0.00    +0.024 A 
ATOM      9  C   UNL     1       3.614   3.165   0.187  0.00  0.00    +0.042 A 
ATOM     10  N   UNL     1       3.630   1.768   0.078  0.00  0.00    -0.264 N 
ATOM     11  C   UNL     1       2.478   1.075  -0.016  0.00  0.00    +0.251 C 
ATOM     12  O   UNL     1       1.430   1.661  -0.205  0.00  0.00    -0.270 OA
ATOM     13  C   UNL     1       5.069   1.566   2.513  0.00  0.00    +0.011 C 
ENDROOT
BRANCH  11  14
ATOM     14  C   UNL     1       2.489  -0.397   0.110  0.00  0.00    +0.037 A 
ATOM     15  C   UNL     1       1.434  -1.054   0.745  0.00  0.00    +0.014 A 
ATOM     16  C   UNL     1       1.453  -2.428   0.865  0.00  0.00    +0.016 A 
ATOM     17  C   UNL     1       2.511  -3.156   0.347  0.00  0.00    +0.018 A 
ATOM     18  C   UNL     1       3.560  -2.511  -0.285  0.00  0.00    +0.016 A 
ATOM     19  C   UNL     1       3.555  -1.137  -0.406  0.00  0.00    +0.014 A 
ATOM     20 BR   UNL     1       2.525  -5.040   0.509  0.00  0.00    -0.050 Br
ENDBRANCH  11  14
BRANCH   1  22
ATOM     21  C   UNL     1       4.767   0.586  -2.383  0.00  0.00    +0.006 C 
ATOM     22  C   UNL     1       5.601   1.266  -1.295  0.00  0.00    +0.020 C 
ENDBRANCH   1  22
BRANCH   3  23
ATOM     23  N   UNL     1       6.709   3.788   1.991  0.00  0.00    -0.337 N 
ATOM     24  H   UNL     1       6.595   3.424   2.882  0.00  0.00    +0.147 HD
BRANCH  23  25
ATOM     25  C   UNL     1       7.502   4.922   1.797  0.00  0.00    +0.028 A 
ATOM     26  C   UNL     1       7.671   5.442   0.520  0.00  0.00    +0.023 A 
ATOM     27  C   UNL     1       8.451   6.566   0.332  0.00  0.00    +0.002 A 
ATOM     28  C   UNL     1       9.072   7.168   1.411  0.00  0.00    +0.000 A 
ATOM     29  C   UNL     1       8.910   6.649   2.683  0.00  0.00    +0.002 A 
ATOM     30  C   UNL     1       8.127   5.529   2.879  0.00  0.00    +0.023 A 
ENDBRANCH  23  25
ENDBRANCH   3  23
TORSDOF 4
