REMARK  Name = ZINC07124342
REMARK  9 active torsions:
REMARK  status: ('A' for Active; 'I' for Inactive)
REMARK    1  A    between atoms: C_1  and  C_2
REMARK    2  A    between atoms: C_2  and  O_3
REMARK    3  A    between atoms: O_3  and  C_4
REMARK    4  A    between atoms: C_7  and  C_10
REMARK    5  A    between atoms: C_13  and  S_16
REMARK    6  A    between atoms: N_14  and  N_15
REMARK    7  A    between atoms: S_16  and  C_17
REMARK    8  A    between atoms: C_17  and  C_19
REMARK    9  A    between atoms: C_17  and  C_20
REMARK                            x       y       z     vdW  Elec       q    Type
REMARK                         _______ _______ _______ _____ _____    ______ ____
ROOT
ATOM      1  C   UNL     1      -4.414   0.052   1.654  0.00  0.00    +0.182 A 
ATOM      2  N   UNL     1      -3.918  -0.449   0.546  0.00  0.00    -0.127 NA
ATOM      3  N   UNL     1      -2.730   0.001   0.355  0.00  0.00    -0.121 NA
ATOM      4  C   UNL     1      -2.394   0.817   1.328  0.00  0.00    +0.209 A 
ATOM      5  N   UNL     1      -3.451   0.874   2.192  0.00  0.00    -0.224 N 
ENDROOT
BRANCH   1   9
ATOM      6  C   UNL     1      -8.261  -0.731   3.279  0.00  0.00    +0.121 A 
ATOM      7  C   UNL     1      -7.750  -1.553   2.283  0.00  0.00    +0.046 A 
ATOM      8  C   UNL     1      -6.502  -1.302   1.753  0.00  0.00    +0.015 A 
ATOM      9  C   UNL     1      -5.753  -0.220   2.219  0.00  0.00    +0.021 A 
ATOM     10  C   UNL     1      -6.268   0.601   3.224  0.00  0.00    +0.015 A 
ATOM     11  C   UNL     1      -7.519   0.346   3.745  0.00  0.00    +0.046 A 
BRANCH   6  12
ATOM     12  O   UNL     1      -9.491  -0.982   3.799  0.00  0.00    -0.492 OA
BRANCH  12  14
ATOM     13  C   UNL     1     -11.349  -0.535   5.279  0.00  0.00    +0.048 C 
ATOM     14  C   UNL     1      -9.956  -0.097   4.820  0.00  0.00    +0.225 C 
ENDBRANCH  12  14
ENDBRANCH   6  12
ENDBRANCH   1   9
BRANCH   5  15
ATOM     15  N   UNL     1      -3.535   1.599   3.347  0.00  0.00    -0.295 N 
ATOM     16  H   UNL     1      -3.913   2.518   3.170  0.00  0.00    +0.163 HD
ATOM     17  H   UNL     1      -4.082   1.111   4.040  0.00  0.00    +0.163 HD
ENDBRANCH   5  15
BRANCH   4  18
ATOM     18  S   UNL     1      -0.862   1.672   1.494  0.00  0.00    -0.072 S 
BRANCH  18  19
ATOM     19  C   UNL     1      -0.013   1.088   0.005  0.00  0.00    +0.137 C 
ATOM     20  C   UNL     1      -0.752   1.595  -1.235  0.00  0.00    +0.029 C 
BRANCH  19  21
ATOM     21  C   UNL     1       1.401   1.608  -0.004  0.00  0.00    +0.231 C 
ATOM     22  O   UNL     1       1.698   2.569   0.674  0.00  0.00    -0.274 OA
ATOM     23  N   UNL     1       2.336   1.006  -0.765  0.00  0.00    -0.269 N 
ATOM     24  C   UNL     1       3.616   1.550  -0.857  0.00  0.00    +0.125 A 
ATOM     25  C   UNL     1       4.544   0.985  -1.725  0.00  0.00    +0.045 A 
ATOM     26  C   UNL     1       5.811   1.533  -1.806  0.00  0.00    +0.025 A 
ATOM     27  C   UNL     1       6.109   2.634  -1.012  0.00  0.00    +0.059 A 
ATOM     28  C   UNL     1       5.138   3.143  -0.172  0.00  0.00    +0.132 A 
ATOM     29  N   UNL     1       3.936   2.601  -0.120  0.00  0.00    -0.239 NA
ATOM     30 CL   UNL     1       7.684   3.360  -1.075  0.00  0.00    -0.082 Cl
ATOM     31  H   UNL     1       2.117   0.194  -1.250  0.00  0.00    +0.156 HD
ENDBRANCH  19  21
ENDBRANCH  18  19
ENDBRANCH   4  18
TORSDOF 7
