REMARK  Name = ZINC11592929
REMARK  12 active torsions:
REMARK  status: ('A' for Active; 'I' for Inactive)
REMARK    1  A    between atoms: C_1  and  C_2
REMARK    2  A    between atoms: C_4  and  O_42
REMARK    3  A    between atoms: C_6  and  N_67
REMARK    4  A    between atoms: C_9  and  O_12
REMARK    5  A    between atoms: O_12  and  C_13
REMARK    6  A    between atoms: C_16  and  C_38
REMARK    7  A    between atoms: C_16  and  O_41
REMARK    8  A    between atoms: C_20  and  O_37
REMARK    9  A    between atoms: C_23  and  O_24
REMARK   10  A    between atoms: C_31  and  O_35
REMARK   11  A    between atoms: O_35  and  C_36
REMARK   12  A    between atoms: C_38  and  C_40
REMARK                            x       y       z     vdW  Elec       q    Type
REMARK                         _______ _______ _______ _____ _____    ______ ____
ROOT
ATOM      1  C   UNL     1      -2.491   0.168   0.121  0.00  0.00    +0.158 C 
ATOM      2  C   UNL     1      -1.232  -0.525   0.637  0.00  0.00    +0.079 C 
ATOM      3  C   UNL     1      -0.029   0.021  -0.141  0.00  0.00    +0.130 C 
ATOM      4  C   UNL     1      -0.114  -0.489  -1.578  0.00  0.00    +0.082 C 
ATOM      5  C   UNL     1      -1.476  -0.209  -2.161  0.00  0.00    +0.007 A 
ATOM      6  C   UNL     1      -2.566   0.085  -1.382  0.00  0.00    +0.030 A 
ATOM      7  C   UNL     1      -3.811   0.324  -1.979  0.00  0.00    +0.134 A 
ATOM      8  C   UNL     1      -3.955   0.269  -3.363  0.00  0.00    +0.078 A 
ATOM      9  C   UNL     1      -2.834  -0.029  -4.164  0.00  0.00    +0.078 A 
ATOM     10  C   UNL     1      -1.603  -0.265  -3.555  0.00  0.00    +0.132 A 
ATOM     11  C   UNL     1      -2.969  -0.090  -5.629  0.00  0.00    +0.198 C 
ATOM     12  O   UNL     1      -2.003  -0.348  -6.320  0.00  0.00    -0.286 OA
ATOM     13  C   UNL     1      -4.282   0.163  -6.258  0.00  0.00    +0.037 A 
ATOM     14  C   UNL     1      -4.420   0.109  -7.641  0.00  0.00    +0.012 A 
ATOM     15  C   UNL     1      -5.653   0.349  -8.226  0.00  0.00    +0.004 A 
ATOM     16  C   UNL     1      -6.753   0.642  -7.447  0.00  0.00    +0.046 A 
ATOM     17  C   UNL     1      -6.639   0.700  -6.061  0.00  0.00    +0.132 A 
ATOM     18  C   UNL     1      -5.401   0.461  -5.457  0.00  0.00    +0.075 A 
ATOM     19  C   UNL     1      -5.265   0.520  -3.991  0.00  0.00    +0.202 C 
ATOM     20  O   UNL     1      -6.232   0.775  -3.299  0.00  0.00    -0.286 OA
ENDROOT
BRANCH   3  21
ATOM     21  C   UNL     1      -0.060   1.527  -0.134  0.00  0.00    +0.162 C 
ATOM     22  O   UNL     1      -0.554   2.125  -1.060  0.00  0.00    -0.295 OA
ATOM     23  C   UNL     1       0.530   2.288   1.025  0.00  0.00    +0.089 C 
ENDBRANCH   3  21
BRANCH  10  24
ATOM     24  O   UNL     1      -0.519  -0.552  -4.318  0.00  0.00    -0.506 OA
ATOM     25  H   UNL     1      -0.014   0.226  -4.592  0.00  0.00    +0.292 HD
ENDBRANCH  10  24
BRANCH  17  26
ATOM     26  O   UNL     1      -7.724   0.988  -5.300  0.00  0.00    -0.494 OA
ATOM     27  C   UNL     1      -8.955   1.220  -5.987  0.00  0.00    +0.277 C 
ENDBRANCH  17  26
BRANCH   7  28
ATOM     28  O   UNL     1      -4.886   0.610  -1.202  0.00  0.00    -0.506 OA
ATOM     29  H   UNL     1      -5.051   1.556  -1.092  0.00  0.00    +0.292 HD
ENDBRANCH   7  28
BRANCH   3  30
ATOM     30  O   UNL     1       1.183  -0.439   0.462  0.00  0.00    -0.381 OA
ATOM     31  H   UNL     1       1.985  -0.136   0.014  0.00  0.00    +0.211 HD
ENDBRANCH   3  30
BRANCH   1  32
ATOM     32  O   UNL     1      -3.642  -0.464   0.686  0.00  0.00    -0.343 OA
BRANCH  32  38
ATOM     33  C   UNL     1      -2.031  -3.039   3.581  0.00  0.00    +0.040 C 
ATOM     34  C   UNL     1      -3.068  -2.304   2.730  0.00  0.00    +0.145 C 
ATOM     35  C   UNL     1      -4.468  -2.819   3.073  0.00  0.00    +0.129 C 
ATOM     36  C   UNL     1      -5.495  -2.122   2.175  0.00  0.00    -0.039 C 
ATOM     37  C   UNL     1      -5.127  -2.371   0.709  0.00  0.00    +0.048 C 
ATOM     38  C   UNL     1      -3.702  -1.873   0.457  0.00  0.00    +0.250 C 
ATOM     39  O   UNL     1      -2.802  -2.539   1.345  0.00  0.00    -0.346 OA
BRANCH  36  42
ATOM     40  H   UNL     1      -7.528  -2.218   1.866  0.00  0.00    -0.090 HD
ATOM     41  H   UNL     1      -6.849  -3.665   2.327  0.00  0.00    -0.090 HD
ATOM     42  N   UNL     1      -6.836  -2.657   2.471  0.00  0.00    +0.382 N 
ATOM     43  H   UNL     1      -7.071  -2.455   3.450  0.00  0.00    -0.090 HD
ENDBRANCH  36  42
BRANCH  35  44
ATOM     44  O   UNL     1      -4.524  -4.230   2.856  0.00  0.00    -0.391 OA
ATOM     45  H   UNL     1      -3.896  -4.736   3.390  0.00  0.00    +0.210 HD
ENDBRANCH  35  44
ENDBRANCH  32  38
ENDBRANCH   1  32
TORSDOF 9
