REMARK  Name = ZINC53629570
REMARK  6 active torsions:
REMARK  status: ('A' for Active; 'I' for Inactive)
REMARK    1  A    between atoms: C_6  and  C_11
REMARK    2  A    between atoms: C_15  and  C_25
REMARK    3  A    between atoms: C_19  and  C_21
REMARK    4  A    between atoms: N_27  and  C_28
REMARK    5  A    between atoms: C_28  and  C_29
REMARK    6  A    between atoms: C_29  and  C_30
REMARK                            x       y       z     vdW  Elec       q    Type
REMARK                         _______ _______ _______ _____ _____    ______ ____
ROOT
ATOM      1  C   UNL     1       4.979  -2.713  -0.060  0.00  0.00    +0.050 C 
ATOM      2  N   UNL     1       5.000  -4.029  -0.073  0.00  0.00    -0.342 N 
ATOM      3  C   UNL     1       6.174  -4.709  -0.087  0.00  0.00    +0.116 C 
ATOM      4  C   UNL     1       6.386  -6.041  -0.101  0.00  0.00    +0.045 C 
ATOM      5  C   UNL     1       7.884  -6.243  -0.115  0.00  0.00    +0.185 C 
ATOM      6  N   UNL     1       8.440  -4.878  -0.106  0.00  0.00    -0.218 NA
ATOM      7  N   UNL     1       7.376  -4.016  -0.090  0.00  0.00    -0.215 N 
ATOM      8  C   UNL     1       7.368  -2.641  -0.077  0.00  0.00    +0.133 C 
ATOM      9  C   UNL     1       6.193  -1.981  -0.069  0.00  0.00    +0.055 C 
ATOM     10  H   UNL     1       9.034  -4.734   0.697  0.00  0.00    +0.146 HD
ATOM     11  H   UNL     1       4.163  -4.520  -0.071  0.00  0.00    +0.167 HD
ENDROOT
BRANCH   1  17
ATOM     12  C   UNL     1      -0.016   1.357   0.009  0.00  0.00    +0.001 A 
ATOM     13  C   UNL     1       1.168   2.091   0.002  0.00  0.00    +0.001 A 
ATOM     14  C   UNL     1       2.378   1.468  -0.013  0.00  0.00    +0.008 A 
ATOM     15  C   UNL     1       2.437   0.063  -0.021  0.00  0.00    -0.017 A 
ATOM     16  C   UNL     1       3.667  -0.612  -0.036  0.00  0.00    +0.018 A 
ATOM     17  C   UNL     1       3.685  -1.995  -0.044  0.00  0.00    -0.001 A 
ATOM     18  C   UNL     1       2.483  -2.725  -0.036  0.00  0.00    +0.010 A 
ATOM     19  C   UNL     1       1.283  -2.090  -0.021  0.00  0.00    +0.009 A 
ATOM     20  C   UNL     1       1.232  -0.684  -0.013  0.00  0.00    -0.018 A 
ATOM     21  C   UNL     1       0.002  -0.004   0.002  0.00  0.00    +0.008 A 
ENDBRANCH   1  17
BRANCH   8  22
ATOM     22  C   UNL     1       8.666  -1.876  -0.080  0.00  0.00    +0.432 C 
ATOM     23  F   UNL     1       8.399  -0.503  -0.064  0.00  0.00    -0.165 F 
ATOM     24  F   UNL     1       9.412  -2.219   1.053  0.00  0.00    -0.165 F 
ATOM     25  F   UNL     1       9.394  -2.197  -1.231  0.00  0.00    -0.165 F 
ENDBRANCH   8  22
BRANCH   5  26
ATOM     26  C   UNL     1       8.324  -7.000   1.112  0.00  0.00    +0.236 C 
ATOM     27  O   UNL     1       9.088  -6.486   1.900  0.00  0.00    -0.274 OA
ATOM     28  N   UNL     1       7.868  -8.249   1.332  0.00  0.00    -0.313 N 
ATOM     29  H   UNL     1       7.256  -8.661   0.702  0.00  0.00    +0.149 HD
BRANCH  28  30
ATOM     30  C   UNL     1       8.295  -8.985   2.525  0.00  0.00    +0.110 C 
BRANCH  30  31
ATOM     31  C   UNL     1       7.637 -10.367   2.534  0.00  0.00    +0.073 C 
BRANCH  31  32
ATOM     32  C   UNL     1       8.077 -11.124   3.761  0.00  0.00    +0.035 A 
ATOM     33  H   UNL     1       8.057 -12.051   6.739  0.00  0.00    +0.166 HD
ATOM     34  C   UNL     1       7.519 -11.042   4.984  0.00  0.00    +0.105 A 
ATOM     35  N   UNL     1       8.221 -11.890   5.797  0.00  0.00    -0.352 N 
ATOM     36  C   UNL     1       9.185 -12.461   5.042  0.00  0.00    +0.171 A 
ATOM     37  N   UNL     1       9.089 -12.002   3.824  0.00  0.00    -0.350 N 
ATOM     38  H   UNL     1       9.661 -12.254   3.083  0.00  0.00    +0.166 HD
ENDBRANCH  31  32
ENDBRANCH  30  31
ENDBRANCH  28  30
ENDBRANCH   5  26
TORSDOF 6
