REMARK  Name = ZINC48345959
REMARK  8 active torsions:
REMARK  status: ('A' for Active; 'I' for Inactive)
REMARK    1  A    between atoms: C_1  and  C_2
REMARK    2  A    between atoms: C_10  and  C_11
REMARK    3  A    between atoms: N_13  and  N_14
REMARK    4  A    between atoms: C_15  and  C_17
REMARK    5  A    between atoms: C_17  and  N_18
REMARK    6  A    between atoms: C_19  and  C_21
REMARK    7  A    between atoms: N_31  and  C_32
REMARK    8  A    between atoms: C_32  and  C_33
REMARK                            x       y       z     vdW  Elec       q    Type
REMARK                         _______ _______ _______ _____ _____    ______ ____
ROOT
ATOM      1  N   UNL     1       0.616  -2.389   8.184  0.00  0.00    -0.305 N 
ATOM      2  C   UNL     1       0.165  -2.297   9.450  0.00  0.00    +0.239 C 
ATOM      3  O   UNL     1      -0.255  -1.239   9.870  0.00  0.00    -0.273 OA
ATOM      4  H   UNL     1       0.951  -3.235   7.848  0.00  0.00    +0.149 HD
ENDROOT
BRANCH   2   5
ATOM      5  C   UNL     1       0.183  -3.508  10.346  0.00  0.00    +0.194 C 
ATOM      6  C   UNL     1      -1.110  -4.273  10.210  0.00  0.00    -0.006 A 
ATOM      7  C   UNL     1      -1.730  -4.896   9.152  0.00  0.00    +0.007 A 
ATOM      8  C   UNL     1      -2.946  -5.532   9.339  0.00  0.00    +0.000 A 
ATOM      9  C   UNL     1      -3.540  -5.543  10.589  0.00  0.00    +0.001 A 
ATOM     10  C   UNL     1      -2.927  -4.922  11.657  0.00  0.00    +0.013 A 
ATOM     11  C   UNL     1      -1.701  -4.278  11.476  0.00  0.00    +0.042 A 
ATOM     12  C   UNL     1      -0.819  -3.541  12.401  0.00  0.00    +0.248 C 
ATOM     13  O   UNL     1      -1.045  -3.363  13.582  0.00  0.00    -0.270 OA
ATOM     14  N   UNL     1       0.271  -3.095  11.752  0.00  0.00    -0.278 N 
BRANCH  14  15
ATOM     15  C   UNL     1       1.366  -2.325  12.347  0.00  0.00    +0.144 C 
BRANCH  15  16
ATOM     16  C   UNL     1       2.478  -3.260  12.748  0.00  0.00    -0.030 A 
ATOM     17  C   UNL     1       2.444  -3.886  13.980  0.00  0.00    +0.005 A 
ATOM     18  C   UNL     1       3.464  -4.743  14.348  0.00  0.00    +0.000 A 
ATOM     19  C   UNL     1       4.517  -4.975  13.484  0.00  0.00    +0.000 A 
ATOM     20  C   UNL     1       4.551  -4.350  12.252  0.00  0.00    +0.000 A 
ATOM     21  C   UNL     1       3.529  -3.496  11.882  0.00  0.00    +0.005 A 
ENDBRANCH  15  16
ENDBRANCH  14  15
ENDBRANCH   2   5
BRANCH   1  22
ATOM     22  C   UNL     1       0.598  -1.211   7.313  0.00  0.00    +0.201 C 
BRANCH  22  24
ATOM     23  N   UNL     1       1.231  -0.647   4.989  0.00  0.00    -0.233 N 
ATOM     24  C   UNL     1       1.150  -1.579   5.960  0.00  0.00    +0.246 C 
ATOM     25  O   UNL     1       1.522  -2.713   5.744  0.00  0.00    -0.273 OA
ATOM     26  H   UNL     1       0.934   0.260   5.162  0.00  0.00    +0.173 HD
BRANCH  23  29
ATOM     27  C   UNL     1       1.826  -0.057   2.760  0.00  0.00    +0.296 C 
ATOM     28  O   UNL     1       1.453   1.081   2.977  0.00  0.00    -0.265 OA
ATOM     29  N   UNL     1       1.744  -0.989   3.731  0.00  0.00    -0.228 N 
ATOM     30  H   UNL     1       2.041  -1.896   3.558  0.00  0.00    +0.173 HD
BRANCH  27  40
ATOM     31  C   UNL     1       2.119   1.896   0.358  0.00  0.00    +0.048 C 
ATOM     32  C   UNL     1       2.493   0.437   0.391  0.00  0.00    +0.008 A 
ATOM     33  C   UNL     1       3.073  -0.347  -0.699  0.00  0.00    +0.024 A 
ATOM     34  C   UNL     1       3.447  -0.059  -2.013  0.00  0.00    +0.012 A 
ATOM     35  C   UNL     1       3.975  -1.044  -2.798  0.00  0.00    +0.001 A 
ATOM     36  C   UNL     1       4.142  -2.329  -2.298  0.00  0.00    +0.004 A 
ATOM     37  C   UNL     1       3.780  -2.633  -1.004  0.00  0.00    +0.047 A 
ATOM     38  C   UNL     1       3.240  -1.647  -0.186  0.00  0.00    +0.136 A 
ATOM     39  O   UNL     1       2.803  -1.642   1.088  0.00  0.00    -0.450 OA
ATOM     40  C   UNL     1       2.364  -0.415   1.441  0.00  0.00    +0.195 A 
ENDBRANCH  27  40
ENDBRANCH  23  29
ENDBRANCH  22  24
ENDBRANCH   1  22
TORSDOF 7
