REMARK  Name = ZINC25260578
REMARK  12 active torsions:
REMARK  status: ('A' for Active; 'I' for Inactive)
REMARK    1  A    between atoms: C_1  and  C_2
REMARK    2  A    between atoms: C_2  and  C_3
REMARK    3  A    between atoms: C_3  and  C_5
REMARK    4  A    between atoms: C_3  and  C_6
REMARK    5  A    between atoms: C_6  and  C_8
REMARK    6  A    between atoms: C_6  and  N_30
REMARK    7  A    between atoms: N_10  and  N_11
REMARK    8  A    between atoms: C_12  and  C_14
REMARK    9  A    between atoms: C_14  and  O_15
REMARK   10  A    between atoms: O_15  and  C_16
REMARK   11  A    between atoms: C_19  and  C_22
REMARK   12  A    between atoms: C_25  and  C_28
REMARK                            x       y       z     vdW  Elec       q    Type
REMARK                         _______ _______ _______ _____ _____    ______ ____
ROOT
ATOM      1  N   UNL     1      -4.608   0.431   1.289  0.00  0.00    -0.232 N 
ATOM      2  C   UNL     1      -5.873   0.882   1.402  0.00  0.00    +0.267 C 
ATOM      3  O   UNL     1      -6.155   1.998   1.019  0.00  0.00    -0.271 OA
ATOM      4  H   UNL     1      -4.352  -0.581   1.636  0.00  0.00    +0.173 HD
ENDROOT
BRANCH   1   7
ATOM      5  C   UNL     1      -2.354   0.799   0.618  0.00  0.00    +0.250 C 
ATOM      6  O   UNL     1      -2.072  -0.317   1.000  0.00  0.00    -0.272 OA
ATOM      7  N   UNL     1      -3.619   1.251   0.731  0.00  0.00    -0.233 N 
ATOM      8  H   UNL     1      -3.874   2.263   0.384  0.00  0.00    +0.173 HD
BRANCH   5   9
ATOM      9  C   UNL     1      -1.290   1.681   0.017  0.00  0.00    +0.165 C 
BRANCH   9  10
ATOM     10  N   UNL     1      -0.011   0.966   0.007  0.00  0.00    -0.288 N 
ATOM     11  C   UNL     1       1.147   1.655   0.000  0.00  0.00    +0.298 C 
ATOM     12  O   UNL     1       1.130   2.871   0.007  0.00  0.00    -0.253 OA
ATOM     13  N   UNL     1       2.323   0.998  -0.015  0.00  0.00    -0.313 N 
ATOM     14  H   UNL     1       0.004  -0.134   0.006  0.00  0.00    +0.151 HD
ATOM     15  H   UNL     1       3.268   1.560  -0.021  0.00  0.00    +0.146 HD
ATOM     16  H   UNL     1       2.338  -0.102  -0.021  0.00  0.00    +0.146 HD
ENDBRANCH   9  10
BRANCH   9  17
ATOM     17  C   UNL     1      -1.680   2.047  -1.416  0.00  0.00    +0.015 C 
ATOM     18  C   UNL     1      -0.600   2.943  -2.026  0.00  0.00    +0.010 C 
BRANCH  17  20
ATOM     19  C   UNL     1      -2.327   1.128  -3.647  0.00  0.00    +0.004 C 
ATOM     20  C   UNL     1      -1.816   0.772  -2.250  0.00  0.00    +0.002 C 
ENDBRANCH  17  20
ENDBRANCH   9  17
ENDBRANCH   5   9
ENDBRANCH   1   7
BRANCH   2  21
ATOM     21  C   UNL     1      -6.937   0.001   2.002  0.00  0.00    +0.326 C 
BRANCH  21  22
ATOM     22  O   UNL     1      -8.184   0.698   2.012  0.00  0.00    -0.483 OA
BRANCH  22  23
ATOM     23  C   UNL     1      -9.256   0.039   2.525  0.00  0.00    +0.121 A 
ATOM     24  C   UNL     1      -9.108  -1.256   3.004  0.00  0.00    +0.046 A 
ATOM     25  C   UNL     1     -10.192  -1.926   3.530  0.00  0.00    +0.012 A 
ATOM     26  C   UNL     1     -11.441  -1.306   3.570  0.00  0.00    -0.018 A 
ATOM     27  C   UNL     1     -11.587  -0.007   3.083  0.00  0.00    +0.012 A 
ATOM     28  C   UNL     1     -10.497   0.660   2.564  0.00  0.00    +0.046 A 
BRANCH  26  29
ATOM     29  C   UNL     1     -12.610  -2.025   4.128  0.00  0.00    -0.018 A 
ATOM     30  C   UNL     1     -13.857  -1.401   4.173  0.00  0.00    +0.010 A 
ATOM     31  C   UNL     1     -14.945  -2.070   4.686  0.00  0.00    +0.019 A 
ATOM     32  C   UNL     1     -14.797  -3.371   5.174  0.00  0.00    +0.052 A 
ATOM     33  C   UNL     1     -13.546  -3.994   5.134  0.00  0.00    +0.019 A 
ATOM     34  C   UNL     1     -12.461  -3.325   4.615  0.00  0.00    +0.010 A 
BRANCH  32  35
ATOM     35  C   UNL     1     -15.927  -4.066   5.714  0.00  0.00    +0.099 C 
ATOM     36  N   UNL     1     -16.823  -4.618   6.143  0.00  0.00    -0.191 NA
ENDBRANCH  32  35
ENDBRANCH  26  29
ENDBRANCH  22  23
ENDBRANCH  21  22
ENDBRANCH   2  21
TORSDOF 10
