REMARK  Name = ZINC36048675
REMARK  7 active torsions:
REMARK  status: ('A' for Active; 'I' for Inactive)
REMARK    1  A    between atoms: C_1  and  C_2
REMARK    2  A    between atoms: C_2  and  C_3
REMARK    3  A    between atoms: C_4  and  C_22
REMARK    4  A    between atoms: C_5  and  C_17
REMARK    5  A    between atoms: C_8  and  C_13
REMARK    6  A    between atoms: C_22  and  O_24
REMARK    7  A    between atoms: O_24  and  C_25
REMARK                            x       y       z     vdW  Elec       q    Type
REMARK                         _______ _______ _______ _____ _____    ______ ____
ROOT
ATOM      1  C   UNL     1       0.647  -1.012   1.370  0.00  0.00    +0.056 C 
ATOM      2  C   UNL     1       0.008  -1.042   2.574  0.00  0.00    +0.083 C 
ATOM      3  C   UNL     1       0.852  -1.206   3.819  0.00  0.00    +0.156 C 
ATOM      4  N   UNL     1       2.320  -1.322   3.624  0.00  0.00    -0.266 N 
ATOM      5  C   UNL     1       3.285  -1.476   4.581  0.00  0.00    +0.050 C 
ATOM      6  C   UNL     1       4.673  -1.567   4.120  0.00  0.00    +0.072 C 
ATOM      7  S   UNL     1       4.528  -1.435   2.451  0.00  0.00    -0.060 S 
ATOM      8  C   UNL     1       2.762  -1.268   2.326  0.00  0.00    +0.166 C 
ATOM      9  N   UNL     1       1.970  -1.130   1.298  0.00  0.00    -0.229 NA
ENDROOT
BRANCH   3  10
ATOM     10  C   UNL     1       0.595  -0.021   4.715  0.00  0.00    +0.015 A 
ATOM     11  C   UNL     1      -0.109   0.038   5.871  0.00  0.00    +0.013 A 
ATOM     12  C   UNL     1      -0.213   1.248   6.532  0.00  0.00    +0.008 A 
ATOM     13  C   UNL     1       0.393   2.339   6.003  0.00  0.00    +0.045 A 
ATOM     14  S   UNL     1       1.145   1.667   4.531  0.00  0.00    -0.099 S 
ENDBRANCH   3  10
BRANCH   5  15
ATOM     15  C   UNL     1       2.966  -1.544   5.921  0.00  0.00    +0.119 C 
ATOM     16  C   UNL     1       3.956  -1.902   6.867  0.00  0.00    +0.381 C 
ATOM     17  O   UNL     1       5.225  -2.051   6.482  0.00  0.00    -0.241 OA
ATOM     18  O   UNL     1       3.620  -2.091   8.145  0.00  0.00    -0.241 OA
ENDBRANCH   5  15
BRANCH   1  20
ATOM     19  C   UNL     1      -0.413   0.636  -0.149  0.00  0.00    +0.010 C 
ATOM     20  C   UNL     1      -0.155  -0.851   0.105  0.00  0.00    +0.053 C 
ENDBRANCH   1  20
BRANCH   2  21
ATOM     21  C   UNL     1      -1.397  -0.922   2.656  0.00  0.00    +0.339 C 
ATOM     22  O   UNL     1      -2.047  -0.681   1.656  0.00  0.00    -0.245 OA
BRANCH  21  23
ATOM     23  O   UNL     1      -2.019  -1.076   3.845  0.00  0.00    -0.465 OA
ATOM     24  C   UNL     1      -3.442  -0.942   3.855  0.00  0.00    +0.280 C 
ENDBRANCH  21  23
ENDBRANCH   2  21
TORSDOF 5
