REMARK  Name = ZINC39638209
REMARK  10 active torsions:
REMARK  status: ('A' for Active; 'I' for Inactive)
REMARK    1  A    between atoms: C_1  and  C_2
REMARK    2  A    between atoms: C_2  and  C_3
REMARK    3  A    between atoms: C_3  and  C_5
REMARK    4  A    between atoms: C_3  and  N_8
REMARK    5  A    between atoms: C_5  and  O_6
REMARK    6  A    between atoms: O_6  and  C_7
REMARK    7  A    between atoms: C_9  and  C_11
REMARK    8  A    between atoms: C_22  and  C_24
REMARK    9  A    between atoms: C_27  and  O_31
REMARK   10  A    between atoms: O_31  and  C_32
REMARK                            x       y       z     vdW  Elec       q    Type
REMARK                         _______ _______ _______ _____ _____    ______ ____
ROOT
ATOM      1  C   UNL     1      -3.564   1.355   3.335  0.00  0.00    +0.100 C 
ATOM      2  C   UNL     1      -2.313   1.295   4.241  0.00  0.00    +0.121 C 
ATOM      3  N   UNL     1      -1.823   2.693   4.295  0.00  0.00    -0.296 N 
ATOM      4  C   UNL     1      -3.055   3.513   4.375  0.00  0.00    +0.115 C 
ATOM      5  C   UNL     1      -4.050   2.811   3.429  0.00  0.00    -0.004 C 
ATOM      6  C   UNL     1      -5.459   2.861   4.012  0.00  0.00    -0.010 C 
ATOM      7  C   UNL     1      -5.943   4.314   4.041  0.00  0.00    -0.082 C 
ATOM      8  N   UNL     1      -5.936   4.861   2.679  0.00  0.00    +0.379 N 
ATOM      9  C   UNL     1      -4.563   4.896   2.161  0.00  0.00    -0.082 C 
ATOM     10  C   UNL     1      -4.020   3.468   2.052  0.00  0.00    -0.010 C 
ATOM     11  C   UNL     1      -0.545   3.121   4.276  0.00  0.00    +0.247 C 
ATOM     12  O   UNL     1       0.358   2.331   4.080  0.00  0.00    -0.270 OA
ATOM     13  H   UNL     1      -6.505   4.281   2.082  0.00  0.00    -0.086 HD
ATOM     14  H   UNL     1      -6.312   5.797   2.692  0.00  0.00    -0.086 HD
ENDROOT
BRANCH  11  15
ATOM     15  C   UNL     1      -0.242   4.549   4.494  0.00  0.00    +0.040 A 
ATOM     16  C   UNL     1      -1.170   5.372   5.138  0.00  0.00    +0.036 A 
ATOM     17  C   UNL     1      -0.884   6.705   5.339  0.00  0.00    +0.085 A 
ATOM     18  C   UNL     1       0.326   7.232   4.901  0.00  0.00    +0.157 A 
ATOM     19  C   UNL     1       1.252   6.416   4.260  0.00  0.00    +0.085 A 
ATOM     20  C   UNL     1       0.975   5.081   4.061  0.00  0.00    +0.036 A 
ATOM     21 CL   UNL     1       2.760   7.080   3.715  0.00  0.00    -0.080 Cl
ATOM     22 CL   UNL     1      -2.036   7.728   6.140  0.00  0.00    -0.080 Cl
BRANCH  18  23
ATOM     23  O   UNL     1       0.604   8.546   5.101  0.00  0.00    -0.492 OA
ATOM     24  C   UNL     1       1.266   8.891   6.319  0.00  0.00    +0.277 C 
ENDBRANCH  18  23
ENDBRANCH  11  15
BRANCH   1  26
ATOM     25  N   UNL     1      -4.139   0.542   1.071  0.00  0.00    -0.310 N 
ATOM     26  C   UNL     1      -3.199   1.015   1.913  0.00  0.00    +0.218 C 
ATOM     27  O   UNL     1      -2.059   1.165   1.527  0.00  0.00    -0.275 OA
ATOM     28  H   UNL     1      -5.050   0.422   1.379  0.00  0.00    +0.149 HD
BRANCH  25  29
ATOM     29  C   UNL     1      -3.784   0.211  -0.312  0.00  0.00    +0.098 C 
BRANCH  29  31
ATOM     30  C   UNL     1      -1.914  -1.278   0.414  0.00  0.00    +0.006 C 
ATOM     31  C   UNL     1      -3.227  -1.213  -0.368  0.00  0.00    +0.021 C 
ENDBRANCH  29  31
BRANCH  29  32
ATOM     32  C   UNL     1      -5.029   0.308  -1.195  0.00  0.00    +0.181 C 
BRANCH  32  33
ATOM     33  O   UNL     1      -5.973  -0.689  -0.798  0.00  0.00    -0.381 OA
ATOM     34  C   UNL     1      -7.179  -0.685  -1.564  0.00  0.00    +0.194 C 
ENDBRANCH  32  33
ENDBRANCH  29  32
ENDBRANCH  25  29
ENDBRANCH   1  26
TORSDOF 7
