REMARK  Name = ZINC59112996
REMARK  16 active torsions:
REMARK  status: ('A' for Active; 'I' for Inactive)
REMARK    1  A    between atoms: C_1  and  C_2
REMARK    2  A    between atoms: C_6  and  C_35
REMARK    3  A    between atoms: C_7  and  N_8
REMARK    4  A    between atoms: N_8  and  C_9
REMARK    5  A    between atoms: C_9  and  N_11
REMARK    6  A    between atoms: N_11  and  C_12
REMARK    7  A    between atoms: C_12  and  C_13
REMARK    8  A    between atoms: C_13  and  C_34
REMARK    9  A    between atoms: C_15  and  N_22
REMARK   10  A    between atoms: C_18  and  C_20
REMARK   11  A    between atoms: C_18  and  C_21
REMARK   12  A    between atoms: N_22  and  C_23
REMARK   13  A    between atoms: C_23  and  N_25
REMARK   14  A    between atoms: N_25  and  C_26
REMARK   15  A    between atoms: C_27  and  C_33
REMARK   16  A    between atoms: C_31  and  C_32
REMARK                            x       y       z     vdW  Elec       q    Type
REMARK                         _______ _______ _______ _____ _____    ______ ____
ROOT
ATOM      1  C   UNL     1      -4.935   7.735   3.968  0.00  0.00    -0.014 C 
ATOM      2  C   UNL     1      -5.056   6.638   5.020  0.00  0.00    +0.030 C 
ATOM      3  C   UNL     1      -5.328   7.237   6.398  0.00  0.00    +0.073 C 
ATOM      4  C   UNL     1      -4.154   8.132   6.788  0.00  0.00    +0.028 C 
ATOM      5  C   UNL     1      -3.998   9.282   5.800  0.00  0.00    -0.033 C 
ATOM      6  C   UNL     1      -3.938   8.810   4.359  0.00  0.00    +0.014 C 
ATOM      7  C   UNL     1      -2.667   9.998   6.122  0.00  0.00    +0.011 C 
ATOM      8  C   UNL     1      -5.123  10.301   6.000  0.00  0.00    +0.011 C 
ATOM      9  C   UNL     1      -6.312   8.338   3.679  0.00  0.00    +0.013 C 
ENDROOT
BRANCH   3  10
ATOM     10  N   UNL     1      -5.450   6.150   7.379  0.00  0.00    -0.323 N 
ATOM     11  H   UNL     1      -5.020   5.297   7.213  0.00  0.00    +0.148 HD
BRANCH  10  12
ATOM     12  C   UNL     1      -6.161   6.339   8.509  0.00  0.00    +0.135 C 
ATOM     13  S   UNL     1      -6.920   7.845   8.801  0.00  0.00    -0.019 S 
BRANCH  12  14
ATOM     14  N   UNL     1      -6.273   5.341   9.409  0.00  0.00    -0.296 N 
ATOM     15  H   UNL     1      -5.880   4.474   9.223  0.00  0.00    +0.154 HD
BRANCH  14  16
ATOM     16  C   UNL     1      -6.957   5.557  10.610  0.00  0.00    +0.038 A 
ATOM     17  C   UNL     1      -8.211   6.154  10.599  0.00  0.00    -0.029 A 
ATOM     18  C   UNL     1      -8.884   6.365  11.787  0.00  0.00    +0.005 A 
ATOM     19  C   UNL     1      -8.310   5.983  12.985  0.00  0.00    +0.001 A 
ATOM     20  C   UNL     1      -7.061   5.388  12.999  0.00  0.00    +0.005 A 
ATOM     21  C   UNL     1      -6.386   5.169  11.815  0.00  0.00    -0.029 A 
ATOM     22  C   UNL     1      -5.028   4.516  11.831  0.00  0.00    +0.045 C 
ATOM     23  C   UNL     1      -8.837   6.571   9.293  0.00  0.00    +0.045 C 
ENDBRANCH  14  16
ENDBRANCH  12  14
ENDBRANCH  10  12
ENDBRANCH   3  10
BRANCH   1  24
ATOM     24  C   UNL     1      -4.438   7.077   2.662  0.00  0.00    +0.110 C 
BRANCH  24  25
ATOM     25  N   UNL     1      -5.379   6.030   2.254  0.00  0.00    -0.326 N 
ATOM     26  H   UNL     1      -6.167   5.852   2.789  0.00  0.00    +0.148 HD
BRANCH  25  27
ATOM     27  C   UNL     1      -5.148   5.317   1.134  0.00  0.00    +0.135 C 
ATOM     28  S   UNL     1      -3.756   5.632   0.189  0.00  0.00    -0.019 S 
BRANCH  27  29
ATOM     29  N   UNL     1      -6.014   4.354   0.758  0.00  0.00    -0.296 N 
ATOM     30  H   UNL     1      -6.737   4.094   1.350  0.00  0.00    +0.154 HD
BRANCH  29  37
ATOM     31  C   UNL     1      -8.065   4.727  -1.178  0.00  0.00    +0.045 C 
ATOM     32  C   UNL     1      -6.847   3.886  -1.460  0.00  0.00    -0.029 A 
ATOM     33  C   UNL     1      -6.698   3.274  -2.689  0.00  0.00    +0.005 A 
ATOM     34  C   UNL     1      -5.581   2.502  -2.948  0.00  0.00    +0.001 A 
ATOM     35  C   UNL     1      -4.609   2.340  -1.978  0.00  0.00    +0.005 A 
ATOM     36  C   UNL     1      -4.751   2.949  -0.747  0.00  0.00    -0.029 A 
ATOM     37  C   UNL     1      -5.869   3.730  -0.485  0.00  0.00    +0.038 A 
ATOM     38  C   UNL     1      -3.691   2.773   0.310  0.00  0.00    +0.045 C 
ENDBRANCH  29  37
ENDBRANCH  27  29
ENDBRANCH  25  27
ENDBRANCH  24  25
ENDBRANCH   1  24
TORSDOF 9
