REMARK  Name = ZINC39534457
REMARK  12 active torsions:
REMARK  status: ('A' for Active; 'I' for Inactive)
REMARK    1  A    between atoms: C_1  and  C_2
REMARK    2  A    between atoms: C_2  and  C_3
REMARK    3  A    between atoms: C_2  and  S_4
REMARK    4  A    between atoms: S_4  and  C_7
REMARK    5  A    between atoms: C_10  and  C_13
REMARK    6  A    between atoms: C_13  and  C_15
REMARK    7  A    between atoms: C_13  and  N_24
REMARK    8  A    between atoms: C_15  and  N_16
REMARK    9  A    between atoms: N_16  and  C_17
REMARK   10  A    between atoms: C_22  and  O_23
REMARK   11  A    between atoms: C_28  and  O_31
REMARK   12  A    between atoms: O_31  and  C_32
REMARK                            x       y       z     vdW  Elec       q    Type
REMARK                         _______ _______ _______ _____ _____    ______ ____
ROOT
ATOM      1  C   UNL     1      -1.173  -6.581   0.472  0.00  0.00    -0.020 C 
ENDROOT
BRANCH   1   2
ATOM      2  N   UNL     1      -2.017  -6.928   1.623  0.00  0.00    +0.389 N 
ATOM      3  C   UNL     1      -1.837  -8.348   1.952  0.00  0.00    -0.062 C 
ATOM      4  C   UNL     1      -2.702  -8.705   3.163  0.00  0.00    +0.065 C 
ATOM      5  N   UNL     1      -4.112  -8.431   2.852  0.00  0.00    -0.295 NA
ATOM      6  C   UNL     1      -4.303  -7.017   2.497  0.00  0.00    +0.169 C 
ATOM      7  C   UNL     1      -3.425  -6.674   1.291  0.00  0.00    -0.030 C 
ATOM      8  H   UNL     1      -4.445  -9.036   2.117  0.00  0.00    +0.124 HD
ATOM      9  H   UNL     1      -1.752  -6.363   2.416  0.00  0.00    -0.081 HD
BRANCH   6  10
ATOM     10  O   UNL     1      -5.675  -6.789   2.168  0.00  0.00    -0.367 OA
ATOM     11  C   UNL     1      -6.545  -6.752   3.301  0.00  0.00    +0.196 C 
ENDBRANCH   6  10
ENDBRANCH   1   2
BRANCH   1  15
ATOM     12  C   UNL     1      -1.787  -2.481  -0.559  0.00  0.00    +0.088 A 
ATOM     13  C   UNL     1      -1.649  -3.431  -1.554  0.00  0.00    +0.027 A 
ATOM     14  C   UNL     1      -1.450  -4.758  -1.221  0.00  0.00    +0.004 A 
ATOM     15  C   UNL     1      -1.389  -5.135   0.108  0.00  0.00    -0.059 A 
ATOM     16  C   UNL     1      -1.526  -4.185   1.103  0.00  0.00    +0.004 A 
ATOM     17  C   UNL     1      -1.721  -2.857   0.769  0.00  0.00    +0.027 A 
BRANCH  12  18
ATOM     18  S   UNL     1      -2.041  -0.790  -0.985  0.00  0.00    -0.001 S 
ATOM     19  O   UNL     1      -2.724  -0.234   0.131  0.00  0.00    -0.169 OA
ATOM     20  O   UNL     1      -2.655  -0.827  -2.265  0.00  0.00    -0.169 OA
BRANCH  18  22
ATOM     21  C   UNL     1      -0.474   1.420  -1.357  0.00  0.00    +0.032 C 
ATOM     22  C   UNL     1      -0.374  -0.086  -1.111  0.00  0.00    +0.130 C 
ATOM     23  C   UNL     1       0.387  -0.341   0.191  0.00  0.00    +0.032 C 
ENDBRANCH  18  22
ENDBRANCH  12  18
ENDBRANCH   1  15
BRANCH   1  24
ATOM     24  C   UNL     1       0.297  -6.802   0.832  0.00  0.00    +0.091 C 
BRANCH  24  25
ATOM     25  N   UNL     1       1.133  -6.535  -0.341  0.00  0.00    -0.342 N 
ATOM     26  H   UNL     1       0.729  -6.208  -1.160  0.00  0.00    +0.146 HD
BRANCH  25  27
ATOM     27  C   UNL     1       2.515  -6.752  -0.280  0.00  0.00    +0.069 A 
ATOM     28  C   UNL     1       3.093  -7.225   0.889  0.00  0.00    +0.026 A 
ATOM     29  C   UNL     1       4.458  -7.439   0.947  0.00  0.00    +0.002 A 
ATOM     30  C   UNL     1       5.248  -7.182  -0.158  0.00  0.00    +0.004 A 
ATOM     31  C   UNL     1       4.678  -6.710  -1.326  0.00  0.00    +0.047 A 
ATOM     32  C   UNL     1       3.311  -6.498  -1.394  0.00  0.00    +0.138 A 
BRANCH  32  33
ATOM     33  O   UNL     1       2.749  -6.039  -2.544  0.00  0.00    -0.505 OA
ATOM     34  H   UNL     1       2.705  -5.075  -2.603  0.00  0.00    +0.292 HD
ENDBRANCH  32  33
ENDBRANCH  25  27
ENDBRANCH  24  25
ENDBRANCH   1  24
TORSDOF 9
