REMARK  Name = ZINC06196876
REMARK  10 active torsions:
REMARK  status: ('A' for Active; 'I' for Inactive)
REMARK    1  A    between atoms: C_1  and  C_2
REMARK    2  A    between atoms: C_2  and  O_3
REMARK    3  A    between atoms: O_3  and  C_4
REMARK    4  A    between atoms: C_11  and  C_16
REMARK    5  A    between atoms: C_16  and  C_18
REMARK    6  A    between atoms: C_16  and  N_69
REMARK    7  A    between atoms: N_22  and  C_23
REMARK    8  A    between atoms: C_23  and  C_24
REMARK    9  A    between atoms: C_27  and  O_30
REMARK   10  A    between atoms: O_30  and  C_31
REMARK                            x       y       z     vdW  Elec       q    Type
REMARK                         _______ _______ _______ _____ _____    ______ ____
ROOT
ATOM      1  C   UNL     1      -2.534   1.052   0.051  0.00  0.00    +0.039 C 
ENDROOT
BRANCH   1   9
ATOM      2  C   UNL     1       3.357  -0.875  -0.015  0.00  0.00    +0.121 A 
ATOM      3  C   UNL     1       3.909   0.316   0.450  0.00  0.00    +0.047 A 
ATOM      4  C   UNL     1       3.106   1.395   0.743  0.00  0.00    +0.030 A 
ATOM      5  C   UNL     1       1.728   1.302   0.573  0.00  0.00    +0.049 A 
ATOM      6  C   UNL     1       1.166   0.100   0.104  0.00  0.00    +0.002 A 
ATOM      7  C   UNL     1       1.993  -0.990  -0.190  0.00  0.00    +0.055 A 
ATOM      8  C   UNL     1      -0.286   0.015  -0.070  0.00  0.00    +0.017 A 
ATOM      9  C   UNL     1      -1.038   1.104   0.224  0.00  0.00    +0.011 A 
ATOM     10  C   UNL     1      -0.426   2.284   0.697  0.00  0.00    +0.251 A 
ATOM     11  O   UNL     1      -1.122   3.250   0.961  0.00  0.00    -0.268 OA
ATOM     12  N   UNL     1       0.906   2.372   0.860  0.00  0.00    -0.322 N 
ATOM     13  H   UNL     1       1.306   3.226   1.193  0.00  0.00    +0.169 HD
BRANCH   2  14
ATOM     14  O   UNL     1       4.166  -1.931  -0.299  0.00  0.00    -0.492 OA
BRANCH  14  16
ATOM     15  C   UNL     1       6.311  -3.032  -0.465  0.00  0.00    +0.048 C 
ATOM     16  C   UNL     1       5.568  -1.746  -0.096  0.00  0.00    +0.225 C 
ENDBRANCH  14  16
ENDBRANCH   2  14
ENDBRANCH   1   9
BRANCH   1  26
ATOM     17  C   UNL     1      -4.406   2.072  -1.102  0.00  0.00    -0.072 C 
ATOM     18  C   UNL     1      -4.868   3.411  -1.677  0.00  0.00    +0.017 C 
ATOM     19  C   UNL     1      -3.958   3.829  -2.803  0.00  0.00    -0.048 A 
ATOM     20  C   UNL     1      -4.396   4.814  -3.676  0.00  0.00    +0.004 A 
ATOM     21  C   UNL     1      -3.592   5.228  -4.719  0.00  0.00    +0.000 A 
ATOM     22  C   UNL     1      -2.344   4.659  -4.894  0.00  0.00    +0.000 A 
ATOM     23  C   UNL     1      -1.909   3.677  -4.027  0.00  0.00    +0.002 A 
ATOM     24  C   UNL     1      -2.716   3.259  -2.979  0.00  0.00    -0.061 A 
ATOM     25  C   UNL     1      -2.199   2.182  -2.062  0.00  0.00    -0.041 C 
ATOM     26  N   UNL     1      -2.964   2.182  -0.804  0.00  0.00    +0.392 N 
ATOM     27  H   UNL     1      -2.791   3.062  -0.306  0.00  0.00    -0.080 HD
ENDBRANCH   1  26
BRANCH   1  28
ATOM     28  C   UNL     1      -3.201   1.175   1.397  0.00  0.00    +0.143 A 
ATOM     29  N   UNL     1      -3.189   2.224   2.183  0.00  0.00    -0.115 NA
ATOM     30  N   UNL     1      -3.871   1.938   3.238  0.00  0.00    -0.023 NA
ATOM     31  N   UNL     1      -4.310   0.731   3.149  0.00  0.00    -0.044 NA
ATOM     32  N   UNL     1      -3.918   0.227   2.028  0.00  0.00    -0.226 N 
BRANCH  32  33
ATOM     33  C   UNL     1      -4.200  -1.123   1.535  0.00  0.00    +0.182 C 
BRANCH  33  34
ATOM     34  C   UNL     1      -3.203  -2.090   2.120  0.00  0.00    -0.026 A 
ATOM     35  C   UNL     1      -2.082  -2.449   1.394  0.00  0.00    +0.009 A 
ATOM     36  C   UNL     1      -1.164  -3.331   1.931  0.00  0.00    +0.046 A 
ATOM     37  C   UNL     1      -1.372  -3.864   3.194  0.00  0.00    +0.120 A 
ATOM     38  C   UNL     1      -2.500  -3.507   3.918  0.00  0.00    +0.046 A 
ATOM     39  C   UNL     1      -3.413  -2.621   3.380  0.00  0.00    +0.009 A 
BRANCH  37  40
ATOM     40  O   UNL     1      -0.473  -4.736   3.722  0.00  0.00    -0.495 OA
ATOM     41  C   UNL     1       0.665  -5.058   2.920  0.00  0.00    +0.277 C 
ENDBRANCH  37  40
ENDBRANCH  33  34
ENDBRANCH  32  33
ENDBRANCH   1  28
TORSDOF 8
