REMARK  Name = ZINC12660731
REMARK  14 active torsions:
REMARK  status: ('A' for Active; 'I' for Inactive)
REMARK    1  A    between atoms: C_2  and  C_3
REMARK    2  A    between atoms: C_3  and  C_4
REMARK    3  A    between atoms: C_4  and  C_5
REMARK    4  A    between atoms: C_5  and  C_6
REMARK    5  A    between atoms: C_6  and  C_7
REMARK    6  A    between atoms: C_7  and  C_8
REMARK    7  A    between atoms: C_8  and  C_9
REMARK    8  A    between atoms: C_9  and  C_10
REMARK    9  A    between atoms: C_10  and  C_11
REMARK   10  A    between atoms: C_11  and  O_13
REMARK   11  A    between atoms: O_13  and  C_14
REMARK   12  A    between atoms: C_29  and  O_34
REMARK   13  A    between atoms: C_35  and  C_36
REMARK   14  A    between atoms: C_35  and  N_75
REMARK                            x       y       z     vdW  Elec       q    Type
REMARK                         _______ _______ _______ _____ _____    ______ ____
ROOT
ATOM      1  C   UNL     1      -7.354   5.204   0.581  0.00  0.00    +0.173 A 
ATOM      2  C   UNL     1      -7.463   4.564  -0.652  0.00  0.00    +0.050 A 
ATOM      3  C   UNL     1      -6.786   3.397  -0.963  0.00  0.00    +0.008 A 
ATOM      4  C   UNL     1      -5.936   2.816  -0.037  0.00  0.00    -0.041 A 
ATOM      5  C   UNL     1      -5.776   3.503   1.144  0.00  0.00    +0.014 A 
ATOM      6  C   UNL     1      -6.486   4.635   1.519  0.00  0.00    +0.168 A 
ATOM      7  O   UNL     1      -6.205   4.961   2.799  0.00  0.00    -0.476 OA
ATOM      8  C   UNL     1      -5.599   3.809   3.459  0.00  0.00    +0.252 C 
ATOM      9  C   UNL     1      -4.896   3.108   2.304  0.00  0.00    +0.069 C 
ATOM     10  C   UNL     1      -3.483   3.646   2.085  0.00  0.00    -0.000 C 
ATOM     11  C   UNL     1      -2.963   3.107   0.746  0.00  0.00    -0.077 C 
ATOM     12  C   UNL     1      -4.357   1.121   0.954  0.00  0.00    -0.031 C 
ATOM     13  C   UNL     1      -5.249   1.501  -0.217  0.00  0.00    +0.023 C 
ATOM     14  C   UNL     1      -4.878   1.588   2.316  0.00  0.00    +0.068 C 
ATOM     15  C   UNL     1      -6.285   1.043   2.550  0.00  0.00    +0.042 C 
ATOM     16  C   UNL     1      -6.761   1.490   3.934  0.00  0.00    +0.081 C 
ATOM     17  C   UNL     1      -6.715   2.986   4.030  0.00  0.00    +0.175 C 
ATOM     18  O   UNL     1      -7.619   3.554   4.593  0.00  0.00    -0.293 OA
ATOM     19  N   UNL     1      -2.976   1.626   0.776  0.00  0.00    +0.386 N 
ATOM     20  H   UNL     1      -2.403   1.307   1.566  0.00  0.00    -0.081 HD
ENDROOT
BRANCH  14  21
ATOM     21  O   UNL     1      -4.002   1.128   3.346  0.00  0.00    -0.389 OA
ATOM     22  H   UNL     1      -3.917   0.166   3.389  0.00  0.00    +0.210 HD
ENDBRANCH  14  21
BRANCH   1  23
ATOM     23  O   UNL     1      -8.061   6.332   0.860  0.00  0.00    -0.422 OA
BRANCH  23  24
ATOM     24  C   UNL     1      -7.386   7.493   0.848  0.00  0.00    +0.312 C 
ATOM     25  O   UNL     1      -6.226   7.513   0.509  0.00  0.00    -0.250 OA
BRANCH  24  26
ATOM     26  C   UNL     1      -8.074   8.770   1.256  0.00  0.00    +0.121 C 
BRANCH  26  27
ATOM     27  C   UNL     1      -7.089   9.936   1.153  0.00  0.00    +0.011 C 
BRANCH  27  28
ATOM     28  C   UNL     1      -7.788  11.232   1.567  0.00  0.00    +0.001 C 
BRANCH  28  29
ATOM     29  C   UNL     1      -6.803  12.398   1.464  0.00  0.00    +0.000 C 
BRANCH  29  30
ATOM     30  C   UNL     1      -7.502  13.694   1.879  0.00  0.00    +0.000 C 
BRANCH  30  31
ATOM     31  C   UNL     1      -6.517  14.860   1.776  0.00  0.00    +0.000 C 
BRANCH  31  32
ATOM     32  C   UNL     1      -7.216  16.157   2.190  0.00  0.00    +0.004 C 
BRANCH  32  33
ATOM     33  C   UNL     1      -6.231  17.323   2.088  0.00  0.00    +0.026 C 
BRANCH  33  35
ATOM     34  C   UNL     1      -6.410  19.344   3.446  0.00  0.00    +0.004 C 
ATOM     35  C   UNL     1      -6.919  18.600   2.496  0.00  0.00    -0.034 C 
ENDBRANCH  33  35
ENDBRANCH  32  33
ENDBRANCH  31  32
ENDBRANCH  30  31
ENDBRANCH  29  30
ENDBRANCH  28  29
ENDBRANCH  27  28
ENDBRANCH  26  27
ENDBRANCH  24  26
ENDBRANCH  23  24
ENDBRANCH   1  23
BRANCH  19  36
ATOM     36  C   UNL     1      -2.404   1.095  -0.476  0.00  0.00    -0.051 C 
BRANCH  36  37
ATOM     37  C   UNL     1      -1.048   1.715  -0.695  0.00  0.00    -0.053 C 
ATOM     38  C   UNL     1       0.006   0.951  -0.839  0.00  0.00    +0.002 C 
ENDBRANCH  36  37
ENDBRANCH  19  36
TORSDOF 14
