REMARK  Name = ZINC59489456
REMARK  9 active torsions:
REMARK  status: ('A' for Active; 'I' for Inactive)
REMARK    1  A    between atoms: C_1  and  C_2
REMARK    2  A    between atoms: C_2  and  C_26
REMARK    3  A    between atoms: N_3  and  N_4
REMARK    4  A    between atoms: C_5  and  S_7
REMARK    5  A    between atoms: S_7  and  C_8
REMARK    6  A    between atoms: N_13  and  C_16
REMARK    7  A    between atoms: C_19  and  C_22
REMARK    8  A    between atoms: C_22  and  O_24
REMARK    9  A    between atoms: O_24  and  C_25
REMARK                            x       y       z     vdW  Elec       q    Type
REMARK                         _______ _______ _______ _____ _____    ______ ____
ROOT
ATOM      1  N   UNL     1      -0.327   0.909   2.604  0.00  0.00    -0.217 N 
ATOM      2  C   UNL     1      -0.244   0.001   3.636  0.00  0.00    +0.146 C 
ATOM      3  N   UNL     1      -0.302  -1.278   3.386  0.00  0.00    -0.380 N 
ATOM      4  H   UNL     1      -0.284   1.860   2.789  0.00  0.00    +0.176 HD
ATOM      5  H   UNL     1      -0.244  -1.917   4.114  0.00  0.00    +0.158 HD
ATOM      6  H   UNL     1      -0.402  -1.590   2.473  0.00  0.00    +0.158 HD
ENDROOT
BRANCH   1   9
ATOM      7  C   UNL     1      -0.483   2.791   0.600  0.00  0.00    +0.068 C 
ATOM      8  C   UNL     1      -0.549   1.313   0.312  0.00  0.00    +0.063 C 
ATOM      9  N   UNL     1      -0.472   0.458   1.285  0.00  0.00    -0.185 NA
BRANCH   8  10
ATOM     10  C   UNL     1      -0.702   0.840  -1.076  0.00  0.00    -0.002 A 
ATOM     11  C   UNL     1      -0.779   1.771  -2.128  0.00  0.00    +0.010 A 
ATOM     12  C   UNL     1      -0.920   1.359  -3.413  0.00  0.00    +0.009 A 
ATOM     13  C   UNL     1      -0.990  -0.015  -3.708  0.00  0.00    -0.018 A 
ATOM     14  C   UNL     1      -1.135  -0.465  -5.031  0.00  0.00    +0.008 A 
ATOM     15  C   UNL     1      -1.200  -1.800  -5.287  0.00  0.00    +0.001 A 
ATOM     16  C   UNL     1      -1.124  -2.733  -4.255  0.00  0.00    +0.001 A 
ATOM     17  C   UNL     1      -0.983  -2.336  -2.961  0.00  0.00    +0.008 A 
ATOM     18  C   UNL     1      -0.913  -0.964  -2.658  0.00  0.00    -0.017 A 
ATOM     19  C   UNL     1      -0.762  -0.520  -1.335  0.00  0.00    +0.018 A 
ENDBRANCH   8  10
ENDBRANCH   1   9
BRANCH   2  20
ATOM     20  S   UNL     1      -0.062   0.568   5.295  0.00  0.00    -0.078 S 
BRANCH  20  21
ATOM     21  C   UNL     1      -0.001  -0.958   6.275  0.00  0.00    +0.149 C 
ATOM     22  C   UNL     1       0.231  -0.636   7.766  0.00  0.00    +0.120 C 
ATOM     23  C   UNL     1      -1.008  -1.181   8.443  0.00  0.00    +0.228 C 
ATOM     24  O   UNL     1      -1.235  -1.135   9.632  0.00  0.00    -0.275 OA
ATOM     25  N   UNL     1      -1.813  -1.721   7.519  0.00  0.00    -0.209 N 
ATOM     26  C   UNL     1      -1.344  -1.653   6.263  0.00  0.00    +0.240 C 
ATOM     27  O   UNL     1      -1.906  -2.078   5.277  0.00  0.00    -0.274 OA
BRANCH  25  28
ATOM     28  C   UNL     1      -3.040  -2.309   7.837  0.00  0.00    +0.044 A 
ATOM     29  C   UNL     1      -4.086  -1.521   8.305  0.00  0.00    +0.025 A 
ATOM     30  C   UNL     1      -5.297  -2.097   8.620  0.00  0.00    +0.017 A 
ATOM     31  C   UNL     1      -5.474  -3.475   8.467  0.00  0.00    +0.059 A 
ATOM     32  C   UNL     1      -4.420  -4.263   7.996  0.00  0.00    +0.017 A 
ATOM     33  C   UNL     1      -3.214  -3.680   7.679  0.00  0.00    +0.025 A 
BRANCH  31  34
ATOM     34  C   UNL     1      -6.769  -4.096   8.804  0.00  0.00    +0.339 C 
ATOM     35  O   UNL     1      -7.683  -3.410   9.214  0.00  0.00    -0.245 OA
BRANCH  34  36
ATOM     36  O   UNL     1      -6.937  -5.425   8.656  0.00  0.00    -0.464 OA
ATOM     37  C   UNL     1      -8.217  -5.959   9.001  0.00  0.00    +0.280 C 
ENDBRANCH  34  36
ENDBRANCH  31  34
ENDBRANCH  25  28
ENDBRANCH  20  21
ENDBRANCH   2  20
TORSDOF 7
