REMARK  Name = ZINC39364547
REMARK  8 active torsions:
REMARK  status: ('A' for Active; 'I' for Inactive)
REMARK    1  A    between atoms: C_4  and  C_7
REMARK    2  A    between atoms: C_10  and  C_13
REMARK    3  A    between atoms: C_13  and  N_14
REMARK    4  A    between atoms: C_15  and  C_17
REMARK    5  A    between atoms: C_17  and  C_18
REMARK    6  A    between atoms: C_18  and  C_19
REMARK    7  A    between atoms: C_19  and  C_25
REMARK    8  A    between atoms: C_25  and  C_26
REMARK                            x       y       z     vdW  Elec       q    Type
REMARK                         _______ _______ _______ _____ _____    ______ ____
ROOT
ATOM      1  C   UNL     1       7.657  -6.851  -3.841  0.00  0.00    +0.035 C 
ENDROOT
BRANCH   1   2
ATOM      2  C   UNL     1       8.982  -7.564  -3.569  0.00  0.00    +0.039 C 
ATOM      3  C   UNL     1       8.900  -8.360  -2.247  0.00  0.00    +0.035 C 
ATOM      4  C   UNL     1       9.468  -7.342  -1.232  0.00  0.00    +0.098 C 
ATOM      5  C   UNL     1      10.345  -6.435  -2.066  0.00  0.00    +0.214 C 
ATOM      6  O   UNL     1      11.187  -5.683  -1.623  0.00  0.00    -0.276 OA
ATOM      7  N   UNL     1      10.056  -6.584  -3.370  0.00  0.00    -0.309 N 
ATOM      8  H   UNL     1      10.500  -6.105  -4.088  0.00  0.00    +0.149 HD
BRANCH   2   9
ATOM      9  C   UNL     1       9.328  -8.499  -4.731  0.00  0.00    +0.061 C 
BRANCH   9  10
ATOM     10  C   UNL     1       9.555  -7.686  -5.979  0.00  0.00    -0.038 A 
ATOM     11  C   UNL     1       8.537  -7.489  -6.862  0.00  0.00    +0.004 A 
ATOM     12  C   UNL     1       8.728  -6.740  -8.021  0.00  0.00    +0.001 A 
ATOM     13  C   UNL     1       9.938  -6.185  -8.305  0.00  0.00    +0.008 A 
ATOM     14  C   UNL     1      11.012  -6.367  -7.418  0.00  0.00    -0.018 A 
ATOM     15  C   UNL     1      10.816  -7.123  -6.236  0.00  0.00    -0.015 A 
ATOM     16  C   UNL     1      11.889  -7.300  -5.345  0.00  0.00    +0.009 A 
ATOM     17  C   UNL     1      13.097  -6.740  -5.627  0.00  0.00    +0.001 A 
ATOM     18  C   UNL     1      13.288  -5.991  -6.787  0.00  0.00    +0.001 A 
ATOM     19  C   UNL     1      12.276  -5.809  -7.678  0.00  0.00    +0.008 A 
ENDBRANCH   9  10
ENDBRANCH   2   9
ENDBRANCH   1   2
BRANCH   1  20
ATOM     20  C   UNL     1       7.375  -5.853  -2.717  0.00  0.00    +0.098 C 
BRANCH  20  22
ATOM     21  N   UNL     1       5.615  -4.220  -2.121  0.00  0.00    -0.310 N 
ATOM     22  C   UNL     1       6.069  -5.149  -2.985  0.00  0.00    +0.213 C 
ATOM     23  O   UNL     1       5.427  -5.420  -3.978  0.00  0.00    -0.276 OA
ATOM     24  H   UNL     1       6.128  -4.004  -1.327  0.00  0.00    +0.149 HD
BRANCH  21  25
ATOM     25  C   UNL     1       4.345  -3.537  -2.381  0.00  0.00    +0.161 C 
BRANCH  25  28
ATOM     26  C   UNL     1       3.711  -0.707  -0.038  0.00  0.00    +0.153 C 
ATOM     27  C   UNL     1       4.016  -1.229  -1.431  0.00  0.00    +0.030 C 
ATOM     28  C   UNL     1       4.067  -2.553  -1.273  0.00  0.00    +0.076 C 
ATOM     29  N   UNL     1       3.837  -2.893   0.014  0.00  0.00    -0.181 NA
ATOM     30  N   UNL     1       3.631  -1.936   0.770  0.00  0.00    -0.297 N 
ATOM     31  H   UNL     1       3.450  -1.984   1.722  0.00  0.00    +0.183 HD
BRANCH  26  35
ATOM     32  C   UNL     1      -0.017   1.378   0.010  0.00  0.00    +0.000 A 
ATOM     33  C   UNL     1       1.171   2.086   0.002  0.00  0.00    +0.000 A 
ATOM     34  C   UNL     1       2.377   1.411  -0.013  0.00  0.00    +0.006 A 
ATOM     35  C   UNL     1       2.396   0.029  -0.020  0.00  0.00    -0.020 A 
ATOM     36  C   UNL     1       1.208  -0.679  -0.012  0.00  0.00    +0.006 A 
ATOM     37  C   UNL     1       0.002  -0.004   0.002  0.00  0.00    +0.000 A 
ENDBRANCH  26  35
ENDBRANCH  25  28
ENDBRANCH  21  25
ENDBRANCH  20  22
ENDBRANCH   1  20
TORSDOF 8
