REMARK  Name = ZINC39659485
REMARK  8 active torsions:
REMARK  status: ('A' for Active; 'I' for Inactive)
REMARK    1  A    between atoms: C_1  and  C_2
REMARK    2  A    between atoms: C_2  and  C_34
REMARK    3  A    between atoms: C_5  and  C_8
REMARK    4  A    between atoms: C_8  and  N_9
REMARK    5  A    between atoms: C_10  and  C_12
REMARK    6  A    between atoms: C_23  and  C_25
REMARK    7  A    between atoms: C_27  and  O_32
REMARK    8  A    between atoms: O_32  and  C_33
REMARK                            x       y       z     vdW  Elec       q    Type
REMARK                         _______ _______ _______ _____ _____    ______ ____
ROOT
ATOM      1  C   UNL     1       3.352  -1.482   5.794  0.00  0.00    +0.100 C 
ATOM      2  C   UNL     1       4.405  -0.380   5.539  0.00  0.00    +0.121 C 
ATOM      3  N   UNL     1       5.382  -0.533   6.643  0.00  0.00    -0.296 N 
ATOM      4  C   UNL     1       5.516  -2.000   6.816  0.00  0.00    +0.115 C 
ATOM      5  C   UNL     1       4.085  -2.543   6.632  0.00  0.00    -0.004 C 
ATOM      6  C   UNL     1       4.119  -3.874   5.886  0.00  0.00    -0.010 C 
ATOM      7  C   UNL     1       4.801  -4.928   6.763  0.00  0.00    -0.082 C 
ATOM      8  N   UNL     1       4.064  -5.069   8.024  0.00  0.00    +0.379 N 
ATOM      9  C   UNL     1       4.116  -3.811   8.778  0.00  0.00    -0.082 C 
ATOM     10  C   UNL     1       3.405  -2.710   7.987  0.00  0.00    -0.010 C 
ATOM     11  C   UNL     1       6.006   0.441   7.335  0.00  0.00    +0.248 C 
ATOM     12  O   UNL     1       6.859   0.154   8.153  0.00  0.00    -0.270 OA
ATOM     13  H   UNL     1       3.103  -5.302   7.826  0.00  0.00    -0.086 HD
ATOM     14  H   UNL     1       4.479  -5.806   8.574  0.00  0.00    -0.086 HD
ENDROOT
BRANCH  11  15
ATOM     15  C   UNL     1       5.655   1.857   7.098  0.00  0.00    +0.054 A 
ATOM     16  C   UNL     1       5.328   2.292   5.813  0.00  0.00    +0.059 A 
ATOM     17  C   UNL     1       4.999   3.619   5.599  0.00  0.00    +0.121 A 
ATOM     18  C   UNL     1       4.995   4.515   6.660  0.00  0.00    +0.047 A 
ATOM     19  C   UNL     1       5.319   4.086   7.934  0.00  0.00    +0.019 A 
ATOM     20  C   UNL     1       5.643   2.763   8.161  0.00  0.00    +0.030 A 
ATOM     21 BR   UNL     1       6.078   2.180   9.906  0.00  0.00    -0.050 Br
BRANCH  17  22
ATOM     22  O   UNL     1       4.681   4.047   4.349  0.00  0.00    -0.495 OA
ATOM     23  C   UNL     1       4.352   5.429   4.200  0.00  0.00    +0.277 C 
ENDBRANCH  17  22
ENDBRANCH  11  15
BRANCH   1  25
ATOM     24  N   UNL     1       1.641  -2.580   4.385  0.00  0.00    -0.312 N 
ATOM     25  C   UNL     1       2.886  -2.074   4.489  0.00  0.00    +0.218 C 
ATOM     26  O   UNL     1       3.630  -2.095   3.532  0.00  0.00    -0.275 OA
ATOM     27  H   UNL     1       1.045  -2.563   5.151  0.00  0.00    +0.149 HD
BRANCH  24  28
ATOM     28  C   UNL     1       1.187  -3.155   3.117  0.00  0.00    +0.138 C 
BRANCH  28  33
ATOM     29  C   UNL     1      -2.677  -5.093   4.633  0.00  0.00    +0.074 C 
ATOM     30  C   UNL     1      -1.491  -5.510   3.761  0.00  0.00    +0.165 C 
ATOM     31  O   UNL     1      -1.771  -5.205   2.388  0.00  0.00    -0.347 OA
ATOM     32  C   UNL     1      -0.767  -4.270   1.944  0.00  0.00    +0.196 C 
ATOM     33  C   UNL     1      -0.251  -3.654   3.268  0.00  0.00    +0.164 C 
ATOM     34  O   UNL     1      -0.316  -4.788   4.165  0.00  0.00    -0.342 OA
ATOM     35  C   UNL     1      -1.247  -7.013   3.910  0.00  0.00    +0.074 C 
ENDBRANCH  28  33
ENDBRANCH  24  28
ENDBRANCH   1  25
TORSDOF 5
