REMARK  Name = ZINC14547958
REMARK  8 active torsions:
REMARK  status: ('A' for Active; 'I' for Inactive)
REMARK    1  A    between atoms: C_1  and  C_2
REMARK    2  A    between atoms: C_2  and  O_3
REMARK    3  A    between atoms: O_3  and  C_4
REMARK    4  A    between atoms: C_7  and  N_10
REMARK    5  A    between atoms: N_10  and  S_11
REMARK    6  A    between atoms: S_11  and  C_14
REMARK    7  A    between atoms: C_27  and  C_30
REMARK    8  A    between atoms: C_39  and  O_40
REMARK                            x       y       z     vdW  Elec       q    Type
REMARK                         _______ _______ _______ _____ _____    ______ ____
ROOT
ATOM      1  C   UNL     1       7.411   5.317  -0.504  0.00  0.00    +0.109 A 
ATOM      2  C   UNL     1       6.794   5.508  -1.727  0.00  0.00    +0.030 A 
ATOM      3  C   UNL     1       5.417   5.552  -1.800  0.00  0.00    +0.025 A 
ATOM      4  C   UNL     1       4.655   5.405  -0.647  0.00  0.00    +0.031 A 
ATOM      5  C   UNL     1       5.268   5.214   0.582  0.00  0.00    -0.018 A 
ATOM      6  C   UNL     1       6.655   5.171   0.641  0.00  0.00    +0.034 A 
ATOM      7  C   UNL     1       4.490   5.055   1.849  0.00  0.00    +0.049 C 
ATOM      8  C   UNL     1       4.481   3.618   2.314  0.00  0.00    -0.023 C 
ATOM      9  C   UNL     1       3.322   3.322   2.850  0.00  0.00    -0.030 C 
ATOM     10  C   UNL     1       2.400   4.525   2.820  0.00  0.00    +0.033 C 
ATOM     11  C   UNL     1       2.999   5.410   1.688  0.00  0.00    +0.029 C 
ATOM     12  C   UNL     1       2.473   4.867   0.356  0.00  0.00    +0.109 C 
ATOM     13  N   UNL     1       3.259   5.447  -0.737  0.00  0.00    -0.336 N 
ATOM     14  H   UNL     1       2.823   5.850  -1.504  0.00  0.00    +0.147 HD
ENDROOT
BRANCH  12  15
ATOM     15  C   UNL     1       2.609   3.366   0.335  0.00  0.00    +0.022 A 
ATOM     16  C   UNL     1       1.597   2.558   0.879  0.00  0.00    -0.009 A 
ATOM     17  C   UNL     1       0.444   3.121   1.453  0.00  0.00    +0.009 A 
ATOM     18  C   UNL     1      -0.516   2.307   1.972  0.00  0.00    +0.001 A 
ATOM     19  C   UNL     1      -0.376   0.921   1.938  0.00  0.00    +0.001 A 
ATOM     20  C   UNL     1       0.730   0.341   1.397  0.00  0.00    +0.008 A 
ATOM     21  C   UNL     1       1.742   1.148   0.851  0.00  0.00    -0.017 A 
ATOM     22  C   UNL     1       2.895   0.584   0.277  0.00  0.00    +0.012 A 
ATOM     23  C   UNL     1       3.856   1.393  -0.242  0.00  0.00    +0.046 A 
ATOM     24  C   UNL     1       3.715   2.785  -0.215  0.00  0.00    +0.122 A 
BRANCH  24  25
ATOM     25  O   UNL     1       4.693   3.568  -0.742  0.00  0.00    -0.506 OA
ATOM     26  H   UNL     1       4.636   3.676  -1.701  0.00  0.00    +0.292 HD
ENDBRANCH  24  25
ENDBRANCH  12  15
BRANCH   1  27
ATOM     27  S   UNL     1       9.169   5.260  -0.407  0.00  0.00    +0.072 S 
ATOM     28  O   UNL     1       9.488   4.429   0.701  0.00  0.00    -0.150 OA
ATOM     29  O   UNL     1       9.640   4.991  -1.721  0.00  0.00    -0.150 OA
BRANCH  27  30
ATOM     30  N   UNL     1       9.688   6.784  -0.021  0.00  0.00    -0.216 N 
ATOM     31  H   UNL     1      10.273   7.265  -0.626  0.00  0.00    +0.174 HD
BRANCH  30  35
ATOM     32  C   UNL     1       8.479   8.553   3.555  0.00  0.00    +0.121 A 
ATOM     33  C   UNL     1       9.434   7.547   3.567  0.00  0.00    +0.047 A 
ATOM     34  C   UNL     1       9.835   6.960   2.383  0.00  0.00    +0.028 A 
ATOM     35  C   UNL     1       9.282   7.378   1.180  0.00  0.00    +0.048 A 
ATOM     36  C   UNL     1       8.330   8.389   1.168  0.00  0.00    +0.028 A 
ATOM     37  C   UNL     1       7.926   8.971   2.353  0.00  0.00    +0.047 A 
BRANCH  32  38
ATOM     38  O   UNL     1       8.086   9.131   4.721  0.00  0.00    -0.492 OA
BRANCH  38  40
ATOM     39  C   UNL     1       6.786  10.686   6.037  0.00  0.00    +0.048 C 
ATOM     40  C   UNL     1       7.099  10.161   4.635  0.00  0.00    +0.225 C 
ENDBRANCH  38  40
ENDBRANCH  32  38
ENDBRANCH  30  35
ENDBRANCH  27  30
ENDBRANCH   1  27
TORSDOF 7
