REMARK  Name = ZINC36502210
REMARK  15 active torsions:
REMARK  status: ('A' for Active; 'I' for Inactive)
REMARK    1  A    between atoms: C_1  and  C_2
REMARK    2  A    between atoms: C_2  and  C_3
REMARK    3  A    between atoms: C_3  and  C_4
REMARK    4  A    between atoms: C_4  and  N_5
REMARK    5  A    between atoms: C_6  and  C_8
REMARK    6  A    between atoms: C_8  and  C_10
REMARK    7  A    between atoms: C_8  and  N_18
REMARK    8  A    between atoms: C_13  and  C_17
REMARK    9  A    between atoms: C_15  and  C_16
REMARK   10  A    between atoms: N_18  and  C_19
REMARK   11  A    between atoms: C_19  and  C_20
REMARK   12  A    between atoms: C_25  and  C_27
REMARK   13  A    between atoms: C_27  and  C_28
REMARK   14  A    between atoms: C_27  and  C_34
REMARK   15  A    between atoms: C_27  and  O_40
REMARK                            x       y       z     vdW  Elec       q    Type
REMARK                         _______ _______ _______ _____ _____    ______ ____
ROOT
ATOM      1  N   UNL     1       3.199  -6.631   4.364  0.00  0.00    -0.276 N 
ATOM      2  C   UNL     1       4.392  -6.794   3.758  0.00  0.00    +0.258 C 
ATOM      3  O   UNL     1       5.269  -5.972   3.918  0.00  0.00    -0.272 OA
ENDROOT
BRANCH   1   4
ATOM      4  C   UNL     1       2.927  -5.415   5.133  0.00  0.00    +0.193 C 
BRANCH   4   5
ATOM      5  C   UNL     1       2.525  -5.787   6.537  0.00  0.00    -0.015 A 
ATOM      6  C   UNL     1       1.203  -5.686   6.927  0.00  0.00    +0.006 A 
ATOM      7  C   UNL     1       0.834  -6.028   8.215  0.00  0.00    +0.004 A 
ATOM      8  C   UNL     1       1.788  -6.471   9.112  0.00  0.00    -0.050 A 
ATOM      9  C   UNL     1       3.110  -6.573   8.722  0.00  0.00    +0.007 A 
ATOM     10  C   UNL     1       3.478  -6.235   7.433  0.00  0.00    -0.045 A 
ATOM     11  C   UNL     1       4.918  -6.351   7.006  0.00  0.00    +0.044 C 
ATOM     12  C   UNL     1       1.385  -6.843  10.516  0.00  0.00    +0.044 C 
ENDBRANCH   4   5
BRANCH   4  14
ATOM     13  N   UNL     1       1.537  -3.385   4.874  0.00  0.00    -0.313 N 
ATOM     14  C   UNL     1       1.810  -4.644   4.478  0.00  0.00    +0.238 C 
ATOM     15  O   UNL     1       1.156  -5.158   3.595  0.00  0.00    -0.273 OA
ATOM     16  H   UNL     1       2.010  -3.001   5.628  0.00  0.00    +0.149 HD
BRANCH  13  17
ATOM     17  C   UNL     1       0.525  -2.598   4.165  0.00  0.00    +0.104 C 
BRANCH  17  18
ATOM     18  C   UNL     1       0.410  -1.216   4.811  0.00  0.00    +0.018 C 
BRANCH  18  20
ATOM     19  C   UNL     1      -0.761   0.989   4.715  0.00  0.00    +0.004 C 
ATOM     20  C   UNL     1      -0.646  -0.393   4.070  0.00  0.00    -0.002 C 
ENDBRANCH  18  20
ENDBRANCH  17  18
ENDBRANCH  13  17
ENDBRANCH   4  14
ENDBRANCH   1   4
BRANCH   1  21
ATOM     21  C   UNL     1       2.173  -7.671   4.253  0.00  0.00    +0.183 C 
BRANCH  21  22
ATOM     22  C   UNL     1       2.228  -8.563   5.466  0.00  0.00    +0.122 A 
ATOM     23  C   UNL     1       1.453  -8.451   6.560  0.00  0.00    +0.046 A 
ATOM     24  C   UNL     1       1.839  -9.485   7.444  0.00  0.00    +0.041 A 
ATOM     25  C   UNL     1       2.828 -10.167   6.837  0.00  0.00    +0.195 A 
ATOM     26  O   UNL     1       3.055  -9.607   5.637  0.00  0.00    -0.466 OA
ENDBRANCH  21  22
ENDBRANCH   1  21
BRANCH   2  27
ATOM     27  C   UNL     1       4.635  -7.996   2.883  0.00  0.00    +0.192 C 
BRANCH  27  28
ATOM     28  C   UNL     1       3.900  -7.825   1.579  0.00  0.00    -0.003 A 
ATOM     29  C   UNL     1       3.856  -6.585   0.968  0.00  0.00    +0.007 A 
ATOM     30  C   UNL     1       3.182  -6.428  -0.229  0.00  0.00    +0.000 A 
ATOM     31  C   UNL     1       2.553  -7.511  -0.815  0.00  0.00    +0.000 A 
ATOM     32  C   UNL     1       2.599  -8.750  -0.205  0.00  0.00    +0.000 A 
ATOM     33  C   UNL     1       3.276  -8.908   0.990  0.00  0.00    +0.007 A 
ENDBRANCH  27  28
BRANCH  27  34
ATOM     34  C   UNL     1       6.112  -8.132   2.614  0.00  0.00    -0.003 A 
ATOM     35  C   UNL     1       6.838  -7.039   2.180  0.00  0.00    +0.007 A 
ATOM     36  C   UNL     1       8.192  -7.163   1.933  0.00  0.00    +0.000 A 
ATOM     37  C   UNL     1       8.821  -8.379   2.122  0.00  0.00    +0.000 A 
ATOM     38  C   UNL     1       8.095  -9.472   2.557  0.00  0.00    +0.000 A 
ATOM     39  C   UNL     1       6.741  -9.347   2.808  0.00  0.00    +0.007 A 
ENDBRANCH  27  34
BRANCH  27  40
ATOM     40  O   UNL     1       4.162  -9.171   3.546  0.00  0.00    -0.371 OA
ATOM     41  H   UNL     1       4.592  -9.344   4.394  0.00  0.00    +0.212 HD
ENDBRANCH  27  40
ENDBRANCH   2  27
TORSDOF 12
