REMARK  Name = ZINC39843429
REMARK  6 active torsions:
REMARK  status: ('A' for Active; 'I' for Inactive)
REMARK    1  A    between atoms: C_14  and  C_15
REMARK    2  A    between atoms: N_16  and  N_17
REMARK    3  A    between atoms: C_22  and  C_25
REMARK    4  A    between atoms: C_25  and  C_26
REMARK    5  A    between atoms: N_28  and  C_29
REMARK    6  A    between atoms: C_32  and  N_35
REMARK                            x       y       z     vdW  Elec       q    Type
REMARK                         _______ _______ _______ _____ _____    ______ ____
ROOT
ATOM      1  N   UNL     1       7.177   0.258   0.046  0.00  0.00    -0.127 NA
ATOM      2  C   UNL     1       8.345  -0.347   0.128  0.00  0.00    +0.183 C 
ATOM      3  N   UNL     1       8.598  -1.698   0.224  0.00  0.00    -0.263 N 
ATOM      4  C   UNL     1       9.824  -2.188   0.300  0.00  0.00    +0.233 C 
ATOM      5  O   UNL     1      10.039  -3.378   0.385  0.00  0.00    -0.274 OA
ATOM      6  C   UNL     1      10.948  -1.164   0.275  0.00  0.00    +0.149 C 
ATOM      7  S   UNL     1       9.973   0.390   0.133  0.00  0.00    -0.075 S 
ATOM      8  H   UNL     1       7.849  -2.314   0.237  0.00  0.00    +0.157 HD
ENDROOT
BRANCH   1  10
ATOM      9  C   UNL     1       4.928   0.167  -0.025  0.00  0.00    +0.144 C 
ATOM     10  N   UNL     1       6.089  -0.435   0.057  0.00  0.00    -0.155 NA
BRANCH   9  24
ATOM     11  C   UNL     1       3.849  -4.790  -0.085  0.00  0.00    +0.001 A 
ATOM     12  C   UNL     1       5.027  -4.046  -0.098  0.00  0.00    +0.001 A 
ATOM     13  C   UNL     1       5.012  -2.686  -0.075  0.00  0.00    +0.009 A 
ATOM     14  C   UNL     1       3.783  -2.006  -0.038  0.00  0.00    -0.009 A 
ATOM     15  C   UNL     1       2.544  -2.785  -0.025  0.00  0.00    -0.017 A 
ATOM     16  C   UNL     1       2.629  -4.193  -0.050  0.00  0.00    +0.008 A 
ATOM     17  C   UNL     1       1.306  -2.140   0.012  0.00  0.00    +0.017 A 
ATOM     18  C   UNL     1       1.246  -0.746   0.036  0.00  0.00    -0.017 A 
ATOM     19  C   UNL     1       0.005  -0.073   0.074  0.00  0.00    +0.008 A 
ATOM     20  C   UNL     1      -0.020   1.285   0.098  0.00  0.00    +0.001 A 
ATOM     21  C   UNL     1       1.153   2.038   0.085  0.00  0.00    +0.001 A 
ATOM     22  C   UNL     1       2.379   1.450   0.049  0.00  0.00    +0.009 A 
ATOM     23  C   UNL     1       2.475   0.048   0.024  0.00  0.00    -0.009 A 
ATOM     24  C   UNL     1       3.732  -0.595  -0.013  0.00  0.00    +0.010 A 
ENDBRANCH   9  24
ENDBRANCH   1  10
BRANCH   6  25
ATOM     25  C   UNL     1      11.851  -1.362  -0.944  0.00  0.00    +0.120 C 
BRANCH  25  26
ATOM     26  C   UNL     1      13.017  -0.410  -0.866  0.00  0.00    +0.219 C 
ATOM     27  O   UNL     1      13.116   0.352   0.073  0.00  0.00    -0.275 OA
ATOM     28  N   UNL     1      13.949  -0.405  -1.839  0.00  0.00    -0.285 N 
ATOM     29  H   UNL     1      13.831  -0.957  -2.627  0.00  0.00    +0.155 HD
BRANCH  28  30
ATOM     30  C   UNL     1      15.089   0.397  -1.712  0.00  0.00    +0.034 A 
ATOM     31  C   UNL     1      15.649   0.993  -2.834  0.00  0.00    +0.025 A 
ATOM     32  C   UNL     1      16.774   1.784  -2.705  0.00  0.00    +0.034 A 
ATOM     33  C   UNL     1      17.342   1.983  -1.460  0.00  0.00    +0.126 A 
ATOM     34  C   UNL     1      16.787   1.391  -0.341  0.00  0.00    +0.034 A 
ATOM     35  C   UNL     1      15.658   0.604  -0.462  0.00  0.00    +0.025 A 
BRANCH  33  36
ATOM     36  N   UNL     1      18.547   2.832  -1.325  0.00  0.00    +0.056 N 
ATOM     37  O   UNL     1      19.034   3.350  -2.303  0.00  0.00    -0.126 OA
ATOM     38  O   UNL     1      19.045   3.006  -0.237  0.00  0.00    -0.126 OA
ENDBRANCH  33  36
ENDBRANCH  28  30
ENDBRANCH  25  26
ENDBRANCH   6  25
TORSDOF 6
