REMARK  Name = ZINC36502267
REMARK  18 active torsions:
REMARK  status: ('A' for Active; 'I' for Inactive)
REMARK    1  A    between atoms: C_1  and  C_2
REMARK    2  A    between atoms: C_3  and  C_4
REMARK    3  A    between atoms: C_4  and  C_6
REMARK    4  A    between atoms: C_4  and  N_17
REMARK    5  A    between atoms: N_8  and  C_9
REMARK    6  A    between atoms: C_9  and  C_10
REMARK    7  A    between atoms: C_9  and  C_11
REMARK    8  A    between atoms: C_9  and  C_12
REMARK    9  A    between atoms: C_12  and  C_13
REMARK   10  A    between atoms: C_13  and  C_14
REMARK   11  A    between atoms: C_13  and  C_15
REMARK   12  A    between atoms: C_13  and  C_16
REMARK   13  A    between atoms: N_17  and  C_18
REMARK   14  A    between atoms: C_18  and  C_19
REMARK   15  A    between atoms: C_24  and  C_26
REMARK   16  A    between atoms: C_26  and  C_27
REMARK   17  A    between atoms: C_26  and  C_33
REMARK   18  A    between atoms: C_26  and  O_39
REMARK                            x       y       z     vdW  Elec       q    Type
REMARK                         _______ _______ _______ _____ _____    ______ ____
ROOT
ATOM      1  N   UNL     1       2.322  -2.652  -1.467  0.00  0.00    -0.276 N 
ATOM      2  C   UNL     1       1.232  -3.443  -1.427  0.00  0.00    +0.258 C 
ATOM      3  O   UNL     1       0.593  -3.544  -0.401  0.00  0.00    -0.272 OA
ENDROOT
BRANCH   1   4
ATOM      4  C   UNL     1       2.688  -1.849  -0.297  0.00  0.00    +0.185 C 
BRANCH   4   5
ATOM      5  C   UNL     1       3.930  -2.420   0.336  0.00  0.00    +0.238 C 
ATOM      6  O   UNL     1       4.464  -3.395  -0.147  0.00  0.00    -0.273 OA
ATOM      7  N   UNL     1       4.447  -1.847   1.441  0.00  0.00    -0.308 N 
ATOM      8  H   UNL     1       3.983  -1.109   1.867  0.00  0.00    +0.149 HD
BRANCH   7   9
ATOM      9  C   UNL     1       5.710  -2.337   1.998  0.00  0.00    +0.030 C 
ATOM     10  C   UNL     1       5.516  -3.760   2.525  0.00  0.00    +0.031 C 
ATOM     11  C   UNL     1       6.782  -2.340   0.906  0.00  0.00    +0.031 C 
BRANCH   9  12
ATOM     12  C   UNL     1       6.151  -1.424   3.144  0.00  0.00    +0.031 C 
BRANCH  12  13
ATOM     13  C   UNL     1       5.818   0.028   2.796  0.00  0.00    -0.036 C 
ATOM     14  C   UNL     1       4.395   0.349   3.257  0.00  0.00    +0.010 C 
ATOM     15  C   UNL     1       6.805   0.961   3.501  0.00  0.00    +0.010 C 
ATOM     16  C   UNL     1       5.920   0.226   1.283  0.00  0.00    +0.010 C 
ENDBRANCH  12  13
ENDBRANCH   9  12
ENDBRANCH   7   9
ENDBRANCH   4   5
BRANCH   4  19
ATOM     17  C   UNL     1       2.787   1.414  -2.320  0.00  0.00    +0.035 C 
ATOM     18  C   UNL     1       2.532  -0.009  -1.895  0.00  0.00    -0.032 C 
ATOM     19  C   UNL     1       2.950  -0.428  -0.726  0.00  0.00    +0.000 C 
ENDBRANCH   4  19
ENDBRANCH   1   4
BRANCH   1  20
ATOM     20  C   UNL     1       3.143  -2.597  -2.679  0.00  0.00    +0.183 C 
BRANCH  20  21
ATOM     21  C   UNL     1       4.464  -3.275  -2.423  0.00  0.00    +0.122 A 
ATOM     22  C   UNL     1       4.706  -4.594  -2.533  0.00  0.00    +0.046 A 
ATOM     23  C   UNL     1       6.066  -4.790  -2.203  0.00  0.00    +0.041 A 
ATOM     24  C   UNL     1       6.575  -3.579  -1.911  0.00  0.00    +0.195 A 
ATOM     25  O   UNL     1       5.601  -2.665  -2.051  0.00  0.00    -0.466 OA
ENDBRANCH  20  21
ENDBRANCH   1  20
BRANCH   2  26
ATOM     26  C   UNL     1       0.805  -4.200  -2.658  0.00  0.00    +0.192 C 
BRANCH  26  27
ATOM     27  C   UNL     1      -0.235  -5.224  -2.282  0.00  0.00    -0.003 A 
ATOM     28  C   UNL     1      -1.579  -4.919  -2.397  0.00  0.00    +0.007 A 
ATOM     29  C   UNL     1      -2.533  -5.858  -2.053  0.00  0.00    +0.000 A 
ATOM     30  C   UNL     1      -2.143  -7.102  -1.594  0.00  0.00    +0.000 A 
ATOM     31  C   UNL     1      -0.800  -7.408  -1.480  0.00  0.00    +0.000 A 
ATOM     32  C   UNL     1       0.154  -6.471  -1.828  0.00  0.00    +0.007 A 
ENDBRANCH  26  27
BRANCH  26  33
ATOM     33  C   UNL     1       0.224  -3.240  -3.663  0.00  0.00    -0.003 A 
ATOM     34  C   UNL     1      -0.331  -2.047  -3.239  0.00  0.00    +0.007 A 
ATOM     35  C   UNL     1      -0.863  -1.165  -4.161  0.00  0.00    +0.000 A 
ATOM     36  C   UNL     1      -0.841  -1.477  -5.508  0.00  0.00    +0.000 A 
ATOM     37  C   UNL     1      -0.285  -2.669  -5.932  0.00  0.00    +0.000 A 
ATOM     38  C   UNL     1       0.251  -3.549  -5.010  0.00  0.00    +0.007 A 
ENDBRANCH  26  33
BRANCH  26  39
ATOM     39  O   UNL     1       1.938  -4.859  -3.228  0.00  0.00    -0.371 OA
ATOM     40  H   UNL     1       2.386  -5.465  -2.622  0.00  0.00    +0.212 HD
ENDBRANCH  26  39
ENDBRANCH   2  26
TORSDOF 12
