REMARK  Name = ZINC40985837
REMARK  12 active torsions:
REMARK  status: ('A' for Active; 'I' for Inactive)
REMARK    1  A    between atoms: C_1  and  C_2
REMARK    2  A    between atoms: C_5  and  C_8
REMARK    3  A    between atoms: C_8  and  S_9
REMARK    4  A    between atoms: S_9  and  C_10
REMARK    5  A    between atoms: C_13  and  C_17
REMARK    6  A    between atoms: N_19  and  C_20
REMARK    7  A    between atoms: C_20  and  C_21
REMARK    8  A    between atoms: C_21  and  C_23
REMARK    9  A    between atoms: C_21  and  N_32
REMARK   10  A    between atoms: C_26  and  C_29
REMARK   11  A    between atoms: C_29  and  C_30
REMARK   12  A    between atoms: C_29  and  C_31
REMARK                            x       y       z     vdW  Elec       q    Type
REMARK                         _______ _______ _______ _____ _____    ______ ____
ROOT
ATOM      1  C   UNL     1       1.899 -13.166  -1.490  0.00  0.00    +0.248 C 
ATOM      2  O   UNL     1       2.528 -12.409  -0.775  0.00  0.00    -0.270 OA
ATOM      3  N   UNL     1       0.594 -13.395  -1.245  0.00  0.00    -0.312 N 
ATOM      4  H   UNL     1       0.092 -13.999  -1.815  0.00  0.00    +0.149 HD
ENDROOT
BRANCH   1   8
ATOM      5  C   UNL     1       3.776 -15.047  -4.687  0.00  0.00    +0.190 A 
ATOM      6  N   UNL     1       2.490 -15.286  -4.462  0.00  0.00    -0.229 NA
ATOM      7  C   UNL     1       1.858 -14.709  -3.458  0.00  0.00    +0.129 A 
ATOM      8  C   UNL     1       2.565 -13.834  -2.623  0.00  0.00    +0.092 A 
ATOM      9  C   UNL     1       3.923 -13.608  -2.895  0.00  0.00    +0.146 A 
ATOM     10  N   UNL     1       4.483 -14.230  -3.917  0.00  0.00    -0.209 NA
ATOM     11 CL   UNL     1       4.855 -12.534  -1.899  0.00  0.00    -0.061 Cl
BRANCH   5  12
ATOM     12  S   UNL     1       4.570 -15.845  -6.043  0.00  0.00    -0.081 S 
BRANCH  12  13
ATOM     13  C   UNL     1       3.255 -16.843  -6.796  0.00  0.00    +0.112 C 
BRANCH  13  18
ATOM     14  C   UNL     1       5.371 -19.699 -11.353  0.00  0.00    +0.044 C 
ATOM     15  C   UNL     1       4.819 -18.954 -10.164  0.00  0.00    -0.050 A 
ATOM     16  C   UNL     1       4.857 -19.531  -8.909  0.00  0.00    +0.003 A 
ATOM     17  C   UNL     1       4.351 -18.847  -7.819  0.00  0.00    +0.005 A 
ATOM     18  C   UNL     1       3.808 -17.587  -7.984  0.00  0.00    -0.037 A 
ATOM     19  C   UNL     1       3.771 -17.010  -9.240  0.00  0.00    +0.005 A 
ATOM     20  C   UNL     1       4.281 -17.691 -10.329  0.00  0.00    +0.003 A 
ENDBRANCH  13  18
ENDBRANCH  12  13
ENDBRANCH   5  12
ENDBRANCH   1   8
BRANCH   3  21
ATOM     21  C   UNL     1      -0.068 -12.732  -0.118  0.00  0.00    +0.094 C 
BRANCH  21  22
ATOM     22  C   UNL     1      -1.560 -13.071  -0.132  0.00  0.00    -0.020 C 
BRANCH  22  23
ATOM     23  N   UNL     1      -2.240 -12.331   0.939  0.00  0.00    +0.385 N 
ATOM     24  C   UNL     1      -3.660 -12.699   0.961  0.00  0.00    -0.078 C 
ATOM     25  C   UNL     1      -4.356 -11.992   2.127  0.00  0.00    -0.019 C 
ATOM     26  C   UNL     1      -4.223 -10.477   1.951  0.00  0.00    -0.004 C 
ATOM     27  C   UNL     1      -2.739 -10.113   1.855  0.00  0.00    -0.019 C 
ATOM     28  C   UNL     1      -2.102 -10.889   0.699  0.00  0.00    -0.078 C 
ATOM     29  H   UNL     1      -1.820 -12.564   1.827  0.00  0.00    -0.081 HD
ENDBRANCH  22  23
BRANCH  22  30
ATOM     30  C   UNL     1      -1.741 -14.551   0.086  0.00  0.00    -0.059 A 
ATOM     31  C   UNL     1      -1.675 -15.074   1.364  0.00  0.00    +0.002 A 
ATOM     32  C   UNL     1      -1.841 -16.431   1.565  0.00  0.00    +0.004 A 
ATOM     33  C   UNL     1      -2.074 -17.266   0.488  0.00  0.00    -0.045 A 
ATOM     34  C   UNL     1      -2.142 -16.742  -0.790  0.00  0.00    +0.004 A 
ATOM     35  C   UNL     1      -1.980 -15.384  -0.990  0.00  0.00    +0.002 A 
BRANCH  33  36
ATOM     36  C   UNL     1      -2.255 -18.746   0.706  0.00  0.00    +0.013 C 
ATOM     37  C   UNL     1      -3.637 -19.171   0.205  0.00  0.00    +0.012 C 
ATOM     38  C   UNL     1      -1.176 -19.510  -0.064  0.00  0.00    +0.012 C 
ENDBRANCH  33  36
ENDBRANCH  22  30
ENDBRANCH  21  22
ENDBRANCH   3  21
TORSDOF 9
