REMARK  Name = ZINC40815185
REMARK  7 active torsions:
REMARK  status: ('A' for Active; 'I' for Inactive)
REMARK    1  A    between atoms: C_1  and  C_2
REMARK    2  A    between atoms: C_5  and  S_8
REMARK    3  A    between atoms: S_8  and  N_11
REMARK    4  A    between atoms: N_11  and  N_12
REMARK    5  A    between atoms: C_19  and  C_33
REMARK    6  A    between atoms: C_20  and  C_22
REMARK    7  A    between atoms: N_24  and  C_25
REMARK                            x       y       z     vdW  Elec       q    Type
REMARK                         _______ _______ _______ _____ _____    ______ ____
ROOT
ATOM      1  N   UNL     1       2.495  -4.631   1.022  0.00  0.00    -0.170 NA
ATOM      2  C   UNL     1       3.737  -5.003   1.016  0.00  0.00    +0.071 C 
ATOM      3  C   UNL     1       4.330  -5.849  -0.102  0.00  0.00    +0.058 C 
ATOM      4  C   UNL     1       5.232  -6.915   0.530  0.00  0.00    +0.014 C 
ATOM      5  C   UNL     1       6.423  -6.264   1.237  0.00  0.00    +0.075 C 
ATOM      6  C   UNL     1       5.924  -5.216   2.200  0.00  0.00    +0.115 A 
ATOM      7  C   UNL     1       4.684  -4.632   2.093  0.00  0.00    +0.042 A 
ATOM      8  C   UNL     1       4.558  -3.712   3.141  0.00  0.00    +0.009 A 
ATOM      9  C   UNL     1       5.732  -3.767   3.840  0.00  0.00    +0.193 A 
ATOM     10  O   UNL     1       6.538  -4.688   3.256  0.00  0.00    -0.454 OA
ATOM     11  C   UNL     1       3.368  -2.837   3.438  0.00  0.00    +0.048 C 
ENDROOT
BRANCH   9  12
ATOM     12  C   UNL     1       6.059  -2.972   5.029  0.00  0.00    +0.284 C 
ATOM     13  O   UNL     1       5.249  -2.180   5.473  0.00  0.00    -0.266 OA
ATOM     14  N   UNL     1       7.257  -3.120   5.629  0.00  0.00    -0.279 N 
ATOM     15  H   UNL     1       7.876  -3.798   5.317  0.00  0.00    +0.155 HD
BRANCH  14  16
ATOM     16  C   UNL     1       7.607  -2.295   6.704  0.00  0.00    +0.035 A 
ATOM     17  C   UNL     1       8.924  -1.883   6.865  0.00  0.00    +0.025 A 
ATOM     18  C   UNL     1       9.267  -1.069   7.926  0.00  0.00    +0.023 A 
ATOM     19  C   UNL     1       8.300  -0.662   8.829  0.00  0.00    +0.059 A 
ATOM     20  C   UNL     1       6.987  -1.071   8.671  0.00  0.00    +0.061 A 
ATOM     21  C   UNL     1       6.637  -1.882   7.607  0.00  0.00    +0.044 A 
ATOM     22 CL   UNL     1       5.777  -0.559   9.806  0.00  0.00    -0.082 Cl
ATOM     23 CL   UNL     1       8.736   0.361  10.162  0.00  0.00    -0.082 Cl
ENDBRANCH  14  16
ENDBRANCH   9  12
BRANCH   1  24
ATOM     24  N   UNL     1       1.644  -5.011  -0.024  0.00  0.00    -0.136 N 
ATOM     25  H   UNL     1       1.984  -5.554  -0.753  0.00  0.00    +0.197 HD
BRANCH  24  26
ATOM     26  S   UNL     1       0.058  -4.535  -0.016  0.00  0.00    +0.086 S 
ATOM     27  O   UNL     1      -0.482  -4.945   1.233  0.00  0.00    -0.149 OA
ATOM     28  O   UNL     1      -0.496  -4.947  -1.258  0.00  0.00    -0.149 OA
BRANCH  26  33
ATOM     29  C   UNL     1       0.003   1.498  -0.021  0.00  0.00    +0.044 C 
ATOM     30  C   UNL     1       0.017  -0.009  -0.020  0.00  0.00    -0.050 A 
ATOM     31  C   UNL     1       0.018  -0.701  -1.216  0.00  0.00    +0.005 A 
ATOM     32  C   UNL     1       0.031  -2.083  -1.215  0.00  0.00    +0.029 A 
ATOM     33  C   UNL     1       0.043  -2.773  -0.018  0.00  0.00    +0.110 A 
ATOM     34  C   UNL     1       0.043  -2.081   1.179  0.00  0.00    +0.029 A 
ATOM     35  C   UNL     1       0.035  -0.699   1.178  0.00  0.00    +0.005 A 
ENDBRANCH  26  33
ENDBRANCH  24  26
ENDBRANCH   1  24
TORSDOF 5
