REMARK  Name = ZINC47128511
REMARK  6 active torsions:
REMARK  status: ('A' for Active; 'I' for Inactive)
REMARK    1  A    between atoms: C_1  and  C_2
REMARK    2  A    between atoms: C_2  and  C_4
REMARK    3  A    between atoms: C_2  and  N_17
REMARK    4  A    between atoms: C_7  and  N_10
REMARK    5  A    between atoms: N_13  and  C_14
REMARK    6  A    between atoms: C_24  and  C_26
REMARK                            x       y       z     vdW  Elec       q    Type
REMARK                         _______ _______ _______ _____ _____    ______ ____
ROOT
ATOM      1  C   UNL     1      -0.191   1.534  -0.099  0.00  0.00    +0.033 C 
ATOM      2  C   UNL     1       0.012   0.021  -0.002  0.00  0.00    +0.102 C 
ENDROOT
BRANCH   2   3
ATOM      3  N   UNL     1       0.826  -0.288   1.176  0.00  0.00    -0.293 N 
ATOM      4  C   UNL     1       0.241  -0.420   2.383  0.00  0.00    +0.303 C 
ATOM      5  O   UNL     1      -0.962  -0.282   2.494  0.00  0.00    -0.253 OA
ATOM      6  N   UNL     1       0.989  -0.704   3.468  0.00  0.00    -0.279 N 
ATOM      7  C   UNL     1       2.451  -0.890   3.477  0.00  0.00    +0.110 C 
ATOM      8  C   UNL     1       2.731  -1.769   4.722  0.00  0.00    +0.021 C 
ATOM      9  C   UNL     1       1.692  -1.217   5.733  0.00  0.00    +0.029 C 
ATOM     10  C   UNL     1       0.483  -0.874   4.838  0.00  0.00    +0.108 C 
ATOM     11  H   UNL     1       1.785  -0.398   1.088  0.00  0.00    +0.151 HD
BRANCH  10  12
ATOM     12  C   UNL     1      -0.161   0.404   5.308  0.00  0.00    -0.020 A 
ATOM     13  C   UNL     1      -1.308   0.369   6.080  0.00  0.00    +0.013 A 
ATOM     14  C   UNL     1      -1.862   1.537   6.487  0.00  0.00    +0.045 A 
ATOM     15  S   UNL     1      -0.753   2.740   5.773  0.00  0.00    -0.105 S 
ATOM     16  C   UNL     1       0.378   1.605   4.986  0.00  0.00    +0.050 A 
ENDBRANCH  10  12
ENDBRANCH   2   3
BRANCH   2  17
ATOM     17  C   UNL     1       0.715  -0.472  -1.241  0.00  0.00    -0.027 A 
ATOM     18  C   UNL     1       2.086  -0.335  -1.357  0.00  0.00    +0.007 A 
ATOM     19  C   UNL     1       2.733  -0.785  -2.491  0.00  0.00    +0.023 A 
ATOM     20  C   UNL     1       2.005  -1.376  -3.515  0.00  0.00    +0.035 A 
ATOM     21  C   UNL     1       0.628  -1.513  -3.396  0.00  0.00    +0.023 A 
ATOM     22  C   UNL     1      -0.012  -1.065  -2.257  0.00  0.00    +0.007 A 
BRANCH  20  23
ATOM     23  N   UNL     1       2.658  -1.833  -4.666  0.00  0.00    -0.269 N 
ATOM     24  C   UNL     1       3.907  -2.331  -4.579  0.00  0.00    +0.304 C 
ATOM     25  O   UNL     1       4.431  -2.473  -3.491  0.00  0.00    -0.253 OA
ATOM     26  N   UNL     1       4.576  -2.671  -5.699  0.00  0.00    -0.296 N 
ATOM     27  H   UNL     1       2.211  -1.792  -5.526  0.00  0.00    +0.156 HD
ATOM     28  H   UNL     1       4.158  -2.558  -6.567  0.00  0.00    +0.151 HD
BRANCH  26  29
ATOM     29  C   UNL     1       5.934  -3.212  -5.604  0.00  0.00    +0.075 C 
ATOM     30  C   UNL     1       6.976  -2.683  -6.593  0.00  0.00    +0.024 C 
ATOM     31  C   UNL     1       6.422  -4.101  -6.751  0.00  0.00    +0.024 C 
ENDBRANCH  26  29
ENDBRANCH  20  23
ENDBRANCH   2  17
TORSDOF 5
