REMARK  Name = ZINC39632409
REMARK  3 active torsions:
REMARK  status: ('A' for Active; 'I' for Inactive)
REMARK    1  A    between atoms: C_3  and  C_9
REMARK    2  A    between atoms: C_13  and  C_22
REMARK    3  A    between atoms: N_24  and  C_25
REMARK                            x       y       z     vdW  Elec       q    Type
REMARK                         _______ _______ _______ _____ _____    ______ ____
ROOT
ATOM      1  C   UNL     1       3.443   2.108   0.063  0.00  0.00    +0.248 C 
ATOM      2  O   UNL     1       4.480   1.474   0.067  0.00  0.00    -0.270 OA
ATOM      3  N   UNL     1       3.473   3.447  -0.088  0.00  0.00    -0.296 N 
ATOM      4  C   UNL     1       2.336   4.395  -0.014  0.00  0.00    +0.121 C 
ATOM      5  C   UNL     1       2.902   5.627   0.727  0.00  0.00    +0.100 C 
ATOM      6  C   UNL     1       4.421   5.563   0.491  0.00  0.00    -0.004 C 
ATOM      7  C   UNL     1       4.651   4.305  -0.359  0.00  0.00    +0.115 C 
ATOM      8  C   UNL     1       5.157   5.435   1.822  0.00  0.00    -0.010 C 
ATOM      9  C   UNL     1       6.666   5.431   1.566  0.00  0.00    -0.082 C 
ATOM     10  N   UNL     1       7.053   6.674   0.887  0.00  0.00    +0.379 N 
ATOM     11  C   UNL     1       6.412   6.744  -0.432  0.00  0.00    -0.082 C 
ATOM     12  C   UNL     1       4.892   6.804  -0.261  0.00  0.00    -0.010 C 
ATOM     13  H   UNL     1       6.762   7.464   1.443  0.00  0.00    -0.086 HD
ATOM     14  H   UNL     1       8.055   6.696   0.774  0.00  0.00    -0.086 HD
ENDROOT
BRANCH   1  17
ATOM     15  C   UNL     1      -0.183   1.206  -0.309  0.00  0.00    +0.002 A 
ATOM     16  C   UNL     1       1.021   1.861  -0.463  0.00  0.00    +0.014 A 
ATOM     17  C   UNL     1       2.150   1.411   0.224  0.00  0.00    +0.057 A 
ATOM     18  C   UNL     1       2.052   0.299   1.064  0.00  0.00    +0.071 A 
ATOM     19  C   UNL     1       0.839  -0.348   1.208  0.00  0.00    +0.060 A 
ATOM     20  C   UNL     1      -0.275   0.105   0.524  0.00  0.00    +0.021 A 
ATOM     21 CL   UNL     1       0.713  -1.731   2.250  0.00  0.00    -0.082 Cl
ATOM     22 CL   UNL     1       3.450  -0.270   1.922  0.00  0.00    -0.081 Cl
ENDBRANCH   1  17
BRANCH   5  23
ATOM     23  C   UNL     1       2.332   6.896   0.147  0.00  0.00    +0.218 C 
ATOM     24  O   UNL     1       2.039   6.947  -1.029  0.00  0.00    -0.275 OA
ATOM     25  N   UNL     1       2.148   7.973   0.935  0.00  0.00    -0.312 N 
ATOM     26  H   UNL     1       2.382   7.932   1.875  0.00  0.00    +0.149 HD
BRANCH  25  27
ATOM     27  C   UNL     1       1.594   9.207   0.371  0.00  0.00    +0.073 C 
ATOM     28  C   UNL     1       2.728  10.085  -0.195  0.00  0.00    +0.022 C 
ATOM     29  C   UNL     1       2.291  11.533   0.141  0.00  0.00    +0.002 C 
ATOM     30  C   UNL     1       1.652  11.381   1.544  0.00  0.00    +0.002 C 
ATOM     31  C   UNL     1       0.909  10.030   1.476  0.00  0.00    +0.022 C 
ENDBRANCH  25  27
ENDBRANCH   5  23
TORSDOF 3
