REMARK  Name = ZINC25386815
REMARK  5 active torsions:
REMARK  status: ('A' for Active; 'I' for Inactive)
REMARK    1  A    between atoms: C_1  and  O_2
REMARK    2  A    between atoms: O_2  and  C_3
REMARK    3  A    between atoms: C_6  and  C_9
REMARK    4  A    between atoms: C_10  and  C_20
REMARK    5  A    between atoms: N_12  and  C_14
REMARK                            x       y       z     vdW  Elec       q    Type
REMARK                         _______ _______ _______ _____ _____    ______ ____
ROOT
ATOM      1  C   UNL     1       2.928  -2.288  -4.361  0.00  0.00    +0.100 A 
ATOM      2  C   UNL     1       3.307  -3.644  -4.312  0.00  0.00    +0.039 A 
ATOM      3  C   UNL     1       3.296  -4.125  -5.574  0.00  0.00    +0.122 A 
ATOM      4  N   UNL     1       2.925  -3.113  -6.402  0.00  0.00    -0.239 N 
ATOM      5  N   UNL     1       2.695  -1.975  -5.619  0.00  0.00    -0.166 NA
ENDROOT
BRANCH   2   6
ATOM      6  C   UNL     1       3.660  -4.421  -3.070  0.00  0.00    +0.212 C 
ATOM      7  N   UNL     1       3.353  -5.850  -3.264  0.00  0.00    -0.293 N 
ATOM      8  C   UNL     1       4.240  -6.654  -3.927  0.00  0.00    +0.183 C 
ATOM      9  N   UNL     1       5.540  -6.417  -3.895  0.00  0.00    -0.183 NA
ATOM     10  C   UNL     1       5.979  -5.317  -3.239  0.00  0.00    +0.236 A 
ATOM     11  N   UNL     1       5.103  -4.329  -2.813  0.00  0.00    -0.285 N 
ATOM     12  C   UNL     1       5.837  -3.372  -2.180  0.00  0.00    +0.072 A 
ATOM     13  C   UNL     1       5.497  -2.183  -1.546  0.00  0.00    +0.028 A 
ATOM     14  C   UNL     1       6.531  -1.441  -0.998  0.00  0.00    +0.002 A 
ATOM     15  C   UNL     1       7.850  -1.853  -1.070  0.00  0.00    +0.002 A 
ATOM     16  C   UNL     1       8.215  -3.032  -1.694  0.00  0.00    +0.030 A 
ATOM     17  C   UNL     1       7.188  -3.800  -2.255  0.00  0.00    +0.091 A 
ATOM     18  N   UNL     1       7.205  -4.979  -2.918  0.00  0.00    -0.210 NA
ATOM     19  N   UNL     1       3.773  -7.727  -4.637  0.00  0.00    -0.331 N 
ATOM     20  H   UNL     1       2.821  -7.910  -4.667  0.00  0.00    +0.145 HD
ATOM     21  H   UNL     1       4.393  -8.303  -5.110  0.00  0.00    +0.145 HD
ATOM     22  H   UNL     1       2.523  -6.219  -2.923  0.00  0.00    +0.151 HD
ENDBRANCH   2   6
BRANCH   1  26
ATOM     23  C   UNL     1       2.582   0.334  -1.030  0.00  0.00    +0.120 A 
ATOM     24  C   UNL     1       3.202   0.770  -2.193  0.00  0.00    +0.046 A 
ATOM     25  C   UNL     1       3.316  -0.078  -3.275  0.00  0.00    +0.013 A 
ATOM     26  C   UNL     1       2.808  -1.374  -3.199  0.00  0.00    +0.003 A 
ATOM     27  C   UNL     1       2.187  -1.809  -2.030  0.00  0.00    +0.013 A 
ATOM     28  C   UNL     1       2.081  -0.958  -0.949  0.00  0.00    +0.046 A 
BRANCH  23  30
ATOM     29  C   UNL     1       3.009   2.487  -0.116  0.00  0.00    +0.277 C 
ATOM     30  O   UNL     1       2.471   1.171   0.035  0.00  0.00    -0.495 OA
ENDBRANCH  23  30
ENDBRANCH   1  26
BRANCH   4  31
ATOM     31  C   UNL     1       2.792  -3.196  -7.794  0.00  0.00    +0.065 A 
ATOM     32  C   UNL     1       3.043  -4.395  -8.447  0.00  0.00    +0.028 A 
ATOM     33  C   UNL     1       2.910  -4.473  -9.820  0.00  0.00    +0.002 A 
ATOM     34  C   UNL     1       2.529  -3.359 -10.543  0.00  0.00    +0.000 A 
ATOM     35  C   UNL     1       2.279  -2.163  -9.896  0.00  0.00    +0.002 A 
ATOM     36  C   UNL     1       2.403  -2.080  -8.523  0.00  0.00    +0.028 A 
ENDBRANCH   4  31
TORSDOF 4
