REMARK  Name = ZINC09836513
REMARK  9 active torsions:
REMARK  status: ('A' for Active; 'I' for Inactive)
REMARK    1  A    between atoms: C_1  and  C_2
REMARK    2  A    between atoms: C_2  and  C_4
REMARK    3  A    between atoms: C_2  and  N_46
REMARK    4  A    between atoms: C_11  and  C_12
REMARK    5  A    between atoms: C_11  and  N_46
REMARK    6  A    between atoms: N_14  and  C_15
REMARK    7  A    between atoms: C_16  and  C_23
REMARK    8  A    between atoms: C_23  and  O_25
REMARK    9  A    between atoms: O_25  and  C_26
REMARK                            x       y       z     vdW  Elec       q    Type
REMARK                         _______ _______ _______ _____ _____    ______ ____
ROOT
ATOM      1  C   UNL     1       1.286   3.516   0.009  0.00  0.00    +0.201 C 
ATOM      2  O   UNL     1       0.212   4.079   0.022  0.00  0.00    -0.278 OA
ATOM      3  N   UNL     1       2.425   4.236   0.002  0.00  0.00    -0.281 N 
ATOM      4  H   UNL     1       3.284   3.785  -0.009  0.00  0.00    +0.155 HD
ENDROOT
BRANCH   3   5
ATOM      5  C   UNL     1       2.369   5.621   0.010  0.00  0.00    +0.086 A 
ATOM      6  C   UNL     1       3.419   6.525   0.010  0.00  0.00    +0.091 A 
ATOM      7  C   UNL     1       3.085   7.949   0.015  0.00  0.00    -0.021 A 
ATOM      8  C   UNL     1       1.769   8.228   0.029  0.00  0.00    -0.004 A 
ATOM      9  S   UNL     1       0.971   6.641   0.029  0.00  0.00    -0.077 S 
ATOM     10  C   UNL     1       1.506   9.709   0.037  0.00  0.00    +0.043 C 
ATOM     11  C   UNL     1       2.841  10.344  -0.411  0.00  0.00    +0.010 C 
ATOM     12  C   UNL     1       3.860   9.268   0.017  0.00  0.00    +0.037 C 
BRANCH   6  13
ATOM     13  C   UNL     1       4.811   6.071   0.001  0.00  0.00    +0.342 C 
ATOM     14  O   UNL     1       5.385   5.889  -1.056  0.00  0.00    -0.245 OA
BRANCH  13  15
ATOM     15  O   UNL     1       5.457   5.855   1.165  0.00  0.00    -0.464 OA
ATOM     16  C   UNL     1       6.836   5.407   1.081  0.00  0.00    +0.280 C 
ENDBRANCH  13  15
ENDBRANCH   6  13
ENDBRANCH   3   5
BRANCH   1  17
ATOM     17  C   UNL     1       1.346   2.010   0.000  0.00  0.00    +0.016 C 
BRANCH  17  18
ATOM     18  N   UNL     1      -0.027   1.471   0.010  0.00  0.00    +0.389 N 
ATOM     19  H   UNL     1      -0.512   1.795   0.855  0.00  0.00    -0.084 HD
ATOM     20  H   UNL     1      -0.528   1.804  -0.822  0.00  0.00    -0.084 HD
BRANCH  18  22
ATOM     21  C   UNL     1       0.121  -0.505  -1.439  0.00  0.00    -0.009 C 
ATOM     22  C   UNL     1       0.002  -0.004   0.002  0.00  0.00    -0.043 C 
BRANCH  22  23
ATOM     23  C   UNL     1      -1.273  -0.527   0.612  0.00  0.00    -0.062 A 
ATOM     24  C   UNL     1      -2.476   0.096   0.338  0.00  0.00    +0.003 A 
ATOM     25  C   UNL     1      -3.647  -0.387   0.893  0.00  0.00    +0.020 A 
ATOM     26  C   UNL     1      -3.612  -1.487   1.731  0.00  0.00    +0.041 A 
ATOM     27  C   UNL     1      -2.407  -2.107   2.009  0.00  0.00    +0.020 A 
ATOM     28  C   UNL     1      -1.238  -1.626   1.449  0.00  0.00    +0.003 A 
ATOM     29 CL   UNL     1      -5.081  -2.089   2.434  0.00  0.00    -0.084 Cl
ENDBRANCH  22  23
ENDBRANCH  18  22
ENDBRANCH  17  18
ENDBRANCH   1  17
TORSDOF 7
