REMARK  Name = ZINC11344205
REMARK  7 active torsions:
REMARK  status: ('A' for Active; 'I' for Inactive)
REMARK    1  A    between atoms: C_6  and  N_7
REMARK    2  A    between atoms: N_7  and  S_8
REMARK    3  A    between atoms: S_8  and  C_11
REMARK    4  A    between atoms: C_15  and  C_17
REMARK    5  A    between atoms: C_17  and  O_19
REMARK    6  A    between atoms: O_19  and  C_20
REMARK    7  A    between atoms: C_20  and  C_21
REMARK                            x       y       z     vdW  Elec       q    Type
REMARK                         _______ _______ _______ _____ _____    ______ ____
ROOT
ATOM      1  C   UNL     1       1.519   2.282   0.035  0.00  0.00    +0.109 A 
ATOM      2  C   UNL     1       2.241   2.392   1.212  0.00  0.00    +0.030 A 
ATOM      3  C   UNL     1       3.532   2.884   1.194  0.00  0.00    +0.023 A 
ATOM      4  C   UNL     1       4.108   3.281   0.003  0.00  0.00    +0.055 A 
ATOM      5  C   UNL     1       3.382   3.178  -1.187  0.00  0.00    +0.079 A 
ATOM      6  C   UNL     1       2.080   2.674  -1.161  0.00  0.00    +0.045 A 
ATOM      7 CL   UNL     1       5.727   3.905  -0.017  0.00  0.00    -0.083 Cl
ENDROOT
BRANCH   1   8
ATOM      8  S   UNL     1      -0.124   1.646   0.069  0.00  0.00    +0.072 S 
ATOM      9  O   UNL     1      -0.819   2.258  -1.009  0.00  0.00    -0.150 OA
ATOM     10  O   UNL     1      -0.570   1.744   1.415  0.00  0.00    -0.150 OA
BRANCH   8  11
ATOM     11  N   UNL     1      -0.032   0.031  -0.282  0.00  0.00    -0.216 N 
ATOM     12  H   UNL     1      -0.449  -0.315  -1.087  0.00  0.00    +0.174 HD
BRANCH  11  18
ATOM     13  C   UNL     1       1.901  -1.320   0.233  0.00  0.00    +0.025 A 
ATOM     14  C   UNL     1       2.572  -2.170   1.089  0.00  0.00    +0.017 A 
ATOM     15  C   UNL     1       1.991  -2.547   2.288  0.00  0.00    +0.018 A 
ATOM     16  C   UNL     1       0.740  -2.069   2.633  0.00  0.00    +0.017 A 
ATOM     17  C   UNL     1       0.066  -1.214   1.783  0.00  0.00    +0.025 A 
ATOM     18  C   UNL     1       0.647  -0.834   0.580  0.00  0.00    +0.048 A 
ATOM     19 BR   UNL     1       2.910  -3.717   3.455  0.00  0.00    -0.050 Br
ENDBRANCH  11  18
ENDBRANCH   8  11
ENDBRANCH   1   8
BRANCH   5  20
ATOM     20  C   UNL     1       3.990   3.599  -2.465  0.00  0.00    +0.341 C 
ATOM     21  O   UNL     1       5.122   4.037  -2.484  0.00  0.00    -0.245 OA
BRANCH  20  22
ATOM     22  O   UNL     1       3.287   3.498  -3.610  0.00  0.00    -0.452 OA
BRANCH  22  23
ATOM     23  C   UNL     1       3.947   3.931  -4.829  0.00  0.00    +0.328 C 
BRANCH  23  24
ATOM     24  C   UNL     1       3.016   3.745  -5.999  0.00  0.00    +0.258 C 
ATOM     25  O   UNL     1       1.905   3.292  -5.822  0.00  0.00    -0.272 OA
ATOM     26  N   UNL     1       3.417   4.082  -7.240  0.00  0.00    -0.238 N 
ATOM     27  C   UNL     1       2.583   3.915  -8.286  0.00  0.00    +0.303 C 
ATOM     28  O   UNL     1       1.470   3.461  -8.110  0.00  0.00    -0.253 OA
ATOM     29  N   UNL     1       2.985   4.252  -9.528  0.00  0.00    -0.313 N 
ATOM     30  H   UNL     1       4.306   4.444  -7.381  0.00  0.00    +0.159 HD
ATOM     31  H   UNL     1       3.874   4.614  -9.669  0.00  0.00    +0.146 HD
ATOM     32  H   UNL     1       2.385   4.132 -10.281  0.00  0.00    +0.146 HD
ENDBRANCH  23  24
ENDBRANCH  22  23
ENDBRANCH  20  22
ENDBRANCH   5  20
TORSDOF 7
