REMARK  Name = ZINC06758951
REMARK  9 active torsions:
REMARK  status: ('A' for Active; 'I' for Inactive)
REMARK    1  A    between atoms: C_1  and  C_2
REMARK    2  A    between atoms: C_2  and  C_3
REMARK    3  A    between atoms: C_2  and  C_4
REMARK    4  A    between atoms: C_4  and  N_5
REMARK    5  A    between atoms: C_6  and  C_8
REMARK    6  A    between atoms: N_10  and  C_11
REMARK    7  A    between atoms: C_12  and  C_22
REMARK    8  A    between atoms: C_18  and  C_20
REMARK    9  A    between atoms: C_18  and  C_21
REMARK                            x       y       z     vdW  Elec       q    Type
REMARK                         _______ _______ _______ _____ _____    ______ ____
ROOT
ATOM      1  C   UNL     1      -2.259  -4.300  -0.236  0.00  0.00    +0.087 A 
ATOM      2  C   UNL     1      -2.470  -2.957   0.056  0.00  0.00    +0.095 A 
ATOM      3  C   UNL     1      -1.390  -2.034  -0.233  0.00  0.00    -0.016 A 
ATOM      4  C   UNL     1      -0.278  -2.593  -0.764  0.00  0.00    +0.021 A 
ATOM      5  S   UNL     1      -0.651  -4.317  -0.882  0.00  0.00    -0.075 S 
ATOM      6  C   UNL     1       0.973  -1.869  -1.153  0.00  0.00    +0.203 C 
ATOM      7  O   UNL     1       0.678  -0.463  -1.172  0.00  0.00    -0.368 OA
ATOM      8  C   UNL     1       0.002  -0.004   0.002  0.00  0.00    +0.068 C 
ATOM      9  C   UNL     1      -1.436  -0.531   0.020  0.00  0.00    +0.071 C 
ATOM     10  C   UNL     1      -0.019   1.526   0.010  0.00  0.00    +0.041 C 
ATOM     11  C   UNL     1       0.743  -0.508   1.242  0.00  0.00    +0.041 C 
ENDROOT
BRANCH   1  14
ATOM     12  C   UNL     1      -2.741  -6.610  -0.401  0.00  0.00    +0.304 C 
ATOM     13  O   UNL     1      -1.638  -6.797  -0.871  0.00  0.00    -0.265 OA
ATOM     14  N   UNL     1      -3.124  -5.365  -0.055  0.00  0.00    -0.272 N 
ATOM     15  H   UNL     1      -4.006  -5.215   0.321  0.00  0.00    +0.156 HD
BRANCH  12  17
ATOM     16  N   UNL     1      -3.292  -9.004  -0.551  0.00  0.00    -0.307 N 
ATOM     17  C   UNL     1      -3.674  -7.759  -0.205  0.00  0.00    +0.299 C 
ATOM     18  O   UNL     1      -4.777  -7.572   0.265  0.00  0.00    -0.265 OA
ATOM     19  H   UNL     1      -2.410  -9.154  -0.927  0.00  0.00    +0.149 HD
BRANCH  16  20
ATOM     20  C   UNL     1      -4.207 -10.132  -0.359  0.00  0.00    +0.107 C 
BRANCH  20  22
ATOM     21  C   UNL     1      -2.328 -11.723   0.066  0.00  0.00    +0.009 C 
ATOM     22  C   UNL     1      -3.532 -11.422  -0.829  0.00  0.00    -0.000 C 
ATOM     23  C   UNL     1      -4.530 -12.579  -0.745  0.00  0.00    +0.009 C 
ENDBRANCH  20  22
ENDBRANCH  16  20
ENDBRANCH  12  17
ENDBRANCH   1  14
BRANCH   2  24
ATOM     24  C   UNL     1      -3.734  -2.493   0.632  0.00  0.00    +0.389 C 
ATOM     25  O   UNL     1      -4.646  -2.150  -0.097  0.00  0.00    -0.240 OA
ATOM     26  O   UNL     1      -3.888  -2.445   1.972  0.00  0.00    -0.240 OA
ENDBRANCH   2  24
TORSDOF 5
