REMARK  Name = ZINC39662571
REMARK  6 active torsions:
REMARK  status: ('A' for Active; 'I' for Inactive)
REMARK    1  A    between atoms: C_4  and  C_7
REMARK    2  A    between atoms: C_10  and  C_12
REMARK    3  A    between atoms: C_16  and  C_25
REMARK    4  A    between atoms: N_27  and  C_28
REMARK    5  A    between atoms: C_28  and  C_30
REMARK    6  A    between atoms: C_28  and  C_32
REMARK                            x       y       z     vdW  Elec       q    Type
REMARK                         _______ _______ _______ _____ _____    ______ ____
ROOT
ATOM      1  C   UNL     1       7.005  -0.753  -0.185  0.00  0.00    +0.282 C 
ATOM      2  O   UNL     1       7.680  -1.765  -0.236  0.00  0.00    -0.267 OA
ATOM      3  N   UNL     1       7.603   0.454  -0.135  0.00  0.00    -0.294 N 
ATOM      4  C   UNL     1       6.957   1.786  -0.063  0.00  0.00    +0.121 C 
ATOM      5  C   UNL     1       7.840   2.596   0.912  0.00  0.00    +0.100 C 
ATOM      6  C   UNL     1       9.217   1.912   0.854  0.00  0.00    -0.004 C 
ATOM      7  C   UNL     1       9.056   0.749  -0.135  0.00  0.00    +0.115 C 
ATOM      8  C   UNL     1       9.599   1.377   2.231  0.00  0.00    -0.010 C 
ATOM      9  C   UNL     1      10.995   0.753   2.161  0.00  0.00    -0.082 C 
ATOM     10  N   UNL     1      11.964   1.764   1.721  0.00  0.00    +0.379 N 
ATOM     11  C   UNL     1      11.642   2.206   0.359  0.00  0.00    -0.082 C 
ATOM     12  C   UNL     1      10.273   2.892   0.352  0.00  0.00    -0.010 C 
ATOM     13  H   UNL     1      11.930   2.555   2.346  0.00  0.00    -0.086 HD
ATOM     14  H   UNL     1      12.892   1.368   1.734  0.00  0.00    -0.086 HD
ENDROOT
BRANCH   1  18
ATOM     15  C   UNL     1       3.422  -0.275  -0.129  0.00  0.00    +0.136 A 
ATOM     16  C   UNL     1       3.460  -1.638  -0.192  0.00  0.00    +0.050 A 
ATOM     17  C   UNL     1       4.807  -2.011  -0.222  0.00  0.00    +0.055 A 
ATOM     18  C   UNL     1       5.543  -0.847  -0.176  0.00  0.00    +0.190 A 
ATOM     19  O   UNL     1       4.682   0.191  -0.126  0.00  0.00    -0.450 OA
BRANCH  15  23
ATOM     20  C   UNL     1      -0.095   2.101   0.012  0.00  0.00    +0.000 A 
ATOM     21  C   UNL     1       1.148   2.709   0.023  0.00  0.00    +0.001 A 
ATOM     22  C   UNL     1       2.294   1.944  -0.023  0.00  0.00    +0.011 A 
ATOM     23  C   UNL     1       2.199   0.552  -0.080  0.00  0.00    +0.017 A 
ATOM     24  C   UNL     1       0.941  -0.056  -0.090  0.00  0.00    +0.011 A 
ATOM     25  C   UNL     1      -0.197   0.722  -0.044  0.00  0.00    +0.001 A 
ENDBRANCH  15  23
ENDBRANCH   1  18
BRANCH   5  26
ATOM     26  C   UNL     1       7.277   2.531   2.308  0.00  0.00    +0.219 C 
ATOM     27  O   UNL     1       6.664   1.549   2.670  0.00  0.00    -0.275 OA
ATOM     28  N   UNL     1       7.456   3.563   3.156  0.00  0.00    -0.296 N 
ATOM     29  H   UNL     1       7.947   4.348   2.867  0.00  0.00    +0.150 HD
BRANCH  28  30
ATOM     30  C   UNL     1       6.909   3.500   4.513  0.00  0.00    +0.207 C 
BRANCH  30  31
ATOM     31  C   UNL     1       6.686   4.897   5.031  0.00  0.00    -0.013 A 
ATOM     32  C   UNL     1       7.609   5.890   4.761  0.00  0.00    +0.006 A 
ATOM     33  C   UNL     1       7.404   7.172   5.236  0.00  0.00    +0.000 A 
ATOM     34  C   UNL     1       6.275   7.462   5.979  0.00  0.00    +0.000 A 
ATOM     35  C   UNL     1       5.351   6.469   6.248  0.00  0.00    +0.000 A 
ATOM     36  C   UNL     1       5.554   5.188   5.770  0.00  0.00    +0.006 A 
ENDBRANCH  30  31
BRANCH  30  37
ATOM     37  C   UNL     1       7.858   2.797   5.393  0.00  0.00    +0.090 C 
ATOM     38  N   UNL     1       8.591   2.255   6.071  0.00  0.00    -0.194 NA
ENDBRANCH  30  37
ENDBRANCH  28  30
ENDBRANCH   5  26
TORSDOF 6
