REMARK  Name = ZINC22324646
REMARK  17 active torsions:
REMARK  status: ('A' for Active; 'I' for Inactive)
REMARK    1  A    between atoms: C_1  and  C_2
REMARK    2  A    between atoms: C_5  and  S_8
REMARK    3  A    between atoms: S_8  and  N_11
REMARK    4  A    between atoms: N_11  and  C_12
REMARK    5  A    between atoms: N_11  and  C_29
REMARK    6  A    between atoms: C_12  and  C_13
REMARK    7  A    between atoms: N_15  and  C_16
REMARK    8  A    between atoms: C_16  and  C_17
REMARK    9  A    between atoms: C_19  and  O_27
REMARK   10  A    between atoms: C_20  and  O_25
REMARK   11  A    between atoms: C_21  and  O_23
REMARK   12  A    between atoms: O_23  and  C_24
REMARK   13  A    between atoms: O_25  and  C_26
REMARK   14  A    between atoms: O_27  and  C_28
REMARK   15  A    between atoms: C_31  and  C_37
REMARK   16  A    between atoms: C_34  and  O_35
REMARK   17  A    between atoms: O_35  and  C_36
REMARK                            x       y       z     vdW  Elec       q    Type
REMARK                         _______ _______ _______ _____ _____    ______ ____
ROOT
ATOM      1  N   UNL     1      -0.698   1.558   1.213  0.00  0.00    -0.191 N 
ENDROOT
BRANCH   1   2
ATOM      2  C   UNL     1      -1.781   0.838   1.730  0.00  0.00    +0.094 A 
ATOM      3  C   UNL     1      -1.560  -0.231   2.587  0.00  0.00    +0.031 A 
ATOM      4  C   UNL     1      -2.632  -0.941   3.096  0.00  0.00    -0.048 A 
ATOM      5  C   UNL     1      -3.924  -0.589   2.754  0.00  0.00    +0.007 A 
ATOM      6  C   UNL     1      -4.152   0.475   1.900  0.00  0.00    +0.048 A 
ATOM      7  C   UNL     1      -3.084   1.195   1.390  0.00  0.00    +0.143 A 
ATOM      8  C   UNL     1      -2.390  -2.100   4.028  0.00  0.00    +0.044 C 
BRANCH   7   9
ATOM      9  O   UNL     1      -3.307   2.245   0.555  0.00  0.00    -0.493 OA
ATOM     10  C   UNL     1      -4.669   2.554   0.250  0.00  0.00    +0.277 C 
ENDBRANCH   7   9
ENDBRANCH   1   2
BRANCH   1  11
ATOM     11  S   UNL     1      -0.192   2.945   1.964  0.00  0.00    +0.075 S 
ATOM     12  O   UNL     1      -0.616   2.852   3.317  0.00  0.00    -0.150 OA
ATOM     13  O   UNL     1       1.170   3.128   1.603  0.00  0.00    -0.150 OA
BRANCH  11  18
ATOM     14  C   UNL     1      -3.258   7.525  -0.491  0.00  0.00    +0.044 C 
ATOM     15  C   UNL     1      -2.492   6.381   0.123  0.00  0.00    -0.050 A 
ATOM     16  C   UNL     1      -3.000   5.723   1.227  0.00  0.00    +0.005 A 
ATOM     17  C   UNL     1      -2.297   4.674   1.790  0.00  0.00    +0.029 A 
ATOM     18  C   UNL     1      -1.088   4.282   1.247  0.00  0.00    +0.109 A 
ATOM     19  C   UNL     1      -0.578   4.943   0.145  0.00  0.00    +0.029 A 
ATOM     20  C   UNL     1      -1.282   5.990  -0.420  0.00  0.00    +0.005 A 
ENDBRANCH  11  18
ENDBRANCH   1  11
BRANCH   1  21
ATOM     21  C   UNL     1      -0.013   1.086   0.008  0.00  0.00    +0.227 C 
BRANCH  21  22
ATOM     22  C   UNL     1      -0.742   1.585  -1.213  0.00  0.00    +0.232 C 
ATOM     23  O   UNL     1      -1.736   2.268  -1.088  0.00  0.00    -0.274 OA
ATOM     24  N   UNL     1      -0.288   1.272  -2.443  0.00  0.00    -0.310 N 
ATOM     25  H   UNL     1       0.614   0.653  -2.556  0.00  0.00    +0.149 HD
BRANCH  24  26
ATOM     26  C   UNL     1      -0.997   1.758  -3.630  0.00  0.00    +0.139 C 
BRANCH  26  27
ATOM     27  C   UNL     1      -0.292   1.272  -4.870  0.00  0.00    -0.023 A 
ATOM     28  C   UNL     1       0.706   2.040  -5.441  0.00  0.00    +0.054 A 
ATOM     29  C   UNL     1       1.361   1.593  -6.579  0.00  0.00    +0.165 A 
ATOM     30  C   UNL     1       1.006   0.378  -7.151  0.00  0.00    +0.204 A 
ATOM     31  C   UNL     1      -0.001  -0.389  -6.577  0.00  0.00    +0.165 A 
ATOM     32  C   UNL     1      -0.647   0.062  -5.436  0.00  0.00    +0.054 A 
BRANCH  31  33
ATOM     33  O   UNL     1      -0.352  -1.579  -7.133  0.00  0.00    -0.491 OA
ATOM     34  C   UNL     1      -1.396  -2.313  -6.490  0.00  0.00    +0.277 C 
ENDBRANCH  31  33
BRANCH  30  35
ATOM     35  O   UNL     1       1.643  -0.061  -8.271  0.00  0.00    -0.488 OA
ATOM     36  C   UNL     1       1.083   0.322  -9.528  0.00  0.00    +0.277 C 
ENDBRANCH  30  35
BRANCH  29  37
ATOM     37  O   UNL     1       2.346   2.347  -7.137  0.00  0.00    -0.491 OA
ATOM     38  C   UNL     1       2.658   3.585  -6.495  0.00  0.00    +0.277 C 
ENDBRANCH  29  37
ENDBRANCH  26  27
ENDBRANCH  24  26
ENDBRANCH  21  22
ENDBRANCH   1  21
TORSDOF 11
