REMARK  Name = ZINC20527826
REMARK  6 active torsions:
REMARK  status: ('A' for Active; 'I' for Inactive)
REMARK    1  A    between atoms: C_4  and  C_7
REMARK    2  A    between atoms: C_7  and  S_8
REMARK    3  A    between atoms: S_8  and  C_9
REMARK    4  A    between atoms: N_13  and  N_14
REMARK    5  A    between atoms: N_15  and  N_16
REMARK    6  A    between atoms: C_17  and  C_18
REMARK                            x       y       z     vdW  Elec       q    Type
REMARK                         _______ _______ _______ _____ _____    ______ ____
ROOT
ATOM      1  C   UNL     1      -7.912   3.543   0.054  0.00  0.00    +0.210 A 
ATOM      2  N   UNL     1      -7.051   4.531   0.055  0.00  0.00    -0.119 NA
ATOM      3  N   UNL     1      -5.762   3.982   0.052  0.00  0.00    -0.109 NA
ATOM      4  C   UNL     1      -5.878   2.676   0.040  0.00  0.00    +0.254 A 
ATOM      5  N   UNL     1      -7.210   2.370   0.044  0.00  0.00    -0.211 N 
ATOM      6  N   UNL     1      -4.832   1.765   0.032  0.00  0.00    -0.204 N 
ATOM      7  H   UNL     1      -5.044   0.686   0.027  0.00  0.00    +0.177 HD
ENDROOT
BRANCH   5   8
ATOM      8  N   UNL     1      -7.746   1.114   0.040  0.00  0.00    -0.294 N 
ATOM      9  H   UNL     1      -7.085   0.234   0.032  0.00  0.00    +0.163 HD
ATOM     10  H   UNL     1      -8.838   0.981   0.044  0.00  0.00    +0.163 HD
ENDBRANCH   5   8
BRANCH   6  11
ATOM     11  N   UNL     1      -3.507   2.219   0.029  0.00  0.00    -0.187 NA
ATOM     12  C   UNL     1      -2.528   1.366   0.020  0.00  0.00    +0.140 C 
BRANCH  12  13
ATOM     13  C   UNL     1      -1.135   1.843   0.017  0.00  0.00    +0.020 A 
ATOM     14  C   UNL     1      -0.013   1.076   0.008  0.00  0.00    +0.093 A 
ATOM     15  N   UNL     1       1.093   1.877   0.002  0.00  0.00    -0.360 N 
ATOM     16  H   UNL     1       2.097   1.428  -0.010  0.00  0.00    +0.165 HD
ATOM     17  C   UNL     1       0.719   3.204   0.012  0.00  0.00    +0.047 A 
ATOM     18  C   UNL     1      -0.685   3.247   0.025  0.00  0.00    +0.008 A 
ATOM     19  C   UNL     1      -1.345   4.473   0.036  0.00  0.00    +0.010 A 
ATOM     20  C   UNL     1      -0.615   5.641   0.035  0.00  0.00    +0.001 A 
ATOM     21  C   UNL     1       0.772   5.600   0.022  0.00  0.00    +0.002 A 
ATOM     22  C   UNL     1       1.438   4.395   0.010  0.00  0.00    +0.026 A 
ENDBRANCH  12  13
ENDBRANCH   6  11
BRANCH   1  23
ATOM     23  S   UNL     1      -9.668   3.699   0.061  0.00  0.00    -0.080 S 
BRANCH  23  24
ATOM     24  C   UNL     1      -9.949   5.491   0.072  0.00  0.00    +0.112 C 
BRANCH  24  28
ATOM     25  C   UNL     1     -14.148   6.273   0.093  0.00  0.00    +0.000 A 
ATOM     26  C   UNL     1     -13.464   6.140   1.287  0.00  0.00    +0.000 A 
ATOM     27  C   UNL     1     -12.105   5.886   1.280  0.00  0.00    +0.004 A 
ATOM     28  C   UNL     1     -11.430   5.766   0.080  0.00  0.00    -0.037 A 
ATOM     29  C   UNL     1     -12.113   5.905  -1.114  0.00  0.00    +0.004 A 
ATOM     30  C   UNL     1     -13.473   6.153  -1.107  0.00  0.00    +0.000 A 
ENDBRANCH  24  28
ENDBRANCH  23  24
ENDBRANCH   1  23
TORSDOF 6
