REMARK  Name = ZINC09429136
REMARK  7 active torsions:
REMARK  status: ('A' for Active; 'I' for Inactive)
REMARK    1  A    between atoms: C_1  and  C_2
REMARK    2  A    between atoms: C_2  and  C_3
REMARK    3  A    between atoms: C_2  and  C_4
REMARK    4  A    between atoms: C_4  and  C_5
REMARK    5  A    between atoms: N_13  and  C_16
REMARK    6  A    between atoms: C_16  and  C_17
REMARK    7  A    between atoms: C_17  and  C_18
REMARK                            x       y       z     vdW  Elec       q    Type
REMARK                         _______ _______ _______ _____ _____    ______ ____
ROOT
ATOM      1  C   UNL     1      -1.113  -1.807   0.205  0.00  0.00    -0.057 C 
ATOM      2  C   UNL     1      -2.453  -2.565   0.104  0.00  0.00    +0.073 C 
ATOM      3  C   UNL     1      -2.878  -2.823   1.577  0.00  0.00    +0.088 C 
ATOM      4  C   UNL     1      -2.829  -4.330   1.694  0.00  0.00    +0.225 C 
ATOM      5  O   UNL     1      -3.098  -4.964   2.692  0.00  0.00    -0.275 OA
ATOM      6  N   UNL     1      -2.442  -4.854   0.526  0.00  0.00    -0.241 N 
ATOM      7  C   UNL     1      -2.205  -3.949  -0.451  0.00  0.00    +0.224 C 
ATOM      8  O   UNL     1      -1.851  -4.196  -1.583  0.00  0.00    -0.275 OA
ATOM      9  C   UNL     1      -1.760  -2.191   2.417  0.00  0.00    +0.050 C 
ATOM     10  N   UNL     1      -0.564  -2.171   1.539  0.00  0.00    +0.394 N 
ATOM     11  C   UNL     1      -1.497  -2.980   3.667  0.00  0.00    -0.027 A 
ATOM     12  C   UNL     1      -1.114  -4.281   3.904  0.00  0.00    +0.019 A 
ATOM     13  C   UNL     1      -0.951  -4.730   5.204  0.00  0.00    +0.018 A 
ATOM     14  C   UNL     1      -1.174  -3.867   6.263  0.00  0.00    +0.017 A 
ATOM     15  C   UNL     1      -1.558  -2.563   6.029  0.00  0.00    +0.024 A 
ATOM     16  C   UNL     1      -1.723  -2.104   4.725  0.00  0.00    +0.036 A 
ATOM     17  N   UNL     1      -2.097  -0.848   4.240  0.00  0.00    -0.286 N 
ATOM     18  C   UNL     1      -2.142  -0.817   2.894  0.00  0.00    +0.211 C 
ATOM     19  O   UNL     1      -2.434   0.136   2.201  0.00  0.00    -0.277 OA
ATOM     20 BR   UNL     1      -0.426  -6.517   5.531  0.00  0.00    -0.050 Br
ATOM     21  H   UNL     1      -0.124  -3.078   1.504  0.00  0.00    -0.083 HD
ATOM     22  H   UNL     1      -2.301  -0.088   4.806  0.00  0.00    +0.155 HD
ATOM     23  H   UNL     1       0.090  -1.470   1.854  0.00  0.00    -0.083 HD
ENDROOT
BRANCH   1  24
ATOM     24  C   UNL     1      -1.347  -0.298   0.119  0.00  0.00    -0.012 C 
BRANCH  24  26
ATOM     25  C   UNL     1      -1.585   1.637  -1.443  0.00  0.00    +0.007 C 
ATOM     26  C   UNL     1      -1.212   0.157  -1.335  0.00  0.00    -0.019 C 
ATOM     27  C   UNL     1       0.232  -0.040  -1.801  0.00  0.00    +0.007 C 
ENDBRANCH  24  26
ENDBRANCH   1  24
BRANCH   6  28
ATOM     28  C   UNL     1      -2.291  -6.296   0.316  0.00  0.00    +0.121 C 
BRANCH  28  29
ATOM     29  C   UNL     1      -3.617  -6.881  -0.176  0.00  0.00    +0.054 C 
BRANCH  29  30
ATOM     30  C   UNL     1      -3.462  -8.365  -0.392  0.00  0.00    -0.046 A 
ATOM     31  C   UNL     1      -3.053  -8.845  -1.622  0.00  0.00    +0.004 A 
ATOM     32  C   UNL     1      -2.911 -10.206  -1.820  0.00  0.00    +0.000 A 
ATOM     33  C   UNL     1      -3.177 -11.086  -0.788  0.00  0.00    +0.000 A 
ATOM     34  C   UNL     1      -3.585 -10.605   0.443  0.00  0.00    +0.000 A 
ATOM     35  C   UNL     1      -3.723  -9.245   0.642  0.00  0.00    +0.004 A 
ENDBRANCH  29  30
ENDBRANCH  28  29
ENDBRANCH   6  28
TORSDOF 5
