REMARK  Name = ZINC38519855
REMARK  5 active torsions:
REMARK  status: ('A' for Active; 'I' for Inactive)
REMARK    1  A    between atoms: C_1  and  C_2
REMARK    2  A    between atoms: C_3  and  C_14
REMARK    3  A    between atoms: C_4  and  C_7
REMARK    4  A    between atoms: N_20  and  C_22
REMARK    5  A    between atoms: C_27  and  C_29
REMARK                            x       y       z     vdW  Elec       q    Type
REMARK                         _______ _______ _______ _____ _____    ______ ____
ROOT
ATOM      1  C   UNL     1      -2.503  -0.394   0.012  0.00  0.00    +0.255 C 
ATOM      2  O   UNL     1      -3.090  -0.213  -1.037  0.00  0.00    -0.270 OA
ATOM      3  N   UNL     1      -3.142  -0.206   1.184  0.00  0.00    -0.265 N 
ATOM      4  C   UNL     1      -4.483   0.197   1.193  0.00  0.00    +0.153 A 
ATOM      5  C   UNL     1      -5.259   0.432   2.325  0.00  0.00    +0.045 A 
ATOM      6  C   UNL     1      -6.506   0.815   1.910  0.00  0.00    +0.129 A 
ATOM      7  N   UNL     1      -6.510   0.808   0.563  0.00  0.00    -0.251 N 
ATOM      8  N   UNL     1      -5.229   0.426   0.132  0.00  0.00    -0.154 NA
ATOM      9  C   UNL     1      -7.646   1.143  -0.298  0.00  0.00    +0.174 C 
ATOM     10  N   UNL     1      -7.515   1.143   2.815  0.00  0.00    -0.270 N 
ATOM     11  C   UNL     1      -7.184   1.272   4.117  0.00  0.00    +0.219 C 
ATOM     12  O   UNL     1      -8.068   1.370   4.942  0.00  0.00    -0.275 OA
ATOM     13  C   UNL     1      -5.754   1.298   4.578  0.00  0.00    +0.112 C 
ATOM     14  C   UNL     1      -4.895   0.309   3.783  0.00  0.00    +0.100 C 
ATOM     15  H   UNL     1      -2.673  -0.350   2.021  0.00  0.00    +0.157 HD
ATOM     16  H   UNL     1      -8.428   1.276   2.517  0.00  0.00    +0.156 HD
ENDROOT
BRANCH   1  19
ATOM     17  C   UNL     1      -0.018   1.503   0.010  0.00  0.00    +0.090 C 
ATOM     18  C   UNL     1       0.002  -0.004   0.002  0.00  0.00    +0.147 A 
ATOM     19  C   UNL     1      -1.093  -0.818   0.003  0.00  0.00    +0.106 A 
ATOM     20  C   UNL     1      -0.593  -2.201  -0.007  0.00  0.00    +0.127 A 
ATOM     21  N   UNL     1       0.715  -2.133  -0.013  0.00  0.00    -0.077 NA
ATOM     22  O   UNL     1       1.095  -0.772  -0.013  0.00  0.00    -0.359 OA
BRANCH  20  23
ATOM     23  C   UNL     1      -1.413  -3.437  -0.010  0.00  0.00    +0.023 A 
ATOM     24  C   UNL     1      -2.804  -3.353  -0.009  0.00  0.00    +0.011 A 
ATOM     25  C   UNL     1      -3.562  -4.506  -0.012  0.00  0.00    +0.001 A 
ATOM     26  C   UNL     1      -2.944  -5.744  -0.017  0.00  0.00    +0.001 A 
ATOM     27  C   UNL     1      -1.565  -5.835  -0.017  0.00  0.00    +0.020 A 
ATOM     28  C   UNL     1      -0.795  -4.687  -0.020  0.00  0.00    +0.050 A 
ATOM     29 CL   UNL     1       0.938  -4.802  -0.028  0.00  0.00    -0.083 Cl
ENDBRANCH  20  23
ENDBRANCH   1  19
BRANCH  14  30
ATOM     30  C   UNL     1      -5.166  -1.095   4.257  0.00  0.00    +0.113 A 
ATOM     31  C   UNL     1      -4.255  -1.942   4.769  0.00  0.00    +0.045 A 
ATOM     32  C   UNL     1      -4.938  -3.140   5.079  0.00  0.00    +0.041 A 
ATOM     33  C   UNL     1      -6.226  -2.954   4.739  0.00  0.00    +0.195 A 
ATOM     34  O   UNL     1      -6.359  -1.711   4.247  0.00  0.00    -0.467 OA
ENDBRANCH  14  30
TORSDOF 3
