REMARK  Name = ZINC03739037
REMARK  4 active torsions:
REMARK  status: ('A' for Active; 'I' for Inactive)
REMARK    1  A    between atoms: C_1  and  O_2
REMARK    2  A    between atoms: O_2  and  C_3
REMARK    3  A    between atoms: C_13  and  C_17
REMARK    4  A    between atoms: C_19  and  N_24
REMARK                            x       y       z     vdW  Elec       q    Type
REMARK                         _______ _______ _______ _____ _____    ______ ____
ROOT
ATOM      1  C   UNL     1      -4.490  -0.008  -5.465  0.00  0.00    +0.121 A 
ATOM      2  C   UNL     1      -3.164  -0.387  -5.639  0.00  0.00    +0.047 A 
ATOM      3  C   UNL     1      -2.215  -0.229  -4.646  0.00  0.00    +0.030 A 
ATOM      4  C   UNL     1      -2.640   0.333  -3.444  0.00  0.00    +0.047 A 
ATOM      5  C   UNL     1      -3.993   0.721  -3.262  0.00  0.00    +0.006 A 
ATOM      6  C   UNL     1      -4.939   0.554  -4.279  0.00  0.00    +0.056 A 
ATOM      7  C   UNL     1      -4.077   1.254  -1.921  0.00  0.00    -0.022 A 
ATOM      8  C   UNL     1      -2.840   1.172  -1.379  0.00  0.00    +0.010 A 
ATOM      9  N   UNL     1      -1.974   0.622  -2.284  0.00  0.00    -0.359 N 
ATOM     10  H   UNL     1      -1.031   0.460  -2.127  0.00  0.00    +0.166 HD
ATOM     11  C   UNL     1      -2.524   1.637   0.023  0.00  0.00    +0.009 C 
ATOM     12  C   UNL     1      -4.926   1.866   0.307  0.00  0.00    -0.076 C 
ATOM     13  C   UNL     1      -5.271   1.811  -1.187  0.00  0.00    +0.018 C 
ATOM     14  N   UNL     1      -3.615   2.520   0.489  0.00  0.00    +0.387 N 
ATOM     15  H   UNL     1      -3.596   3.394  -0.050  0.00  0.00    -0.084 HD
ATOM     16  H   UNL     1      -3.478   2.730   1.485  0.00  0.00    -0.084 HD
ENDROOT
BRANCH  11  17
ATOM     17  C   UNL     1      -1.229   2.407   0.021  0.00  0.00    -0.035 A 
ATOM     18  C   UNL     1      -1.247   3.789   0.035  0.00  0.00    +0.036 A 
ATOM     19  C   UNL     1      -0.059   4.497   0.027  0.00  0.00    +0.126 A 
ATOM     20  C   UNL     1       1.148   3.822   0.012  0.00  0.00    +0.034 A 
ATOM     21  C   UNL     1       1.167   2.440   0.004  0.00  0.00    +0.022 A 
ATOM     22  C   UNL     1      -0.021   1.732   0.012  0.00  0.00    +0.043 A 
ATOM     23 CL   UNL     1       0.002  -0.004   0.002  0.00  0.00    -0.083 Cl
BRANCH  19  24
ATOM     24  N   UNL     1      -0.079   5.976   0.036  0.00  0.00    +0.056 N 
ATOM     25  O   UNL     1       0.967   6.600   0.030  0.00  0.00    -0.126 OA
ATOM     26  O   UNL     1      -1.142   6.571   0.050  0.00  0.00    -0.126 OA
ENDBRANCH  19  24
ENDBRANCH  11  17
BRANCH   1  28
ATOM     27  C   UNL     1      -4.859  -0.773  -7.686  0.00  0.00    +0.277 C 
ATOM     28  O   UNL     1      -5.370  -0.191  -6.485  0.00  0.00    -0.495 OA
ENDBRANCH   1  28
TORSDOF 3
