REMARK  Name = ZINC04729287
REMARK  10 active torsions:
REMARK  status: ('A' for Active; 'I' for Inactive)
REMARK    1  A    between atoms: C_1  and  C_2
REMARK    2  A    between atoms: C_2  and  O_3
REMARK    3  A    between atoms: O_3  and  C_4
REMARK    4  A    between atoms: C_8  and  C_11
REMARK    5  A    between atoms: C_9  and  O_10
REMARK    6  A    between atoms: C_14  and  C_25
REMARK    7  A    between atoms: C_16  and  C_18
REMARK    8  A    between atoms: C_21  and  C_24
REMARK    9  A    between atoms: C_28  and  O_31
REMARK   10  A    between atoms: O_31  and  C_32
REMARK                            x       y       z     vdW  Elec       q    Type
REMARK                         _______ _______ _______ _____ _____    ______ ____
ROOT
ATOM      1  C   UNL     1       3.236   1.954   2.091  0.00  0.00    -0.028 C 
ATOM      2  C   UNL     1       3.442   0.565   2.701  0.00  0.00    +0.044 C 
ATOM      3  C   UNL     1       2.740  -0.463   1.859  0.00  0.00    +0.040 C 
ATOM      4  N   UNL     1       2.334  -0.231   0.667  0.00  0.00    -0.299 NA
ATOM      5  C   UNL     1       2.490   1.048  -0.016  0.00  0.00    +0.081 C 
ATOM      6  N   UNL     1       3.515   1.870   0.644  0.00  0.00    +0.401 N 
ATOM      7  H   UNL     1       4.438   1.444   0.500  0.00  0.00    -0.081 HD
ATOM      8  H   UNL     1       3.507   2.814   0.240  0.00  0.00    -0.081 HD
ENDROOT
BRANCH   5   9
ATOM      9  C   UNL     1       1.175   1.783   0.000  0.00  0.00    -0.040 A 
ATOM     10  C   UNL     1      -0.013   1.076   0.008  0.00  0.00    +0.004 A 
ATOM     11  C   UNL     1      -1.219   1.751   0.017  0.00  0.00    +0.003 A 
ATOM     12  C   UNL     1      -1.238   3.133   0.030  0.00  0.00    -0.050 A 
ATOM     13  C   UNL     1      -0.050   3.840   0.022  0.00  0.00    +0.003 A 
ATOM     14  C   UNL     1       1.156   3.165   0.008  0.00  0.00    +0.004 A 
ATOM     15  C   UNL     1      -2.553   3.869   0.047  0.00  0.00    +0.044 C 
ENDBRANCH   5   9
BRANCH   1  20
ATOM     16  C   UNL     1       4.759   4.387   4.559  0.00  0.00    +0.162 A 
ATOM     17  C   UNL     1       5.925   4.744   3.903  0.00  0.00    +0.049 A 
ATOM     18  C   UNL     1       6.217   4.200   2.666  0.00  0.00    +0.004 A 
ATOM     19  C   UNL     1       5.350   3.294   2.084  0.00  0.00    +0.006 A 
ATOM     20  C   UNL     1       4.181   2.937   2.731  0.00  0.00    -0.016 A 
ATOM     21  C   UNL     1       3.883   3.479   3.971  0.00  0.00    +0.160 A 
BRANCH  21  22
ATOM     22  O   UNL     1       2.737   3.125   4.612  0.00  0.00    -0.503 OA
ATOM     23  H   UNL     1       2.832   2.356   5.191  0.00  0.00    +0.292 HD
ENDBRANCH  21  22
BRANCH  16  24
ATOM     24  O   UNL     1       4.470   4.922   5.776  0.00  0.00    -0.489 OA
BRANCH  24  26
ATOM     25  C   UNL     1       4.922   6.338   7.681  0.00  0.00    +0.048 C 
ATOM     26  C   UNL     1       5.414   5.846   6.319  0.00  0.00    +0.226 C 
ENDBRANCH  24  26
ENDBRANCH  16  24
ENDBRANCH   1  20
BRANCH   3  27
ATOM     27  C   UNL     1       2.506  -1.801   2.432  0.00  0.00    -0.004 A 
ATOM     28  C   UNL     1       2.940  -2.093   3.728  0.00  0.00    +0.013 A 
ATOM     29  C   UNL     1       2.715  -3.343   4.262  0.00  0.00    +0.046 A 
ATOM     30  C   UNL     1       2.067  -4.316   3.510  0.00  0.00    +0.120 A 
ATOM     31  C   UNL     1       1.640  -4.031   2.219  0.00  0.00    +0.046 A 
ATOM     32  C   UNL     1       1.856  -2.782   1.679  0.00  0.00    +0.013 A 
BRANCH  30  33
ATOM     33  O   UNL     1       1.852  -5.547   4.038  0.00  0.00    -0.495 OA
ATOM     34  C   UNL     1       2.317  -5.772   5.371  0.00  0.00    +0.277 C 
ENDBRANCH  30  33
ENDBRANCH   3  27
TORSDOF 7
