REMARK  Name = ZINC44728497
REMARK  8 active torsions:
REMARK  status: ('A' for Active; 'I' for Inactive)
REMARK    1  A    between atoms: C_1  and  C_2
REMARK    2  A    between atoms: C_11  and  C_12
REMARK    3  A    between atoms: C_12  and  C_13
REMARK    4  A    between atoms: C_13  and  N_14
REMARK    5  A    between atoms: C_15  and  C_17
REMARK    6  A    between atoms: C_28  and  C_30
REMARK    7  A    between atoms: C_32  and  C_36
REMARK    8  A    between atoms: N_33  and  C_35
REMARK                            x       y       z     vdW  Elec       q    Type
REMARK                         _______ _______ _______ _____ _____    ______ ____
ROOT
ATOM      1  C   UNL     1       2.732  -7.928   4.225  0.00  0.00    +0.100 C 
ATOM      2  C   UNL     1       2.316  -7.982   5.712  0.00  0.00    +0.121 C 
ATOM      3  N   UNL     1       3.179  -9.031   6.304  0.00  0.00    -0.295 N 
ATOM      4  C   UNL     1       4.499  -8.829   5.661  0.00  0.00    +0.115 C 
ATOM      5  C   UNL     1       4.165  -8.484   4.196  0.00  0.00    -0.004 C 
ATOM      6  C   UNL     1       5.132  -7.426   3.670  0.00  0.00    -0.010 C 
ATOM      7  C   UNL     1       6.541  -8.021   3.595  0.00  0.00    -0.082 C 
ATOM      8  N   UNL     1       6.534  -9.191   2.708  0.00  0.00    +0.379 N 
ATOM      9  C   UNL     1       5.674 -10.240   3.269  0.00  0.00    -0.082 C 
ATOM     10  C   UNL     1       4.228  -9.739   3.330  0.00  0.00    -0.010 C 
ATOM     11  C   UNL     1       2.840  -9.959   7.221  0.00  0.00    +0.267 C 
ATOM     12  O   UNL     1       3.668 -10.758   7.612  0.00  0.00    -0.268 OA
ATOM     13  H   UNL     1       6.184  -8.921   1.801  0.00  0.00    -0.086 HD
ATOM     14  H   UNL     1       7.474  -9.544   2.612  0.00  0.00    -0.086 HD
ENDROOT
BRANCH  11  15
ATOM     15  C   UNL     1       1.462 -10.005   7.751  0.00  0.00    +0.147 A 
ATOM     16  C   UNL     1       0.960 -10.911   8.715  0.00  0.00    +0.057 A 
ATOM     17  C   UNL     1      -0.340 -10.575   8.885  0.00  0.00    +0.037 A 
ATOM     18  N   UNL     1      -0.593  -9.530   8.069  0.00  0.00    -0.271 N 
ATOM     19  N   UNL     1       0.467  -9.206   7.420  0.00  0.00    -0.167 NA
ATOM     20  C   UNL     1      -1.889  -8.858   7.946  0.00  0.00    +0.172 C 
ATOM     21  C   UNL     1      -1.322 -11.244   9.813  0.00  0.00    +0.065 C 
ENDBRANCH  11  15
BRANCH   1  23
ATOM     22  N   UNL     1       2.468  -6.253   2.424  0.00  0.00    -0.315 N 
ATOM     23  C   UNL     1       2.710  -6.506   3.725  0.00  0.00    +0.218 C 
ATOM     24  O   UNL     1       2.910  -5.590   4.494  0.00  0.00    -0.275 OA
ATOM     25  H   UNL     1       2.307  -6.986   1.809  0.00  0.00    +0.149 HD
BRANCH  22  26
ATOM     26  C   UNL     1       2.446  -4.872   1.938  0.00  0.00    +0.109 C 
BRANCH  26  27
ATOM     27  C   UNL     1       2.152  -4.863   0.436  0.00  0.00    +0.056 C 
BRANCH  27  38
ATOM     28  C   UNL     1       3.131   0.938  -1.733  0.00  0.00    +0.046 C 
ATOM     29  C   UNL     1       3.656  -0.412  -1.319  0.00  0.00    -0.027 A 
ATOM     30  C   UNL     1       5.006  -0.680  -1.387  0.00  0.00    +0.005 A 
ATOM     31  C   UNL     1       5.502  -1.919  -1.008  0.00  0.00    +0.001 A 
ATOM     32  C   UNL     1       4.658  -2.897  -0.561  0.00  0.00    +0.010 A 
ATOM     33  C   UNL     1       3.287  -2.648  -0.484  0.00  0.00    +0.003 A 
ATOM     34  C   UNL     1       2.780  -1.391  -0.862  0.00  0.00    +0.050 A 
ATOM     35  N   UNL     1       1.416  -1.432  -0.677  0.00  0.00    -0.360 N 
ATOM     36  H   UNL     1       0.807  -0.700  -0.862  0.00  0.00    +0.165 HD
ATOM     37  C   UNL     1       1.048  -2.658  -0.196  0.00  0.00    +0.087 A 
ATOM     38  C   UNL     1       2.130  -3.442  -0.064  0.00  0.00    -0.021 A 
ENDBRANCH  27  38
ENDBRANCH  26  27
ENDBRANCH  22  26
ENDBRANCH   1  23
TORSDOF 5
