REMARK  Name = ZINC03037215
REMARK  11 active torsions:
REMARK  status: ('A' for Active; 'I' for Inactive)
REMARK    1  A    between atoms: C_1  and  C_2
REMARK    2  A    between atoms: C_2  and  C_3
REMARK    3  A    between atoms: C_6  and  N_9
REMARK    4  A    between atoms: N_9  and  C_10
REMARK    5  A    between atoms: C_10  and  N_12
REMARK    6  A    between atoms: N_12  and  N_13
REMARK    7  A    between atoms: C_17  and  S_27
REMARK    8  A    between atoms: N_21  and  C_24
REMARK    9  A    between atoms: C_24  and  C_25
REMARK   10  A    between atoms: S_27  and  N_30
REMARK   11  A    between atoms: C_33  and  C_36
REMARK                            x       y       z     vdW  Elec       q    Type
REMARK                         _______ _______ _______ _____ _____    ______ ____
ROOT
ATOM      1  N   UNL     1       3.907  -2.520  -6.984  0.00  0.00    -0.175 NA
ATOM      2  C   UNL     1       4.529  -2.849  -8.091  0.00  0.00    +0.153 C 
ATOM      3  C   UNL     1       3.927  -3.123  -9.417  0.00  0.00    +0.030 A 
ATOM      4  C   UNL     1       2.618  -3.124  -9.887  0.00  0.00    +0.040 A 
ATOM      5  C   UNL     1       2.365  -3.429 -11.209  0.00  0.00    +0.106 A 
ATOM      6  C   UNL     1       3.412  -3.733 -12.063  0.00  0.00    +0.030 A 
ATOM      7  C   UNL     1       4.714  -3.736 -11.606  0.00  0.00    +0.026 A 
ATOM      8  C   UNL     1       4.988  -3.431 -10.277  0.00  0.00    +0.046 A 
ATOM      9  N   UNL     1       6.185  -3.363  -9.573  0.00  0.00    -0.262 N 
ATOM     10  C   UNL     1       5.981  -3.021  -8.290  0.00  0.00    +0.272 C 
ATOM     11  O   UNL     1       6.841  -2.880  -7.440  0.00  0.00    -0.268 OA
ENDROOT
BRANCH   5  12
ATOM     12  S   UNL     1       0.709  -3.431 -11.811  0.00  0.00    +0.061 S 
ATOM     13  O   UNL     1       0.692  -4.281 -12.949  0.00  0.00    -0.153 OA
ATOM     14  O   UNL     1      -0.132  -3.647 -10.686  0.00  0.00    -0.153 OA
BRANCH  12  15
ATOM     15  N   UNL     1       0.385  -1.901 -12.357  0.00  0.00    -0.177 NA
ATOM     16  C   UNL     1      -0.174  -0.887 -11.453  0.00  0.00    +0.110 C 
ATOM     17  C   UNL     1      -1.443  -0.308 -12.086  0.00  0.00    +0.020 C 
ATOM     18  C   UNL     1      -1.118   0.210 -13.489  0.00  0.00    -0.012 C 
ATOM     19  C   UNL     1      -0.628  -0.947 -14.362  0.00  0.00    +0.020 C 
ATOM     20  C   UNL     1       0.656  -1.532 -13.753  0.00  0.00    +0.110 C 
ATOM     21  C   UNL     1      -2.375   0.821 -14.111  0.00  0.00    +0.007 C 
ENDBRANCH  12  15
ENDBRANCH   5  12
BRANCH   1  22
ATOM     22  N   UNL     1       4.639  -2.289  -5.812  0.00  0.00    -0.217 N 
ATOM     23  H   UNL     1       5.605  -2.372  -5.819  0.00  0.00    +0.176 HD
BRANCH  22  24
ATOM     24  C   UNL     1       4.000  -1.950  -4.675  0.00  0.00    +0.154 C 
ATOM     25  S   UNL     1       4.894  -1.668  -3.242  0.00  0.00    -0.017 S 
BRANCH  24  26
ATOM     26  N   UNL     1       2.657  -1.835  -4.665  0.00  0.00    -0.296 N 
ATOM     27  H   UNL     1       2.144  -2.072  -5.453  0.00  0.00    +0.154 HD
BRANCH  26  31
ATOM     28  C   UNL     1       0.710  -0.456  -1.250  0.00  0.00    -0.048 A 
ATOM     29  C   UNL     1       1.881   0.149  -1.668  0.00  0.00    +0.005 A 
ATOM     30  C   UNL     1       2.529  -0.306  -2.800  0.00  0.00    +0.023 A 
ATOM     31  C   UNL     1       2.003  -1.372  -3.518  0.00  0.00    +0.033 A 
ATOM     32  C   UNL     1       0.827  -1.978  -3.095  0.00  0.00    +0.023 A 
ATOM     33  C   UNL     1       0.187  -1.521  -1.960  0.00  0.00    +0.005 A 
BRANCH  28  35
ATOM     34  C   UNL     1       0.534  -0.703   1.211  0.00  0.00    +0.009 C 
ATOM     35  C   UNL     1       0.005   0.043  -0.015  0.00  0.00    +0.032 C 
ENDBRANCH  28  35
ENDBRANCH  26  31
ENDBRANCH  24  26
ENDBRANCH  22  24
ENDBRANCH   1  22
BRANCH   9  36
ATOM     36  C   UNL     1       7.503  -3.625 -10.158  0.00  0.00    +0.140 C 
BRANCH  36  37
ATOM     37  C   UNL     1       8.076  -2.340 -10.698  0.00  0.00    -0.015 C 
ATOM     38  C   UNL     1       9.258  -1.933 -10.303  0.00  0.00    +0.005 C 
ENDBRANCH  36  37
ENDBRANCH   9  36
TORSDOF 9
