REMARK  Name = ZINC39561070
REMARK  8 active torsions:
REMARK  status: ('A' for Active; 'I' for Inactive)
REMARK    1  A    between atoms: C_1  and  C_2
REMARK    2  A    between atoms: C_2  and  C_4
REMARK    3  A    between atoms: C_2  and  O_17
REMARK    4  A    between atoms: N_6  and  C_7
REMARK    5  A    between atoms: C_9  and  N_14
REMARK    6  A    between atoms: O_17  and  C_18
REMARK    7  A    between atoms: C_18  and  C_20
REMARK    8  A    between atoms: C_22  and  N_28
REMARK                            x       y       z     vdW  Elec       q    Type
REMARK                         _______ _______ _______ _____ _____    ______ ____
ROOT
ATOM      1  C   UNL     1      -0.019   1.541  -0.008  0.00  0.00    +0.062 C 
ATOM      2  C   UNL     1      -0.003   0.011  -0.007  0.00  0.00    +0.259 C 
ENDROOT
BRANCH   2   3
ATOM      3  C   UNL     1       0.706  -0.485  -1.241  0.00  0.00    +0.258 C 
ATOM      4  O   UNL     1       0.095  -1.113  -2.080  0.00  0.00    -0.271 OA
ATOM      5  N   UNL     1       2.018  -0.231  -1.413  0.00  0.00    -0.281 N 
ATOM      6  H   UNL     1       2.492   0.326  -0.775  0.00  0.00    +0.155 HD
BRANCH   5   7
ATOM      7  C   UNL     1       2.698  -0.770  -2.511  0.00  0.00    +0.054 A 
ATOM      8  C   UNL     1       2.046  -0.919  -3.728  0.00  0.00    +0.057 A 
ATOM      9  C   UNL     1       2.720  -1.451  -4.810  0.00  0.00    +0.128 A 
ATOM     10  C   UNL     1       4.042  -1.836  -4.683  0.00  0.00    +0.034 A 
ATOM     11  C   UNL     1       4.695  -1.690  -3.473  0.00  0.00    +0.024 A 
ATOM     12  C   UNL     1       4.028  -1.153  -2.387  0.00  0.00    +0.062 A 
ATOM     13 CL   UNL     1       4.850  -0.963  -0.870  0.00  0.00    -0.082 Cl
BRANCH   9  14
ATOM     14  N   UNL     1       2.025  -1.610  -6.108  0.00  0.00    +0.056 N 
ATOM     15  O   UNL     1       0.870  -1.274  -6.220  0.00  0.00    -0.126 OA
ATOM     16  O   UNL     1       2.614  -2.075  -7.056  0.00  0.00    -0.126 OA
ENDBRANCH   9  14
ENDBRANCH   5   7
ENDBRANCH   2   3
BRANCH   2  17
ATOM     17  O   UNL     1      -1.345  -0.479   0.001  0.00  0.00    -0.448 OA
BRANCH  17  18
ATOM     18  C   UNL     1      -1.912  -0.688   1.204  0.00  0.00    +0.360 C 
ATOM     19  O   UNL     1      -1.285  -0.460   2.219  0.00  0.00    -0.243 OA
BRANCH  18  20
ATOM     20  C   UNL     1      -3.299  -1.195   1.290  0.00  0.00    +0.169 A 
ATOM     21  C   UNL     1      -3.882  -1.403   2.538  0.00  0.00    +0.095 A 
ATOM     22  C   UNL     1      -5.191  -1.881   2.601  0.00  0.00    +0.067 A 
ATOM     23  C   UNL     1      -5.863  -2.131   1.406  0.00  0.00    +0.100 A 
ATOM     24  C   UNL     1      -5.215  -1.899   0.203  0.00  0.00    +0.150 A 
ATOM     25  N   UNL     1      -3.980  -1.442   0.175  0.00  0.00    -0.226 NA
ATOM     26 CL   UNL     1      -6.046  -2.208  -1.290  0.00  0.00    -0.060 Cl
ATOM     27 CL   UNL     1      -7.493  -2.727   1.424  0.00  0.00    -0.078 Cl
ATOM     28 CL   UNL     1      -2.992  -1.074   3.992  0.00  0.00    -0.079 Cl
BRANCH  22  29
ATOM     29  N   UNL     1      -5.811  -2.104   3.829  0.00  0.00    -0.356 N 
ATOM     30  H   UNL     1      -5.332  -1.926   4.654  0.00  0.00    +0.142 HD
ATOM     31  H   UNL     1      -6.722  -2.437   3.859  0.00  0.00    +0.142 HD
ENDBRANCH  22  29
ENDBRANCH  18  20
ENDBRANCH  17  18
ENDBRANCH   2  17
TORSDOF 7
