REMARK  Name = ZINC63503230
REMARK  12 active torsions:
REMARK  status: ('A' for Active; 'I' for Inactive)
REMARK    1  A    between atoms: C_1  and  C_2
REMARK    2  A    between atoms: C_9  and  C_12
REMARK    3  A    between atoms: C_15  and  N_18
REMARK    4  A    between atoms: C_19  and  C_21
REMARK    5  A    between atoms: C_21  and  C_23
REMARK    6  A    between atoms: C_21  and  N_33
REMARK    7  A    between atoms: C_23  and  C_24
REMARK    8  A    between atoms: C_34  and  O_36
REMARK    9  A    between atoms: O_36  and  C_37
REMARK   10  A    between atoms: C_37  and  C_38
REMARK   11  A    between atoms: C_38  and  C_39
REMARK   12  A    between atoms: C_38  and  C_40
REMARK                            x       y       z     vdW  Elec       q    Type
REMARK                         _______ _______ _______ _____ _____    ______ ____
ROOT
ATOM      1  N   UNL     1      -4.408  -8.080   2.675  0.00  0.00    -0.284 N 
ATOM      2  C   UNL     1      -4.504  -9.216   3.394  0.00  0.00    +0.238 C 
ATOM      3  O   UNL     1      -3.568  -9.586   4.071  0.00  0.00    -0.273 OA
ATOM      4  H   UNL     1      -5.179  -7.747   2.190  0.00  0.00    +0.155 HD
ENDROOT
BRANCH   1   8
ATOM      5  C   UNL     1      -0.801  -6.001   2.537  0.00  0.00    -0.017 A 
ATOM      6  C   UNL     1      -1.179  -6.649   3.698  0.00  0.00    +0.008 A 
ATOM      7  C   UNL     1      -2.375  -7.339   3.748  0.00  0.00    +0.023 A 
ATOM      8  C   UNL     1      -3.197  -7.381   2.629  0.00  0.00    +0.033 A 
ATOM      9  C   UNL     1      -2.814  -6.729   1.464  0.00  0.00    +0.023 A 
ATOM     10  C   UNL     1      -1.619  -6.037   1.423  0.00  0.00    +0.008 A 
BRANCH   5  19
ATOM     11  C   UNL     1       5.933  -7.135   5.451  0.00  0.00    +0.044 C 
ATOM     12  C   UNL     1       4.617  -6.525   5.044  0.00  0.00    -0.049 A 
ATOM     13  C   UNL     1       3.935  -5.686   5.906  0.00  0.00    +0.005 A 
ATOM     14  C   UNL     1       2.733  -5.123   5.547  0.00  0.00    +0.024 A 
ATOM     15  C   UNL     1       2.154  -5.380   4.291  0.00  0.00    +0.042 A 
ATOM     16  C   UNL     1       2.867  -6.232   3.442  0.00  0.00    +0.031 A 
ATOM     17  C   UNL     1       4.073  -6.792   3.798  0.00  0.00    +0.020 A 
ATOM     18  S   UNL     1       1.882  -6.348   1.966  0.00  0.00    -0.096 S 
ATOM     19  C   UNL     1       0.504  -5.248   2.487  0.00  0.00    +0.164 C 
ATOM     20  N   UNL     1       0.944  -4.860   3.834  0.00  0.00    -0.327 N 
ATOM     21  H   UNL     1       0.412  -4.265   4.385  0.00  0.00    +0.147 HD
ENDBRANCH   5  19
ENDBRANCH   1   8
BRANCH   2  22
ATOM     22  C   UNL     1      -5.773 -10.027   3.357  0.00  0.00    +0.166 C 
BRANCH  22  23
ATOM     23  N   UNL     1      -5.626 -11.205   4.215  0.00  0.00    -0.270 N 
ATOM     24  C   UNL     1      -6.707 -11.739   4.818  0.00  0.00    +0.401 C 
ATOM     25  O   UNL     1      -7.803 -11.243   4.649  0.00  0.00    -0.226 OA
ATOM     26  H   UNL     1      -4.750 -11.601   4.349  0.00  0.00    +0.153 HD
BRANCH  24  27
ATOM     27  O   UNL     1      -6.571 -12.822   5.606  0.00  0.00    -0.450 OA
BRANCH  27  28
ATOM     28  C   UNL     1      -7.759 -13.335   6.213  0.00  0.00    +0.236 C 
BRANCH  28  29
ATOM     29  C   UNL     1      -7.409 -14.556   7.066  0.00  0.00    +0.021 C 
ATOM     30  C   UNL     1      -6.513 -14.126   8.229  0.00  0.00    +0.010 C 
ATOM     31  C   UNL     1      -8.693 -15.180   7.615  0.00  0.00    +0.010 C 
ENDBRANCH  28  29
ENDBRANCH  27  28
ENDBRANCH  24  27
ENDBRANCH  22  23
BRANCH  22  32
ATOM     32  C   UNL     1      -6.051 -10.474   1.920  0.00  0.00    +0.065 C 
BRANCH  32  33
ATOM     33  C   UNL     1      -4.942 -11.383   1.454  0.00  0.00    -0.039 C 
ATOM     34  C   UNL     1      -4.927 -12.734   1.496  0.00  0.00    -0.001 A 
ATOM     35  C   UNL     1      -5.899 -13.725   1.973  0.00  0.00    +0.010 A 
ATOM     36  C   UNL     1      -5.593 -15.040   1.884  0.00  0.00    +0.001 A 
ATOM     37  C   UNL     1      -4.374 -15.478   1.350  0.00  0.00    +0.002 A 
ATOM     38  C   UNL     1      -3.430 -14.628   0.892  0.00  0.00    +0.026 A 
ATOM     39  C   UNL     1      -3.647 -13.223   0.937  0.00  0.00    +0.043 A 
ATOM     40  N   UNL     1      -2.900 -12.213   0.562  0.00  0.00    -0.380 N 
ATOM     41  C   UNL     1      -3.625 -10.968   0.837  0.00  0.00    +0.144 C 
ATOM     42  H   UNL     1      -2.017 -12.278   0.166  0.00  0.00    +0.160 HD
ENDBRANCH  32  33
ENDBRANCH  22  32
ENDBRANCH   2  22
TORSDOF 9
