REMARK  Name = ZINC21973585
REMARK  9 active torsions:
REMARK  status: ('A' for Active; 'I' for Inactive)
REMARK    1  A    between atoms: C_1  and  C_2
REMARK    2  A    between atoms: C_7  and  C_9
REMARK    3  A    between atoms: C_7  and  C_10
REMARK    4  A    between atoms: N_13  and  C_17
REMARK    5  A    between atoms: C_17  and  C_18
REMARK    6  A    between atoms: C_18  and  O_20
REMARK    7  A    between atoms: O_20  and  C_21
REMARK    8  A    between atoms: C_21  and  C_22
REMARK    9  A    between atoms: N_24  and  C_25
REMARK                            x       y       z     vdW  Elec       q    Type
REMARK                         _______ _______ _______ _____ _____    ______ ____
ROOT
ATOM      1  C   UNL     1       0.216  -4.893  -4.545  0.00  0.00    +0.326 C 
ATOM      2  O   UNL     1       0.392  -5.420  -3.472  0.00  0.00    -0.249 OA
ENDROOT
BRANCH   1   3
ATOM      3  C   UNL     1      -0.015  -3.406  -4.625  0.00  0.00    +0.238 C 
BRANCH   3  15
ATOM      4  C   UNL     1       0.769   1.581   0.351  0.00  0.00    +0.007 C 
ATOM      5  C   UNL     1       0.476   0.087   0.198  0.00  0.00    -0.011 C 
ATOM      6  C   UNL     1       0.965  -0.391  -1.172  0.00  0.00    +0.038 C 
ATOM      7  C   UNL     1       0.693  -1.884  -1.317  0.00  0.00    +0.113 C 
ATOM      8  C   UNL     1       1.394  -2.670  -0.215  0.00  0.00    +0.041 C 
ATOM      9  C   UNL     1       0.903  -2.184   1.152  0.00  0.00    -0.032 C 
ATOM     10  C   UNL     1       1.202  -0.690   1.297  0.00  0.00    +0.009 C 
ATOM     11  C   UNL     1       1.623  -2.959   2.257  0.00  0.00    +0.011 C 
ATOM     12  C   UNL     1      -0.605  -2.415   1.264  0.00  0.00    +0.011 C 
ATOM     13  C   UNL     1       1.137  -2.372  -2.677  0.00  0.00    +0.247 C 
ATOM     14  O   UNL     1       2.260  -2.353  -3.133  0.00  0.00    -0.273 OA
ATOM     15  N   UNL     1       0.019  -2.833  -3.276  0.00  0.00    -0.213 N 
ATOM     16  C   UNL     1      -1.054  -2.704  -2.486  0.00  0.00    +0.310 C 
ATOM     17  O   UNL     1      -2.174  -3.049  -2.806  0.00  0.00    -0.252 OA
ATOM     18  N   UNL     1      -0.752  -2.147  -1.298  0.00  0.00    -0.285 N 
ATOM     19  H   UNL     1      -1.367  -1.958  -0.572  0.00  0.00    +0.151 HD
ENDBRANCH   3  15
ENDBRANCH   1   3
BRANCH   1  20
ATOM     20  O   UNL     1       0.227  -5.631  -5.666  0.00  0.00    -0.454 OA
BRANCH  20  21
ATOM     21  C   UNL     1       0.451  -7.034  -5.516  0.00  0.00    +0.328 C 
BRANCH  21  22
ATOM     22  C   UNL     1       0.429  -7.694  -6.871  0.00  0.00    +0.255 C 
ATOM     23  O   UNL     1       0.240  -7.028  -7.867  0.00  0.00    -0.272 OA
ATOM     24  N   UNL     1       0.620  -9.024  -6.977  0.00  0.00    -0.282 N 
ATOM     25  H   UNL     1       0.696  -9.568  -6.177  0.00  0.00    +0.155 HD
BRANCH  24  26
ATOM     26  C   UNL     1       0.709  -9.619  -8.236  0.00  0.00    +0.041 A 
ATOM     27  C   UNL     1       1.268  -8.932  -9.292  0.00  0.00    +0.024 A 
ATOM     28  C   UNL     1       1.361  -9.515 -10.552  0.00  0.00    +0.002 A 
ATOM     29  C   UNL     1       0.904 -10.778 -10.777  0.00  0.00    +0.008 A 
ATOM     30  C   UNL     1       0.328 -11.513  -9.727  0.00  0.00    -0.016 A 
ATOM     31  C   UNL     1       0.232 -10.931  -8.439  0.00  0.00    +0.003 A 
ATOM     32  C   UNL     1      -0.341 -11.668  -7.391  0.00  0.00    +0.010 A 
ATOM     33  C   UNL     1      -0.791 -12.932  -7.622  0.00  0.00    +0.001 A 
ATOM     34  C   UNL     1      -0.692 -13.507  -8.888  0.00  0.00    +0.001 A 
ATOM     35  C   UNL     1      -0.153 -12.818  -9.930  0.00  0.00    +0.008 A 
ENDBRANCH  24  26
ENDBRANCH  21  22
ENDBRANCH  20  21
ENDBRANCH   1  20
TORSDOF 6
