REMARK  Name = ZINC65356272
REMARK  5 active torsions:
REMARK  status: ('A' for Active; 'I' for Inactive)
REMARK    1  A    between atoms: N_9  and  C_28
REMARK    2  A    between atoms: C_10  and  S_13
REMARK    3  A    between atoms: S_13  and  C_14
REMARK    4  A    between atoms: C_14  and  C_15
REMARK    5  A    between atoms: N_17  and  C_18
REMARK                            x       y       z     vdW  Elec       q    Type
REMARK                         _______ _______ _______ _____ _____    ______ ____
ROOT
ATOM      1  C   UNL     1      -0.484   0.895   1.009  0.00  0.00    +0.001 A 
ATOM      2  C   UNL     1       0.555   1.802   1.147  0.00  0.00    +0.002 A 
ATOM      3  C   UNL     1       1.855   1.428   0.868  0.00  0.00    +0.024 A 
ATOM      4  C   UNL     1       2.123   0.136   0.450  0.00  0.00    +0.041 A 
ATOM      5  C   UNL     1       1.073  -0.790   0.318  0.00  0.00    +0.058 A 
ATOM      6  C   UNL     1      -0.235  -0.398   0.596  0.00  0.00    +0.015 A 
ATOM      7  C   UNL     1       1.394  -2.165  -0.103  0.00  0.00    +0.255 C 
ATOM      8  O   UNL     1       0.503  -2.943  -0.385  0.00  0.00    -0.269 OA
ATOM      9  N   UNL     1       2.683  -2.552  -0.173  0.00  0.00    -0.239 N 
ATOM     10  C   UNL     1       3.759  -1.697   0.329  0.00  0.00    +0.227 C 
ATOM     11  N   UNL     1       3.413  -0.283   0.145  0.00  0.00    -0.317 N 
ATOM     12  H   UNL     1       4.072   0.348  -0.184  0.00  0.00    +0.149 HD
ENDROOT
BRANCH   9  13
ATOM     13  C   UNL     1       2.998  -3.795  -0.734  0.00  0.00    +0.039 A 
ATOM     14  C   UNL     1       2.647  -4.073  -2.049  0.00  0.00    +0.025 A 
ATOM     15  C   UNL     1       2.960  -5.300  -2.600  0.00  0.00    +0.022 A 
ATOM     16  C   UNL     1       3.621  -6.252  -1.844  0.00  0.00    +0.041 A 
ATOM     17  C   UNL     1       3.970  -5.978  -0.533  0.00  0.00    +0.022 A 
ATOM     18  C   UNL     1       3.666  -4.750   0.021  0.00  0.00    +0.025 A 
ATOM     19 CL   UNL     1       4.011  -7.794  -2.540  0.00  0.00    -0.084 Cl
ENDBRANCH   9  13
BRANCH  10  20
ATOM     20  S   UNL     1       4.013  -2.024   2.095  0.00  0.00    -0.110 S 
BRANCH  20  21
ATOM     21  C   UNL     1       2.412  -1.625   2.849  0.00  0.00    +0.168 C 
BRANCH  21  22
ATOM     22  C   UNL     1       2.486  -1.856   4.337  0.00  0.00    +0.227 C 
ATOM     23  O   UNL     1       3.518  -2.252   4.838  0.00  0.00    -0.275 OA
ATOM     24  N   UNL     1       1.407  -1.624   5.109  0.00  0.00    -0.285 N 
ATOM     25  H   UNL     1       0.562  -1.377   4.701  0.00  0.00    +0.155 HD
BRANCH  24  26
ATOM     26  C   UNL     1       1.504  -1.740   6.501  0.00  0.00    +0.032 C 
ATOM     27  C   UNL     1       0.656  -2.567   7.137  0.00  0.00    +0.029 C 
ATOM     28  C   UNL     1       0.714  -2.658   8.634  0.00  0.00    +0.184 C 
ATOM     29  C   UNL     1       2.140  -2.331   9.050  0.00  0.00    +0.002 C 
ATOM     30  C   UNL     1       2.476  -3.336   9.876  0.00  0.00    +0.140 C 
ATOM     31  N   UNL     1       1.516  -4.274   9.865  0.00  0.00    -0.161 NA
ATOM     32  N   UNL     1       0.505  -3.997   9.174  0.00  0.00    -0.175 NA
ATOM     33  C   UNL     1       2.871  -1.273   8.483  0.00  0.00    +0.009 C 
ATOM     34  C   UNL     1       2.529  -0.960   7.197  0.00  0.00    +0.023 C 
ENDBRANCH  24  26
ENDBRANCH  21  22
ENDBRANCH  20  21
ENDBRANCH  10  20
TORSDOF 5
