REMARK  Name = ZINC39856056
REMARK  9 active torsions:
REMARK  status: ('A' for Active; 'I' for Inactive)
REMARK    1  A    between atoms: C_1  and  C_2
REMARK    2  A    between atoms: C_4  and  C_31
REMARK    3  A    between atoms: C_5  and  N_11
REMARK    4  A    between atoms: C_6  and  N_8
REMARK    5  A    between atoms: C_12  and  C_14
REMARK    6  A    between atoms: C_15  and  C_30
REMARK    7  A    between atoms: C_20  and  C_28
REMARK    8  A    between atoms: C_20  and  C_29
REMARK    9  A    between atoms: N_23  and  N_24
REMARK                            x       y       z     vdW  Elec       q    Type
REMARK                         _______ _______ _______ _____ _____    ______ ____
ROOT
ATOM      1  C   UNL     1      -0.496  -6.331   0.815  0.00  0.00    +0.193 A 
ATOM      2  C   UNL     1      -0.489  -7.194   1.876  0.00  0.00    +0.009 A 
ATOM      3  C   UNL     1      -0.775  -8.461   1.352  0.00  0.00    +0.043 A 
ATOM      4  C   UNL     1      -0.943  -8.318  -0.005  0.00  0.00    +0.116 A 
ATOM      5  O   UNL     1      -0.779  -7.032  -0.306  0.00  0.00    -0.454 OA
ATOM      6  C   UNL     1      -1.261  -9.474  -0.918  0.00  0.00    +0.081 C 
ATOM      7  C   UNL     1      -0.859 -10.785  -0.238  0.00  0.00    -0.023 C 
ATOM      8  C   UNL     1      -1.485 -10.885   1.157  0.00  0.00    +0.064 C 
ATOM      9  C   UNL     1      -0.903  -9.775   2.021  0.00  0.00    +0.073 C 
ATOM     10  N   UNL     1      -0.545  -9.967   3.252  0.00  0.00    -0.175 NA
ATOM     11  C   UNL     1      -1.336 -11.963  -1.090  0.00  0.00    +0.011 C 
ATOM     12  C   UNL     1       0.665 -10.841  -0.112  0.00  0.00    +0.011 C 
ATOM     13  C   UNL     1      -0.225  -6.851   3.320  0.00  0.00    +0.048 C 
ENDROOT
BRANCH  10  14
ATOM     14  N   UNL     1      -0.689 -11.233   3.834  0.00  0.00    -0.248 N 
ATOM     15  C   UNL     1      -0.311 -11.436   5.135  0.00  0.00    +0.187 C 
ATOM     16  N   UNL     1      -0.448 -12.640   5.689  0.00  0.00    -0.370 N 
ATOM     17  N   UNL     1       0.193 -10.428   5.847  0.00  0.00    -0.370 N 
ATOM     18  H   UNL     1      -1.056 -11.967   3.316  0.00  0.00    +0.192 HD
ATOM     19  H   UNL     1      -0.815 -13.374   5.170  0.00  0.00    +0.159 HD
ATOM     20  H   UNL     1       0.292  -9.552   5.444  0.00  0.00    +0.159 HD
ATOM     21  H   UNL     1       0.460 -10.572   6.768  0.00  0.00    +0.159 HD
ATOM     22  H   UNL     1      -0.180 -12.784   6.610  0.00  0.00    +0.159 HD
ENDBRANCH  10  14
BRANCH   1  24
ATOM     23  N   UNL     1      -0.287  -4.143  -0.238  0.00  0.00    -0.277 N 
ATOM     24  C   UNL     1      -0.245  -4.888   0.884  0.00  0.00    +0.284 C 
ATOM     25  O   UNL     1       0.001  -4.363   1.954  0.00  0.00    -0.266 OA
ATOM     26  H   UNL     1      -0.402  -4.571  -1.101  0.00  0.00    +0.155 HD
BRANCH  23  31
ATOM     27  C   UNL     1       0.212   1.499   0.081  0.00  0.00    +0.044 C 
ATOM     28  C   UNL     1       0.080  -0.000  -0.004  0.00  0.00    -0.048 A 
ATOM     29  C   UNL     1       1.071  -0.811   0.517  0.00  0.00    +0.008 A 
ATOM     30  C   UNL     1       0.953  -2.185   0.441  0.00  0.00    -0.027 A 
ATOM     31  C   UNL     1      -0.164  -2.752  -0.159  0.00  0.00    +0.067 A 
ATOM     32  C   UNL     1      -1.158  -1.935  -0.681  0.00  0.00    +0.148 A 
ATOM     33  C   UNL     1      -1.036  -0.561  -0.597  0.00  0.00    +0.038 A 
ATOM     34  C   UNL     1       2.034  -3.068   1.009  0.00  0.00    +0.046 C 
BRANCH  32  35
ATOM     35  N   UNL     1      -2.350  -2.535  -1.323  0.00  0.00    +0.058 N 
ATOM     36  O   UNL     1      -3.168  -1.826  -1.860  0.00  0.00    -0.126 OA
ATOM     37  O   UNL     1      -2.504  -3.734  -1.309  0.00  0.00    -0.126 OA
ENDBRANCH  32  35
ENDBRANCH  23  31
ENDBRANCH   1  24
TORSDOF 4
