REMARK  Name = ZINC39724476
REMARK  7 active torsions:
REMARK  status: ('A' for Active; 'I' for Inactive)
REMARK    1  A    between atoms: C_1  and  C_2
REMARK    2  A    between atoms: C_2  and  C_14
REMARK    3  A    between atoms: N_3  and  N_4
REMARK    4  A    between atoms: N_4  and  C_5
REMARK    5  A    between atoms: C_17  and  S_20
REMARK    6  A    between atoms: S_20  and  N_23
REMARK    7  A    between atoms: C_28  and  C_30
REMARK                            x       y       z     vdW  Elec       q    Type
REMARK                         _______ _______ _______ _____ _____    ______ ____
ROOT
ATOM      1  C   UNL     1      -1.734  -2.553  -2.153  0.00  0.00    -0.002 A 
ATOM      2  C   UNL     1      -1.796  -1.518  -3.090  0.00  0.00    +0.011 A 
ATOM      3  C   UNL     1      -1.338  -1.727  -4.374  0.00  0.00    +0.029 A 
ATOM      4  C   UNL     1      -0.818  -2.958  -4.735  0.00  0.00    +0.106 A 
ATOM      5  C   UNL     1      -0.754  -3.987  -3.813  0.00  0.00    +0.029 A 
ATOM      6  C   UNL     1      -1.204  -3.791  -2.523  0.00  0.00    +0.011 A 
ENDROOT
BRANCH   1   8
ATOM      7  C   UNL     1      -2.793  -1.000  -0.382  0.00  0.00    +0.068 C 
ATOM      8  C   UNL     1      -2.222  -2.337  -0.778  0.00  0.00    +0.063 C 
ATOM      9  N   UNL     1      -2.158  -3.298   0.091  0.00  0.00    -0.188 NA
BRANCH   9  10
ATOM     10  N   UNL     1      -2.621  -3.093   1.397  0.00  0.00    -0.229 N 
ATOM     11  H   UNL     1      -2.989  -2.232   1.652  0.00  0.00    +0.172 HD
BRANCH  10  12
ATOM     12  C   UNL     1      -2.549  -4.178   2.379  0.00  0.00    +0.283 C 
ATOM     13  N   UNL     1      -3.809  -4.932   2.389  0.00  0.00    -0.347 N 
ATOM     14  C   UNL     1      -4.313  -4.834   3.586  0.00  0.00    +0.061 A 
ATOM     15  C   UNL     1      -5.538  -5.364   4.200  0.00  0.00    +0.027 A 
ATOM     16  C   UNL     1      -5.806  -5.090   5.493  0.00  0.00    +0.002 A 
ATOM     17  C   UNL     1      -4.955  -4.309   6.294  0.00  0.00    +0.002 A 
ATOM     18  C   UNL     1      -3.808  -3.774   5.830  0.00  0.00    +0.027 A 
ATOM     19  C   UNL     1      -3.412  -4.007   4.434  0.00  0.00    +0.061 A 
ATOM     20  N   UNL     1      -2.386  -3.626   3.730  0.00  0.00    -0.347 N 
ATOM     21  H   UNL     1      -4.195  -5.415   1.642  0.00  0.00    +0.163 HD
ATOM     22  H   UNL     1      -1.648  -3.078   4.040  0.00  0.00    +0.163 HD
ENDBRANCH  10  12
ENDBRANCH   9  10
ENDBRANCH   1   8
BRANCH   4  23
ATOM     23  S   UNL     1      -0.236  -3.216  -6.378  0.00  0.00    +0.062 S 
ATOM     24  O   UNL     1      -0.641  -4.526  -6.752  0.00  0.00    -0.153 OA
ATOM     25  O   UNL     1      -0.602  -2.063  -7.125  0.00  0.00    -0.153 OA
BRANCH  23  26
ATOM     26  N   UNL     1       1.418  -3.233  -6.314  0.00  0.00    -0.163 NA
ATOM     27  C   UNL     1       2.147  -4.490  -6.097  0.00  0.00    +0.110 C 
ATOM     28  C   UNL     1       3.095  -4.311  -4.908  0.00  0.00    +0.017 C 
ATOM     29  C   UNL     1       3.995  -3.099  -5.156  0.00  0.00    +0.003 C 
ATOM     30  C   UNL     1       3.135  -1.840  -5.281  0.00  0.00    +0.032 C 
ATOM     31  C   UNL     1       2.187  -1.991  -6.480  0.00  0.00    +0.192 C 
BRANCH  31  32
ATOM     32  C   UNL     1       1.244  -0.817  -6.533  0.00  0.00    +0.374 C 
ATOM     33  O   UNL     1       0.525  -0.569  -5.579  0.00  0.00    -0.245 OA
ATOM     34  O   UNL     1       1.199  -0.115  -7.528  0.00  0.00    -0.245 OA
ENDBRANCH  31  32
ENDBRANCH  23  26
ENDBRANCH   4  23
TORSDOF 6
