REMARK  Name = ZINC20911402
REMARK  17 active torsions:
REMARK  status: ('A' for Active; 'I' for Inactive)
REMARK    1  A    between atoms: C_1  and  C_2
REMARK    2  A    between atoms: C_3  and  C_11
REMARK    3  A    between atoms: C_4  and  C_10
REMARK    4  A    between atoms: N_5  and  C_7
REMARK    5  A    between atoms: C_7  and  C_8
REMARK    6  A    between atoms: C_7  and  C_9
REMARK    7  A    between atoms: N_12  and  N_13
REMARK    8  A    between atoms: C_17  and  S_20
REMARK    9  A    between atoms: N_18  and  N_19
REMARK   10  A    between atoms: S_20  and  C_21
REMARK   11  A    between atoms: C_21  and  C_22
REMARK   12  A    between atoms: N_24  and  C_25
REMARK   13  A    between atoms: C_25  and  C_26
REMARK   14  A    between atoms: C_30  and  O_34
REMARK   15  A    between atoms: C_31  and  O_32
REMARK   16  A    between atoms: O_32  and  C_33
REMARK   17  A    between atoms: O_34  and  C_35
REMARK                            x       y       z     vdW  Elec       q    Type
REMARK                         _______ _______ _______ _____ _____    ______ ____
ROOT
ATOM      1  N   UNL     1      -1.150   2.163   0.019  0.00  0.00    -0.204 N 
ATOM      2  C   UNL     1      -0.017   1.363   0.009  0.00  0.00    +0.254 A 
ATOM      3  N   UNL     1       1.225   1.785   0.000  0.00  0.00    -0.109 NA
ATOM      4  N   UNL     1       2.063   0.663  -0.014  0.00  0.00    -0.119 NA
ATOM      5  C   UNL     1       1.307  -0.408  -0.013  0.00  0.00    +0.210 A 
ATOM      6  N   UNL     1       0.002  -0.004   0.002  0.00  0.00    -0.211 N 
ATOM      7  H   UNL     1      -2.148   1.702   0.022  0.00  0.00    +0.177 HD
ENDROOT
BRANCH   6   8
ATOM      8  N   UNL     1      -1.092  -0.822   0.009  0.00  0.00    -0.294 N 
ATOM      9  H   UNL     1      -0.962  -1.914   0.001  0.00  0.00    +0.163 HD
ATOM     10  H   UNL     1      -2.103  -0.388   0.021  0.00  0.00    +0.163 HD
ENDBRANCH   6   8
BRANCH   1  12
ATOM     11  C   UNL     1      -2.082   4.307   0.036  0.00  0.00    +0.141 C 
ATOM     12  N   UNL     1      -1.022   3.558   0.026  0.00  0.00    -0.187 NA
BRANCH  11  15
ATOM     13  C   UNL     1       0.648   5.919   0.031  0.00  0.00    +0.068 C 
ATOM     14  C   UNL     1      -0.740   6.506   0.041  0.00  0.00    +0.069 A 
ATOM     15  C   UNL     1      -1.948   5.777   0.043  0.00  0.00    +0.038 A 
ATOM     16  C   UNL     1      -2.978   6.691   0.048  0.00  0.00    +0.045 A 
ATOM     17  N   UNL     1      -2.426   7.921   0.056  0.00  0.00    -0.265 N 
ATOM     18  N   UNL     1      -1.033   7.779   0.048  0.00  0.00    -0.175 NA
ATOM     19  C   UNL     1      -4.452   6.375   0.046  0.00  0.00    +0.066 C 
BRANCH  17  20
ATOM     20  C   UNL     1      -3.158   9.190   0.066  0.00  0.00    +0.101 C 
ATOM     21  C   UNL     1      -2.781   9.987   1.317  0.00  0.00    +0.032 C 
ATOM     22  C   UNL     1      -2.795   9.998  -1.181  0.00  0.00    +0.032 C 
ENDBRANCH  17  20
ENDBRANCH  11  15
ENDBRANCH   1  12
BRANCH   5  23
ATOM     23  S   UNL     1       1.874  -2.077  -0.027  0.00  0.00    -0.075 S 
BRANCH  23  24
ATOM     24  C   UNL     1       3.682  -1.926  -0.043  0.00  0.00    +0.173 C 
BRANCH  24  25
ATOM     25  C   UNL     1       4.301  -3.300  -0.057  0.00  0.00    +0.224 C 
ATOM     26  O   UNL     1       3.592  -4.284  -0.055  0.00  0.00    -0.275 OA
ATOM     27  N   UNL     1       5.641  -3.435  -0.070  0.00  0.00    -0.310 N 
ATOM     28  H   UNL     1       6.284  -2.542  -0.072  0.00  0.00    +0.149 HD
BRANCH  27  29
ATOM     29  C   UNL     1       6.243  -4.770  -0.083  0.00  0.00    +0.143 C 
BRANCH  29  30
ATOM     30  C   UNL     1       7.745  -4.645  -0.097  0.00  0.00    +0.015 A 
ATOM     31  C   UNL     1       8.440  -4.788  -1.284  0.00  0.00    +0.009 A 
ATOM     32  C   UNL     1       9.817  -4.674  -1.300  0.00  0.00    +0.004 A 
ATOM     33  C   UNL     1      10.506  -4.416  -0.129  0.00  0.00    +0.049 A 
ATOM     34  C   UNL     1       9.816  -4.271   1.063  0.00  0.00    +0.162 A 
ATOM     35  C   UNL     1       8.428  -4.380   1.079  0.00  0.00    +0.166 A 
BRANCH  35  36
ATOM     36  O   UNL     1       7.746  -4.234   2.246  0.00  0.00    -0.491 OA
ATOM     37  C   UNL     1       7.527  -5.413   3.022  0.00  0.00    +0.277 C 
ENDBRANCH  35  36
BRANCH  34  38
ATOM     38  O   UNL     1      10.492  -4.018   2.216  0.00  0.00    -0.491 OA
ATOM     39  C   UNL     1      11.914  -3.913   2.124  0.00  0.00    +0.277 C 
ENDBRANCH  34  38
ENDBRANCH  29  30
ENDBRANCH  27  29
ENDBRANCH  24  25
ENDBRANCH  23  24
ENDBRANCH   5  23
TORSDOF 11
