REMARK  Name = ZINC40138980
REMARK  14 active torsions:
REMARK  status: ('A' for Active; 'I' for Inactive)
REMARK    1  A    between atoms: C_1  and  C_2
REMARK    2  A    between atoms: C_2  and  O_3
REMARK    3  A    between atoms: O_3  and  C_4
REMARK    4  A    between atoms: C_9  and  C_10
REMARK    5  A    between atoms: C_10  and  N_11
REMARK    6  A    between atoms: N_11  and  C_12
REMARK    7  A    between atoms: C_12  and  C_13
REMARK    8  A    between atoms: C_13  and  C_15
REMARK    9  A    between atoms: C_13  and  O_16
REMARK   10  A    between atoms: N_19  and  C_20
REMARK   11  A    between atoms: C_20  and  C_22
REMARK   12  A    between atoms: C_20  and  C_23
REMARK   13  A    between atoms: C_26  and  S_29
REMARK   14  A    between atoms: S_29  and  N_32
REMARK                            x       y       z     vdW  Elec       q    Type
REMARK                         _______ _______ _______ _____ _____    ______ ____
ROOT
ATOM      1  N   UNL     1      -4.242  -1.006  -1.324  0.00  0.00    -0.279 N 
ATOM      2  C   UNL     1      -3.674   0.140  -1.746  0.00  0.00    +0.303 C 
ATOM      3  O   UNL     1      -2.945   0.768  -1.003  0.00  0.00    -0.253 OA
ATOM      4  N   UNL     1      -3.914   0.592  -2.993  0.00  0.00    -0.293 N 
ATOM      5  H   UNL     1      -4.496   0.092  -3.587  0.00  0.00    +0.151 HD
ENDROOT
BRANCH   4   6
ATOM      6  C   UNL     1      -3.297   1.839  -3.453  0.00  0.00    +0.102 C 
ATOM      7  C   UNL     1      -4.157   3.025  -3.015  0.00  0.00    +0.033 C 
BRANCH   6   8
ATOM      8  C   UNL     1      -3.191   1.822  -4.956  0.00  0.00    -0.027 A 
ATOM      9  C   UNL     1      -4.227   1.314  -5.717  0.00  0.00    +0.007 A 
ATOM     10  C   UNL     1      -4.130   1.299  -7.095  0.00  0.00    +0.029 A 
ATOM     11  C   UNL     1      -2.996   1.793  -7.714  0.00  0.00    +0.105 A 
ATOM     12  C   UNL     1      -1.960   2.302  -6.953  0.00  0.00    +0.029 A 
ATOM     13  C   UNL     1      -2.059   2.321  -5.574  0.00  0.00    +0.007 A 
BRANCH  11  14
ATOM     14  S   UNL     1      -2.871   1.773  -9.471  0.00  0.00    +0.056 S 
ATOM     15  O   UNL     1      -1.484   1.790  -9.780  0.00  0.00    -0.153 OA
ATOM     16  O   UNL     1      -3.741   0.747  -9.928  0.00  0.00    -0.153 OA
BRANCH  14  17
ATOM     17  N   UNL     1      -3.497   3.204 -10.023  0.00  0.00    -0.204 NA
ATOM     18  H   UNL     1      -3.161   3.596 -10.844  0.00  0.00    +0.144 HD
ATOM     19  H   UNL     1      -4.199   3.650  -9.524  0.00  0.00    +0.144 HD
ENDBRANCH  14  17
ENDBRANCH  11  14
ENDBRANCH   6   8
ENDBRANCH   4   6
BRANCH   1  20
ATOM     20  C   UNL     1      -3.981  -1.497   0.032  0.00  0.00    +0.148 C 
BRANCH  20  26
ATOM     21  C   UNL     1      -1.498  -1.848   0.006  0.00  0.00    +0.125 A 
ATOM     22  C   UNL     1      -0.387  -2.679  -0.003  0.00  0.00    +0.046 A 
ATOM     23  C   UNL     1      -0.552  -4.051  -0.008  0.00  0.00    +0.004 A 
ATOM     24  C   UNL     1      -1.823  -4.596  -0.004  0.00  0.00    +0.001 A 
ATOM     25  C   UNL     1      -2.932  -3.769   0.004  0.00  0.00    +0.009 A 
ATOM     26  C   UNL     1      -2.772  -2.397   0.016  0.00  0.00    +0.012 A 
BRANCH  21  27
ATOM     27  O   UNL     1      -1.339  -0.499   0.012  0.00  0.00    -0.492 OA
BRANCH  27  29
ATOM     28  C   UNL     1      -0.019   1.526   0.010  0.00  0.00    +0.048 C 
ATOM     29  C   UNL     1       0.002  -0.004   0.002  0.00  0.00    +0.225 C 
ENDBRANCH  27  29
ENDBRANCH  21  27
ENDBRANCH  20  26
ENDBRANCH   1  20
BRANCH   1  30
ATOM     30  C   UNL     1      -5.121  -1.762  -2.220  0.00  0.00    +0.140 C 
BRANCH  30  31
ATOM     31  C   UNL     1      -6.563  -1.282  -2.044  0.00  0.00    +0.129 C 
ATOM     32  C   UNL     1      -7.497  -2.154  -2.886  0.00  0.00    +0.039 C 
BRANCH  31  33
ATOM     33  O   UNL     1      -6.668   0.078  -2.470  0.00  0.00    -0.391 OA
ATOM     34  H   UNL     1      -6.432   0.219  -3.397  0.00  0.00    +0.210 HD
ENDBRANCH  31  33
ENDBRANCH  30  31
ENDBRANCH   1  30
TORSDOF 11
