REMARK  Name = ZINC12376227
REMARK  9 active torsions:
REMARK  status: ('A' for Active; 'I' for Inactive)
REMARK    1  A    between atoms: C_4  and  C_7
REMARK    2  A    between atoms: C_7  and  C_8
REMARK    3  A    between atoms: C_8  and  C_10
REMARK    4  A    between atoms: C_8  and  N_31
REMARK    5  A    between atoms: C_10  and  O_12
REMARK    6  A    between atoms: O_12  and  C_13
REMARK    7  A    between atoms: C_13  and  C_14
REMARK    8  A    between atoms: C_21  and  N_78
REMARK    9  A    between atoms: C_32  and  C_34
REMARK                            x       y       z     vdW  Elec       q    Type
REMARK                         _______ _______ _______ _____ _____    ______ ____
ROOT
ATOM      1  O   UNL     1      -5.413   4.095  -0.821  0.00  0.00    -0.454 OA
ENDROOT
BRANCH   1   2
ATOM      2  C   UNL     1      -4.382   4.749  -1.378  0.00  0.00    +0.328 C 
ATOM      3  O   UNL     1      -4.554   5.840  -1.869  0.00  0.00    -0.249 OA
BRANCH   2   4
ATOM      4  C   UNL     1      -3.011   4.124  -1.392  0.00  0.00    +0.186 C 
BRANCH   4   5
ATOM      5  N   UNL     1      -2.068   5.031  -2.051  0.00  0.00    -0.298 N 
ATOM      6  C   UNL     1      -0.955   4.540  -2.631  0.00  0.00    +0.245 C 
ATOM      7  O   UNL     1      -0.733   3.345  -2.606  0.00  0.00    -0.270 OA
ATOM      8  H   UNL     1      -2.245   5.984  -2.071  0.00  0.00    +0.150 HD
BRANCH   6   9
ATOM      9  C   UNL     1      -0.003   5.455  -3.296  0.00  0.00    +0.037 A 
ATOM     10  C   UNL     1      -0.257   6.827  -3.331  0.00  0.00    +0.013 A 
ATOM     11  C   UNL     1       0.638   7.675  -3.949  0.00  0.00    +0.001 A 
ATOM     12  C   UNL     1       1.780   7.168  -4.543  0.00  0.00    +0.000 A 
ATOM     13  C   UNL     1       2.035   5.808  -4.517  0.00  0.00    +0.001 A 
ATOM     14  C   UNL     1       1.151   4.949  -3.897  0.00  0.00    +0.013 A 
ENDBRANCH   6   9
ENDBRANCH   4   5
BRANCH   4  15
ATOM     15  C   UNL     1      -2.553   3.869   0.045  0.00  0.00    +0.069 C 
BRANCH  15  19
ATOM     16  C   UNL     1       1.175   1.783   0.000  0.00  0.00    +0.000 A 
ATOM     17  C   UNL     1      -0.013   1.076   0.008  0.00  0.00    +0.000 A 
ATOM     18  C   UNL     1      -1.219   1.751   0.017  0.00  0.00    +0.004 A 
ATOM     19  C   UNL     1      -1.238   3.133   0.030  0.00  0.00    -0.045 A 
ATOM     20  C   UNL     1      -0.050   3.840   0.022  0.00  0.00    +0.004 A 
ATOM     21  C   UNL     1       1.156   3.165   0.008  0.00  0.00    +0.000 A 
ENDBRANCH  15  19
ENDBRANCH   4  15
ENDBRANCH   2   4
ENDBRANCH   1   2
BRANCH   1  22
ATOM     22  C   UNL     1      -6.705   4.757  -0.843  0.00  0.00    +0.327 C 
BRANCH  22  23
ATOM     23  C   UNL     1      -7.732   3.878  -0.178  0.00  0.00    +0.253 C 
ATOM     24  O   UNL     1      -7.407   2.799   0.272  0.00  0.00    -0.272 OA
ATOM     25  N   UNL     1      -9.011   4.290  -0.082  0.00  0.00    -0.302 N 
ATOM     26  C   UNL     1      -9.425   5.597  -0.615  0.00  0.00    +0.089 C 
ATOM     27  C   UNL     1     -10.649   5.383  -1.520  0.00  0.00    -0.059 C 
ATOM     28  C   UNL     1     -11.228   3.321  -0.383  0.00  0.00    -0.059 C 
ATOM     29  C   UNL     1     -10.030   3.448   0.564  0.00  0.00    +0.089 C 
ATOM     30  N   UNL     1     -11.693   4.678  -0.745  0.00  0.00    +0.385 N 
ATOM     31  H   UNL     1     -11.882   5.205   0.115  0.00  0.00    -0.081 HD
BRANCH  30  32
ATOM     32  C   UNL     1     -12.936   4.590  -1.538  0.00  0.00    -0.065 C 
ATOM     33  C   UNL     1     -12.709   3.764  -2.806  0.00  0.00    -0.009 C 
ATOM     34  C   UNL     1     -14.011   3.688  -3.606  0.00  0.00    -0.012 C 
ATOM     35  C   UNL     1     -14.456   5.101  -3.990  0.00  0.00    +0.007 C 
ATOM     36  C   UNL     1     -14.683   5.927  -2.723  0.00  0.00    -0.012 C 
ATOM     37  C   UNL     1     -13.381   6.003  -1.923  0.00  0.00    -0.009 C 
ATOM     38  C   UNL     1     -15.768   5.266  -1.870  0.00  0.00    +0.007 C 
ATOM     39  C   UNL     1     -15.323   3.853  -1.486  0.00  0.00    -0.012 C 
ATOM     40  C   UNL     1     -15.096   3.027  -2.753  0.00  0.00    +0.007 C 
ATOM     41  C   UNL     1     -14.021   3.929  -0.686  0.00  0.00    -0.009 C 
ENDBRANCH  30  32
ENDBRANCH  22  23
ENDBRANCH   1  22
TORSDOF 9
