REMARK  Name = ZINC11394343
REMARK  11 active torsions:
REMARK  status: ('A' for Active; 'I' for Inactive)
REMARK    1  A    between atoms: C_1  and  C_2
REMARK    2  A    between atoms: C_2  and  O_3
REMARK    3  A    between atoms: O_3  and  C_4
REMARK    4  A    between atoms: C_4  and  C_6
REMARK    5  A    between atoms: C_7  and  C_21
REMARK    6  A    between atoms: C_12  and  C_14
REMARK    7  A    between atoms: C_21  and  S_22
REMARK    8  A    between atoms: S_22  and  C_23
REMARK    9  A    between atoms: C_27  and  C_29
REMARK   10  A    between atoms: C_32  and  O_35
REMARK   11  A    between atoms: O_35  and  C_36
REMARK                            x       y       z     vdW  Elec       q    Type
REMARK                         _______ _______ _______ _____ _____    ______ ____
ROOT
ATOM      1  C   UNL     1      -2.795  -2.410   0.126  0.00  0.00    +0.079 C 
ATOM      2  C   UNL     1      -2.985  -3.731  -0.085  0.00  0.00    +0.034 C 
ATOM      3  N   UNL     1      -4.241  -4.255  -0.186  0.00  0.00    -0.272 N 
ATOM      4  C   UNL     1      -5.360  -3.526  -0.089  0.00  0.00    +0.304 C 
ATOM      5  O   UNL     1      -6.436  -4.083  -0.193  0.00  0.00    -0.252 OA
ATOM      6  N   UNL     1      -5.333  -2.195   0.121  0.00  0.00    -0.288 N 
ATOM      7  C   UNL     1      -4.024  -1.533   0.251  0.00  0.00    +0.144 C 
ATOM      8  H   UNL     1      -4.328  -5.210  -0.337  0.00  0.00    +0.156 HD
ATOM      9  H   UNL     1      -6.156  -1.686   0.188  0.00  0.00    +0.151 HD
ENDROOT
BRANCH   7  10
ATOM     10  C   UNL     1      -3.942  -0.464  -0.809  0.00  0.00    -0.022 A 
ATOM     11  C   UNL     1      -4.306  -0.753  -2.111  0.00  0.00    +0.007 A 
ATOM     12  C   UNL     1      -4.231   0.226  -3.083  0.00  0.00    +0.020 A 
ATOM     13  C   UNL     1      -3.792   1.496  -2.753  0.00  0.00    +0.041 A 
ATOM     14  C   UNL     1      -3.428   1.784  -1.450  0.00  0.00    +0.020 A 
ATOM     15  C   UNL     1      -3.508   0.806  -0.477  0.00  0.00    +0.007 A 
ATOM     16 CL   UNL     1      -3.697   2.726  -3.974  0.00  0.00    -0.084 Cl
ENDBRANCH   7  10
BRANCH   1  17
ATOM     17  C   UNL     1      -1.494  -1.866   0.232  0.00  0.00    +0.339 C 
ATOM     18  O   UNL     1      -1.028  -1.612   1.326  0.00  0.00    -0.245 OA
BRANCH  17  19
ATOM     19  O   UNL     1      -0.770  -1.628  -0.882  0.00  0.00    -0.462 OA
BRANCH  19  21
ATOM     20  C   UNL     1       1.200  -0.878  -2.065  0.00  0.00    +0.048 C 
ATOM     21  C   UNL     1       0.536  -1.077  -0.701  0.00  0.00    +0.229 C 
ENDBRANCH  19  21
ENDBRANCH  17  19
ENDBRANCH   1  17
BRANCH   2  22
ATOM     22  C   UNL     1      -1.789  -4.640  -0.210  0.00  0.00    +0.128 C 
BRANCH  22  23
ATOM     23  S   UNL     1      -1.597  -5.599   1.318  0.00  0.00    -0.081 S 
BRANCH  23  24
ATOM     24  C   UNL     1      -0.177  -6.599   1.017  0.00  0.00    +0.185 A 
ATOM     25  N   UNL     1       0.359  -7.495   1.875  0.00  0.00    -0.253 N 
ATOM     26  H   UNL     1       0.040  -7.709   2.766  0.00  0.00    +0.191 HD
ATOM     27  N   UNL     1       1.470  -8.056   1.224  0.00  0.00    -0.152 NA
ATOM     28  C   UNL     1       1.546  -7.489   0.041  0.00  0.00    +0.182 A 
ATOM     29  N   UNL     1       0.542  -6.609  -0.084  0.00  0.00    -0.201 NA
BRANCH  28  30
ATOM     30  C   UNL     1       2.573  -7.779  -0.990  0.00  0.00    +0.021 A 
ATOM     31  C   UNL     1       2.549  -7.102  -2.208  0.00  0.00    +0.015 A 
ATOM     32  C   UNL     1       3.505  -7.373  -3.165  0.00  0.00    +0.046 A 
ATOM     33  C   UNL     1       4.490  -8.320  -2.915  0.00  0.00    +0.120 A 
ATOM     34  C   UNL     1       4.515  -8.995  -1.703  0.00  0.00    +0.046 A 
ATOM     35  C   UNL     1       3.566  -8.724  -0.740  0.00  0.00    +0.015 A 
BRANCH  33  36
ATOM     36  O   UNL     1       5.429  -8.586  -3.860  0.00  0.00    -0.495 OA
ATOM     37  C   UNL     1       6.413  -9.571  -3.537  0.00  0.00    +0.277 C 
ENDBRANCH  33  36
ENDBRANCH  28  30
ENDBRANCH  23  24
ENDBRANCH  22  23
ENDBRANCH   2  22
TORSDOF 9
