REMARK  Name = ZINC44793419
REMARK  12 active torsions:
REMARK  status: ('A' for Active; 'I' for Inactive)
REMARK    1  A    between atoms: C_1  and  C_2
REMARK    2  A    between atoms: C_2  and  O_3
REMARK    3  A    between atoms: O_3  and  C_4
REMARK    4  A    between atoms: C_4  and  C_6
REMARK    5  A    between atoms: C_7  and  C_19
REMARK    6  A    between atoms: C_12  and  C_14
REMARK    7  A    between atoms: C_19  and  S_20
REMARK    8  A    between atoms: S_20  and  C_21
REMARK    9  A    between atoms: N_22  and  C_23
REMARK   10  A    between atoms: C_23  and  C_24
REMARK   11  A    between atoms: C_23  and  C_25
REMARK   12  A    between atoms: C_23  and  C_26
REMARK                            x       y       z     vdW  Elec       q    Type
REMARK                         _______ _______ _______ _____ _____    ______ ____
ROOT
ATOM      1  C   UNL     1      -2.648  -2.354  -0.141  0.00  0.00    +0.082 C 
ATOM      2  C   UNL     1      -2.826  -3.669  -0.393  0.00  0.00    +0.034 C 
ATOM      3  N   UNL     1      -4.073  -4.183  -0.611  0.00  0.00    -0.272 N 
ATOM      4  C   UNL     1      -5.192  -3.448  -0.594  0.00  0.00    +0.304 C 
ATOM      5  O   UNL     1      -6.258  -3.995  -0.799  0.00  0.00    -0.252 OA
ATOM      6  N   UNL     1      -5.175  -2.121  -0.356  0.00  0.00    -0.285 N 
ATOM      7  C   UNL     1      -3.879  -1.471  -0.103  0.00  0.00    +0.179 C 
ATOM      8  H   UNL     1      -4.152  -5.133  -0.788  0.00  0.00    +0.156 HD
ATOM      9  H   UNL     1      -5.998  -1.608  -0.349  0.00  0.00    +0.151 HD
ENDROOT
BRANCH   7  10
ATOM     10  C   UNL     1      -3.702  -0.383  -1.130  0.00  0.00    +0.130 A 
ATOM     11  C   UNL     1      -3.304   0.878  -0.880  0.00  0.00    +0.047 A 
ATOM     12  C   UNL     1      -3.275   1.552  -2.123  0.00  0.00    +0.041 A 
ATOM     13  C   UNL     1      -3.658   0.663  -3.057  0.00  0.00    +0.195 A 
ATOM     14  O   UNL     1      -3.909  -0.508  -2.451  0.00  0.00    -0.466 OA
ENDBRANCH   7  10
BRANCH   1  15
ATOM     15  C   UNL     1      -1.358  -1.821   0.085  0.00  0.00    +0.339 C 
ATOM     16  O   UNL     1      -1.006  -1.536   1.214  0.00  0.00    -0.245 OA
BRANCH  15  17
ATOM     17  O   UNL     1      -0.516  -1.628  -0.952  0.00  0.00    -0.462 OA
BRANCH  17  19
ATOM     18  C   UNL     1       1.578  -0.939  -1.943  0.00  0.00    +0.048 C 
ATOM     19  C   UNL     1       0.771  -1.086  -0.651  0.00  0.00    +0.229 C 
ENDBRANCH  17  19
ENDBRANCH  15  17
ENDBRANCH   1  15
BRANCH   2  20
ATOM     20  C   UNL     1      -1.629  -4.584  -0.435  0.00  0.00    +0.128 C 
BRANCH  20  21
ATOM     21  S   UNL     1      -1.568  -5.570   1.086  0.00  0.00    -0.087 S 
BRANCH  21  22
ATOM     22  C   UNL     1      -0.135  -6.574   0.886  0.00  0.00    +0.126 C 
ATOM     23  N   UNL     1       0.206  -7.418   1.820  0.00  0.00    -0.363 N 
ATOM     24  N   UNL     1       0.625  -6.468  -0.256  0.00  0.00    -0.339 N 
ATOM     25  H   UNL     1       0.312  -5.929  -0.999  0.00  0.00    +0.144 HD
ATOM     26  H   UNL     1       1.475  -6.933  -0.318  0.00  0.00    +0.144 HD
ATOM     27  H   UNL     1      -0.340  -7.506   2.617  0.00  0.00    +0.162 HD
BRANCH  23  28
ATOM     28  C   UNL     1       1.413  -8.234   1.666  0.00  0.00    +0.032 C 
ATOM     29  C   UNL     1       2.636  -7.320   1.562  0.00  0.00    +0.033 C 
ATOM     30  C   UNL     1       1.566  -9.154   2.879  0.00  0.00    +0.033 C 
ATOM     31  C   UNL     1       1.299  -9.079   0.396  0.00  0.00    +0.033 C 
ENDBRANCH  23  28
ENDBRANCH  21  22
ENDBRANCH  20  21
ENDBRANCH   2  20
TORSDOF 8
