REMARK  Name = ZINC28048963
REMARK  5 active torsions:
REMARK  status: ('A' for Active; 'I' for Inactive)
REMARK    1  A    between atoms: C_8  and  N_12
REMARK    2  A    between atoms: C_9  and  O_10
REMARK    3  A    between atoms: N_12  and  S_13
REMARK    4  A    between atoms: S_13  and  C_16
REMARK    5  A    between atoms: N_23  and  C_24
REMARK                            x       y       z     vdW  Elec       q    Type
REMARK                         _______ _______ _______ _____ _____    ______ ____
ROOT
ATOM      1  C   UNL     1      -3.390   3.540   0.617  0.00  0.00    +0.001 A 
ATOM      2  C   UNL     1      -3.965   4.196  -0.461  0.00  0.00    +0.004 A 
ATOM      3  C   UNL     1      -3.506   3.979  -1.743  0.00  0.00    +0.047 A 
ATOM      4  C   UNL     1      -2.458   3.095  -1.964  0.00  0.00    +0.141 A 
ATOM      5  C   UNL     1      -1.879   2.426  -0.874  0.00  0.00    +0.042 A 
ATOM      6  C   UNL     1      -2.350   2.659   0.420  0.00  0.00    +0.013 A 
ATOM      7  C   UNL     1      -0.765   1.496  -1.119  0.00  0.00    +0.076 A 
ATOM      8  C   UNL     1      -0.346   1.318  -2.425  0.00  0.00    +0.152 A 
ATOM      9  C   UNL     1      -0.987   2.025  -3.459  0.00  0.00    +0.310 A 
ATOM     10  O   UNL     1      -1.999   2.873  -3.215  0.00  0.00    -0.424 OA
ATOM     11  N   UNL     1      -0.159   0.818  -0.076  0.00  0.00    -0.380 N 
ATOM     12  H   UNL     1       0.611   1.318   0.531  0.00  0.00    +0.160 HD
ENDROOT
BRANCH  11  13
ATOM     13  C   UNL     1      -0.688  -0.547   0.043  0.00  0.00    +0.079 C 
ATOM     14  C   UNL     1      -1.917  -0.539   0.955  0.00  0.00    +0.024 C 
ATOM     15  C   UNL     1      -2.468  -1.961   1.078  0.00  0.00    +0.002 C 
ATOM     16  C   UNL     1      -1.396  -2.874   1.675  0.00  0.00    +0.000 C 
ATOM     17  C   UNL     1      -0.167  -2.881   0.764  0.00  0.00    +0.002 C 
ATOM     18  C   UNL     1       0.385  -1.460   0.640  0.00  0.00    +0.024 C 
ENDBRANCH  11  13
BRANCH   9  19
ATOM     19  O   UNL     1      -0.614   1.863  -4.608  0.00  0.00    -0.479 OA
ATOM     20  H   UNL     1      -1.104   2.408  -5.428  0.00  0.00    +0.295 HD
ENDBRANCH   9  19
BRANCH   8  21
ATOM     21  N   UNL     1       0.711   0.438  -2.717  0.00  0.00    -0.208 N 
ATOM     22  H   UNL     1       0.631  -0.626  -2.448  0.00  0.00    +0.174 HD
BRANCH  21  23
ATOM     23  S   UNL     1       2.075   1.002  -3.466  0.00  0.00    +0.073 S 
ATOM     24  O   UNL     1       2.986  -0.087  -3.527  0.00  0.00    -0.150 OA
ATOM     25  O   UNL     1       1.643   1.700  -4.626  0.00  0.00    -0.150 OA
BRANCH  23  26
ATOM     26  C   UNL     1       2.798   2.203  -2.398  0.00  0.00    +0.110 A 
ATOM     27  C   UNL     1       3.795   1.831  -1.514  0.00  0.00    +0.029 A 
ATOM     28  C   UNL     1       4.363   2.772  -0.676  0.00  0.00    +0.003 A 
ATOM     29  C   UNL     1       3.934   4.085  -0.720  0.00  0.00    +0.020 A 
ATOM     30  C   UNL     1       2.936   4.458  -1.603  0.00  0.00    +0.043 A 
ATOM     31  C   UNL     1       2.372   3.516  -2.446  0.00  0.00    +0.048 A 
ATOM     32 CL   UNL     1       2.398   6.107  -1.660  0.00  0.00    -0.083 Cl
ENDBRANCH  23  26
ENDBRANCH  21  23
ENDBRANCH   8  21
TORSDOF 5
