REMARK  Name = ZINC36600909
REMARK  18 active torsions:
REMARK  status: ('A' for Active; 'I' for Inactive)
REMARK    1  A    between atoms: C_1  and  C_2
REMARK    2  A    between atoms: C_7  and  C_8
REMARK    3  A    between atoms: C_8  and  C_10
REMARK    4  A    between atoms: C_8  and  N_21
REMARK    5  A    between atoms: N_12  and  C_13
REMARK    6  A    between atoms: C_13  and  C_14
REMARK    7  A    between atoms: C_13  and  C_15
REMARK    8  A    between atoms: C_13  and  C_16
REMARK    9  A    between atoms: C_16  and  C_17
REMARK   10  A    between atoms: C_17  and  C_18
REMARK   11  A    between atoms: C_17  and  C_19
REMARK   12  A    between atoms: C_17  and  C_20
REMARK   13  A    between atoms: N_21  and  C_22
REMARK   14  A    between atoms: C_22  and  C_23
REMARK   15  A    between atoms: C_26  and  C_28
REMARK   16  A    between atoms: C_29  and  C_31
REMARK   17  A    between atoms: C_31  and  N_32
REMARK   18  A    between atoms: C_33  and  C_35
REMARK                            x       y       z     vdW  Elec       q    Type
REMARK                         _______ _______ _______ _____ _____    ______ ____
ROOT
ATOM      1  N   UNL     1       0.295   0.180   3.281  0.00  0.00    -0.277 N 
ATOM      2  C   UNL     1      -0.697   0.924   3.808  0.00  0.00    +0.234 C 
ATOM      3  O   UNL     1      -1.011   1.974   3.287  0.00  0.00    -0.274 OA
ENDROOT
BRANCH   1   4
ATOM      4  C   UNL     1       0.995   0.639   2.078  0.00  0.00    +0.193 C 
BRANCH   4  11
ATOM      5  C   UNL     1       0.044  -1.506   0.393  0.00  0.00    +0.044 C 
ATOM      6  C   UNL     1       1.493  -1.457   0.805  0.00  0.00    -0.045 A 
ATOM      7  C   UNL     1       2.368  -2.436   0.373  0.00  0.00    +0.004 A 
ATOM      8  C   UNL     1       3.697  -2.392   0.751  0.00  0.00    +0.000 A 
ATOM      9  C   UNL     1       4.151  -1.368   1.562  0.00  0.00    +0.000 A 
ATOM     10  C   UNL     1       3.276  -0.389   1.994  0.00  0.00    +0.006 A 
ATOM     11  C   UNL     1       1.948  -0.431   1.611  0.00  0.00    -0.015 A 
ENDBRANCH   4  11
BRANCH   4  12
ATOM     12  C   UNL     1       1.766   1.895   2.393  0.00  0.00    +0.239 C 
ATOM     13  O   UNL     1       1.958   2.215   3.547  0.00  0.00    -0.273 OA
ATOM     14  N   UNL     1       2.241   2.664   1.393  0.00  0.00    -0.308 N 
ATOM     15  H   UNL     1       2.027   2.447   0.472  0.00  0.00    +0.149 HD
BRANCH  14  16
ATOM     16  C   UNL     1       3.080   3.825   1.697  0.00  0.00    +0.030 C 
ATOM     17  C   UNL     1       2.253   4.868   2.452  0.00  0.00    +0.031 C 
ATOM     18  C   UNL     1       4.263   3.387   2.564  0.00  0.00    +0.031 C 
BRANCH  16  19
ATOM     19  C   UNL     1       3.601   4.433   0.393  0.00  0.00    +0.031 C 
BRANCH  19  20
ATOM     20  C   UNL     1       3.765   3.330  -0.654  0.00  0.00    -0.036 C 
ATOM     21  C   UNL     1       2.409   3.030  -1.295  0.00  0.00    +0.010 C 
ATOM     22  C   UNL     1       4.748   3.792  -1.732  0.00  0.00    +0.010 C 
ATOM     23  C   UNL     1       4.303   2.065   0.018  0.00  0.00    +0.010 C 
ENDBRANCH  19  20
ENDBRANCH  16  19
ENDBRANCH  14  16
ENDBRANCH   4  12
ENDBRANCH   1   4
BRANCH   1  24
ATOM     24  C   UNL     1       0.675  -1.087   3.910  0.00  0.00    +0.183 C 
BRANCH  24  25
ATOM     25  C   UNL     1       1.755  -0.837   4.931  0.00  0.00    +0.122 A 
ATOM     26  C   UNL     1       1.558  -0.533   6.226  0.00  0.00    +0.046 A 
ATOM     27  C   UNL     1       2.837  -0.385   6.811  0.00  0.00    +0.045 A 
ATOM     28  C   UNL     1       3.739  -0.607   5.838  0.00  0.00    +0.102 A 
ATOM     29  O   UNL     1       3.078  -0.887   4.703  0.00  0.00    -0.463 OA
ATOM     30  C   UNL     1       5.237  -0.557   5.996  0.00  0.00    +0.086 C 
ENDBRANCH  24  25
ENDBRANCH   1  24
BRANCH   2  31
ATOM     31  C   UNL     1      -1.416   0.452   5.045  0.00  0.00    +0.200 C 
BRANCH  31  32
ATOM     32  N   UNL     1      -2.443   1.429   5.416  0.00  0.00    -0.303 N 
ATOM     33  C   UNL     1      -3.217   1.216   6.498  0.00  0.00    +0.244 C 
ATOM     34  O   UNL     1      -3.063   0.212   7.167  0.00  0.00    -0.270 OA
ATOM     35  H   UNL     1      -2.566   2.230   4.882  0.00  0.00    +0.150 HD
BRANCH  33  36
ATOM     36  C   UNL     1      -4.254   2.201   6.872  0.00  0.00    +0.037 A 
ATOM     37  C   UNL     1      -4.437   3.352   6.103  0.00  0.00    +0.013 A 
ATOM     38  C   UNL     1      -5.406   4.267   6.457  0.00  0.00    +0.001 A 
ATOM     39  C   UNL     1      -6.195   4.048   7.572  0.00  0.00    +0.000 A 
ATOM     40  C   UNL     1      -6.018   2.910   8.339  0.00  0.00    +0.001 A 
ATOM     41  C   UNL     1      -5.057   1.983   7.993  0.00  0.00    +0.013 A 
ENDBRANCH  33  36
ENDBRANCH  31  32
ENDBRANCH   2  31
TORSDOF 11
