REMARK  Name = ZINC39992533
REMARK  7 active torsions:
REMARK  status: ('A' for Active; 'I' for Inactive)
REMARK    1  A    between atoms: C_3  and  C_6
REMARK    2  A    between atoms: N_15  and  C_16
REMARK    3  A    between atoms: C_16  and  C_17
REMARK    4  A    between atoms: C_17  and  C_18
REMARK    5  A    between atoms: N_20  and  C_21
REMARK    6  A    between atoms: C_24  and  S_27
REMARK    7  A    between atoms: S_27  and  N_30
REMARK                            x       y       z     vdW  Elec       q    Type
REMARK                         _______ _______ _______ _____ _____    ______ ____
ROOT
ATOM      1  C   UNL     1       4.901   0.168   3.127  0.00  0.00    +0.078 C 
ENDROOT
BRANCH   1   2
ATOM      2  C   UNL     1       4.428   0.309   4.551  0.00  0.00    +0.215 C 
ATOM      3  O   UNL     1       3.556   1.106   4.824  0.00  0.00    -0.276 OA
ATOM      4  N   UNL     1       4.975  -0.450   5.521  0.00  0.00    -0.286 N 
ATOM      5  H   UNL     1       5.625  -1.134   5.293  0.00  0.00    +0.155 HD
BRANCH   4   6
ATOM      6  C   UNL     1       4.606  -0.252   6.856  0.00  0.00    +0.033 A 
ATOM      7  C   UNL     1       5.545  -0.407   7.868  0.00  0.00    +0.025 A 
ATOM      8  C   UNL     1       5.177  -0.211   9.184  0.00  0.00    +0.030 A 
ATOM      9  C   UNL     1       3.877   0.140   9.496  0.00  0.00    +0.105 A 
ATOM     10  C   UNL     1       2.940   0.295   8.491  0.00  0.00    +0.030 A 
ATOM     11  C   UNL     1       3.302   0.106   7.171  0.00  0.00    +0.025 A 
BRANCH   9  12
ATOM     12  S   UNL     1       3.412   0.390  11.177  0.00  0.00    +0.056 S 
ATOM     13  O   UNL     1       2.009   0.178  11.246  0.00  0.00    -0.153 OA
ATOM     14  O   UNL     1       4.334  -0.349  11.967  0.00  0.00    -0.153 OA
BRANCH  12  15
ATOM     15  N   UNL     1       3.667   1.989  11.523  0.00  0.00    -0.204 NA
ATOM     16  H   UNL     1       4.013   2.584  10.840  0.00  0.00    +0.144 HD
ATOM     17  H   UNL     1       3.469   2.331  12.409  0.00  0.00    +0.144 HD
ENDBRANCH  12  15
ENDBRANCH   9  12
ENDBRANCH   4   6
ENDBRANCH   1   2
BRANCH   1  18
ATOM     18  C   UNL     1       4.124   1.136   2.233  0.00  0.00    -0.068 C 
BRANCH  18  27
ATOM     19  C   UNL     1       3.756   1.840  -0.025  0.00  0.00    +0.001 C 
ATOM     20  C   UNL     1       4.305   1.772  -1.447  0.00  0.00    -0.046 A 
ATOM     21  C   UNL     1       3.574   2.113  -2.582  0.00  0.00    +0.010 A 
ATOM     22  C   UNL     1       4.143   2.019  -3.807  0.00  0.00    +0.045 A 
ATOM     23  S   UNL     1       5.782   1.429  -3.408  0.00  0.00    -0.101 S 
ATOM     24  C   UNL     1       5.586   1.355  -1.651  0.00  0.00    -0.010 A 
ATOM     25  C   UNL     1       6.563   0.943  -0.599  0.00  0.00    +0.024 C 
ATOM     26  C   UNL     1       5.998   1.393   0.760  0.00  0.00    -0.072 C 
ATOM     27  N   UNL     1       4.585   0.998   0.845  0.00  0.00    +0.388 N 
ATOM     28  H   UNL     1       4.493   0.035   0.559  0.00  0.00    -0.080 HD
BRANCH  19  31
ATOM     29  C   UNL     1      -0.024   1.370   0.023  0.00  0.00    +0.008 A 
ATOM     30  C   UNL     1       1.179   2.049   0.009  0.00  0.00    +0.010 A 
ATOM     31  C   UNL     1       2.334   1.339  -0.008  0.00  0.00    -0.019 A 
ATOM     32  S   UNL     1       1.735  -0.342  -0.005  0.00  0.00    -0.103 S 
ATOM     33  C   UNL     1      -0.014   0.014   0.018  0.00  0.00    +0.045 A 
ENDBRANCH  19  31
ENDBRANCH  18  27
ENDBRANCH   1  18
TORSDOF 7
