REMARK  Name = ZINC13576751
REMARK  11 active torsions:
REMARK  status: ('A' for Active; 'I' for Inactive)
REMARK    1  A    between atoms: C_1  and  C_2
REMARK    2  A    between atoms: C_2  and  C_3
REMARK    3  A    between atoms: C_3  and  C_5
REMARK    4  A    between atoms: C_3  and  C_6
REMARK    5  A    between atoms: C_6  and  C_8
REMARK    6  A    between atoms: C_6  and  N_19
REMARK    7  A    between atoms: N_10  and  C_11
REMARK    8  A    between atoms: C_11  and  C_12
REMARK    9  A    between atoms: C_20  and  C_22
REMARK   10  A    between atoms: C_24  and  C_37
REMARK   11  A    between atoms: C_24  and  C_38
REMARK                            x       y       z     vdW  Elec       q    Type
REMARK                         _______ _______ _______ _____ _____    ______ ____
ROOT
ATOM      1  N   UNL     1      -6.818   1.419  -1.943  0.00  0.00    -0.302 N 
ATOM      2  C   UNL     1      -5.577   1.724  -1.514  0.00  0.00    +0.236 C 
ATOM      3  O   UNL     1      -4.657   0.964  -1.730  0.00  0.00    -0.274 OA
ATOM      4  H   UNL     1      -7.553   2.027  -1.770  0.00  0.00    +0.150 HD
ENDROOT
BRANCH   2   5
ATOM      5  C   UNL     1      -5.333   3.008  -0.765  0.00  0.00    +0.179 C 
ATOM      6  C   UNL     1      -5.372   4.183  -1.771  0.00  0.00    +0.040 C 
ATOM      7  S   UNL     1      -3.789   5.052  -1.386  0.00  0.00    -0.125 S 
ATOM      8  C   UNL     1      -3.483   4.243   0.252  0.00  0.00    +0.167 C 
ATOM      9  N   UNL     1      -4.063   2.897  -0.045  0.00  0.00    -0.269 N 
ATOM     10  C   UNL     1      -3.185   2.001   0.455  0.00  0.00    +0.249 C 
ATOM     11  O   UNL     1      -3.451   0.854   0.757  0.00  0.00    -0.270 OA
ATOM     12  C   UNL     1      -1.854   2.626   0.580  0.00  0.00    +0.043 A 
ATOM     13  C   UNL     1      -2.011   4.010   0.441  0.00  0.00    -0.005 A 
ATOM     14  C   UNL     1      -0.917   4.840   0.504  0.00  0.00    +0.007 A 
ATOM     15  C   UNL     1       0.344   4.311   0.724  0.00  0.00    +0.000 A 
ATOM     16  C   UNL     1       0.507   2.946   0.881  0.00  0.00    +0.001 A 
ATOM     17  C   UNL     1      -0.583   2.103   0.812  0.00  0.00    +0.013 A 
ATOM     18  C   UNL     1      -5.380   3.671  -3.212  0.00  0.00    +0.025 C 
ATOM     19  C   UNL     1      -6.575   5.091  -1.508  0.00  0.00    +0.025 C 
ENDBRANCH   2   5
BRANCH   1  20
ATOM     20  C   UNL     1      -7.055   0.170  -2.671  0.00  0.00    +0.162 C 
BRANCH  20  21
ATOM     21  C   UNL     1      -8.274   0.322  -3.544  0.00  0.00    +0.234 C 
ATOM     22  O   UNL     1      -9.145   1.109  -3.239  0.00  0.00    -0.274 OA
ATOM     23  N   UNL     1      -8.397  -0.418  -4.664  0.00  0.00    -0.310 N 
ATOM     24  H   UNL     1      -7.738  -1.098  -4.871  0.00  0.00    +0.149 HD
BRANCH  23  25
ATOM     25  C   UNL     1      -9.528  -0.195  -5.569  0.00  0.00    +0.139 C 
BRANCH  25  26
ATOM     26  C   UNL     1      -9.432  -1.144  -6.736  0.00  0.00    -0.030 A 
ATOM     27  C   UNL     1      -8.750  -0.768  -7.877  0.00  0.00    +0.008 A 
ATOM     28  C   UNL     1      -8.657  -1.639  -8.946  0.00  0.00    +0.038 A 
ATOM     29  C   UNL     1      -9.258  -2.885  -8.877  0.00  0.00    +0.123 A 
ATOM     30  C   UNL     1      -9.946  -3.258  -7.735  0.00  0.00    +0.038 A 
ATOM     31  C   UNL     1     -10.033  -2.387  -6.666  0.00  0.00    +0.008 A 
ATOM     32  F   UNL     1      -9.172  -3.735  -9.923  0.00  0.00    -0.205 F 
ENDBRANCH  25  26
ENDBRANCH  23  25
ENDBRANCH  20  21
BRANCH  20  33
ATOM     33  C   UNL     1      -7.280  -0.967  -1.673  0.00  0.00    +0.015 C 
ATOM     34  C   UNL     1      -7.400  -2.292  -2.429  0.00  0.00    +0.010 C 
BRANCH  33  36
ATOM     35  C   UNL     1      -8.728  -1.779   0.194  0.00  0.00    +0.004 C 
ATOM     36  C   UNL     1      -8.568  -0.709  -0.888  0.00  0.00    +0.002 C 
ENDBRANCH  33  36
ENDBRANCH  20  33
ENDBRANCH   1  20
TORSDOF 7
