REMARK  Name = ZINC66567154
REMARK  9 active torsions:
REMARK  status: ('A' for Active; 'I' for Inactive)
REMARK    1  A    between atoms: C_1  and  C_2
REMARK    2  A    between atoms: C_7  and  N_10
REMARK    3  A    between atoms: C_11  and  C_13
REMARK    4  A    between atoms: C_13  and  N_14
REMARK    5  A    between atoms: N_17  and  C_20
REMARK    6  A    between atoms: C_20  and  C_21
REMARK    7  A    between atoms: N_26  and  C_27
REMARK    8  A    between atoms: C_27  and  C_28
REMARK    9  A    between atoms: C_27  and  C_29
REMARK                            x       y       z     vdW  Elec       q    Type
REMARK                         _______ _______ _______ _____ _____    ______ ____
ROOT
ATOM      1  N   UNL     1       1.472  -5.609   4.456  0.00  0.00    -0.292 NA
ATOM      2  C   UNL     1       0.063  -5.596   4.874  0.00  0.00    +0.100 C 
ATOM      3  C   UNL     1      -0.403  -7.032   5.129  0.00  0.00    +0.100 C 
ATOM      4  N   UNL     1       0.445  -7.643   6.162  0.00  0.00    -0.292 NA
ATOM      5  C   UNL     1       1.853  -7.656   5.743  0.00  0.00    +0.100 C 
ATOM      6  C   UNL     1       2.320  -6.220   5.488  0.00  0.00    +0.100 C 
ENDROOT
BRANCH   1   7
ATOM      7  C   UNL     1       1.936  -4.254   4.128  0.00  0.00    +0.180 C 
BRANCH   7   9
ATOM      8  N   UNL     1       1.471  -2.526   2.420  0.00  0.00    -0.311 N 
ATOM      9  C   UNL     1       1.207  -3.754   2.907  0.00  0.00    +0.227 C 
ATOM     10  O   UNL     1       0.382  -4.458   2.364  0.00  0.00    -0.274 OA
ATOM     11  H   UNL     1       2.131  -1.963   2.855  0.00  0.00    +0.149 HD
BRANCH   8  17
ATOM     12  C   UNL     1      -0.019   1.526   0.010  0.00  0.00    +0.007 C 
ATOM     13  C   UNL     1       0.002  -0.004   0.002  0.00  0.00    -0.012 C 
ATOM     14  C   UNL     1       0.718  -0.497  -1.257  0.00  0.00    +0.003 C 
ATOM     15  C   UNL     1       0.739  -2.027  -1.265  0.00  0.00    +0.002 C 
ATOM     16  C   UNL     1       1.479  -2.534  -0.026  0.00  0.00    +0.022 C 
ATOM     17  C   UNL     1       0.763  -2.041   1.233  0.00  0.00    +0.073 C 
ATOM     18  C   UNL     1       0.742  -0.511   1.242  0.00  0.00    +0.025 C 
ENDBRANCH   8  17
ENDBRANCH   7   9
ENDBRANCH   1   7
BRANCH   4  19
ATOM     19  C   UNL     1      -0.019  -8.998   6.489  0.00  0.00    +0.181 C 
BRANCH  19  20
ATOM     20  C   UNL     1       0.710  -9.497   7.710  0.00  0.00    +0.234 C 
ATOM     21  O   UNL     1       1.534  -8.794   8.253  0.00  0.00    -0.274 OA
ATOM     22  N   UNL     1       0.445 -10.726   8.197  0.00  0.00    -0.239 N 
ATOM     23  C   UNL     1       1.097 -11.172   9.289  0.00  0.00    +0.306 C 
ATOM     24  O   UNL     1       1.923 -10.467   9.834  0.00  0.00    -0.252 OA
ATOM     25  N   UNL     1       0.833 -12.401   9.777  0.00  0.00    -0.297 N 
ATOM     26  H   UNL     1      -0.214 -11.289   7.762  0.00  0.00    +0.159 HD
ATOM     27  H   UNL     1       0.173 -12.963   9.341  0.00  0.00    +0.151 HD
BRANCH  25  28
ATOM     28  C   UNL     1       1.541 -12.886  10.963  0.00  0.00    +0.068 C 
ATOM     29  C   UNL     1       0.691 -13.946  11.667  0.00  0.00    +0.027 C 
ATOM     30  C   UNL     1       2.878 -13.501  10.543  0.00  0.00    +0.027 C 
ENDBRANCH  25  28
ENDBRANCH  19  20
ENDBRANCH   4  19
TORSDOF 6
