REMARK  Name = ZINC15099668
REMARK  16 active torsions:
REMARK  status: ('A' for Active; 'I' for Inactive)
REMARK    1  A    between atoms: C_1  and  C_2
REMARK    2  A    between atoms: C_2  and  C_3
REMARK    3  A    between atoms: C_3  and  C_4
REMARK    4  A    between atoms: C_4  and  N_5
REMARK    5  A    between atoms: C_6  and  N_31
REMARK    6  A    between atoms: C_7  and  N_14
REMARK    7  A    between atoms: N_14  and  C_15
REMARK    8  A    between atoms: C_15  and  C_16
REMARK    9  A    between atoms: C_17  and  C_19
REMARK   10  A    between atoms: C_19  and  N_64
REMARK   11  A    between atoms: C_20  and  N_64
REMARK   12  A    between atoms: C_21  and  C_22
REMARK   13  A    between atoms: C_21  and  N_64
REMARK   14  A    between atoms: C_22  and  O_23
REMARK   15  A    between atoms: O_23  and  C_24
REMARK   16  A    between atoms: C_29  and  C_30
REMARK                            x       y       z     vdW  Elec       q    Type
REMARK                         _______ _______ _______ _____ _____    ______ ____
ROOT
ATOM      1  N   UNL     1      -1.350  -4.842  -2.321  0.00  0.00    -0.266 N 
ATOM      2  C   UNL     1      -1.510  -4.188  -3.490  0.00  0.00    +0.203 C 
ATOM      3  O   UNL     1      -1.571  -2.976  -3.504  0.00  0.00    -0.277 OA
ENDROOT
BRANCH   1   6
ATOM      4  N   UNL     1      -0.261  -3.348   0.854  0.00  0.00    -0.280 N 
ATOM      5  C   UNL     1      -0.220  -4.049  -0.329  0.00  0.00    +0.127 A 
ATOM      6  C   UNL     1      -1.359  -4.127  -1.105  0.00  0.00    +0.140 A 
ATOM      7  C   UNL     1      -2.526  -3.475  -0.666  0.00  0.00    +0.277 A 
ATOM      8  O   UNL     1      -3.545  -3.524  -1.335  0.00  0.00    -0.266 OA
ATOM      9  N   UNL     1      -2.512  -2.798   0.499  0.00  0.00    -0.273 N 
ATOM     10  H   UNL     1      -3.341  -2.335   0.812  0.00  0.00    +0.173 HD
ATOM     11  C   UNL     1      -1.394  -2.737   1.245  0.00  0.00    +0.331 A 
ATOM     12  O   UNL     1      -1.409  -2.119   2.292  0.00  0.00    -0.246 OA
BRANCH   5  13
ATOM     13  N   UNL     1       0.939  -4.668  -0.731  0.00  0.00    -0.343 N 
ATOM     14  H   UNL     1       1.747  -4.574  -0.203  0.00  0.00    +0.144 HD
ATOM     15  H   UNL     1       0.949  -5.198  -1.543  0.00  0.00    +0.144 HD
ENDBRANCH   5  13
BRANCH   4  16
ATOM     16  C   UNL     1       0.938  -3.262   1.691  0.00  0.00    +0.128 C 
BRANCH  16  17
ATOM     17  C   UNL     1       0.953  -4.428   2.683  0.00  0.00    +0.021 C 
BRANCH  17  19
ATOM     18  C   UNL     1       2.220  -5.503   4.548  0.00  0.00    +0.004 C 
ATOM     19  C   UNL     1       2.205  -4.338   3.557  0.00  0.00    -0.002 C 
ENDBRANCH  17  19
ENDBRANCH  16  17
ENDBRANCH   4  16
ENDBRANCH   1   6
BRANCH   1  20
ATOM     20  C   UNL     1      -1.168  -6.296  -2.315  0.00  0.00    +0.110 C 
ATOM     21  C   UNL     1      -2.535  -6.981  -2.349  0.00  0.00    +0.025 C 
ENDBRANCH   1  20
BRANCH   2  22
ATOM     22  C   UNL     1      -1.613  -4.962  -4.779  0.00  0.00    +0.019 C 
BRANCH  22  24
ATOM     23  C   UNL     1      -3.068  -3.324  -5.810  0.00  0.00    -0.095 C 
ATOM     24  N   UNL     1      -1.760  -4.007  -5.898  0.00  0.00    +0.386 N 
ATOM     25  H   UNL     1      -1.013  -3.305  -5.839  0.00  0.00    -0.081 HD
BRANCH  24  26
ATOM     26  C   UNL     1      -1.649  -4.719  -7.188  0.00  0.00    -0.037 C 
BRANCH  26  27
ATOM     27  C   UNL     1      -1.580  -3.689  -8.317  0.00  0.00    +0.210 C 
BRANCH  27  28
ATOM     28  O   UNL     1      -0.388  -2.912  -8.181  0.00  0.00    -0.494 OA
BRANCH  28  29
ATOM     29  C   UNL     1      -0.173  -1.944  -9.110  0.00  0.00    +0.123 A 
ATOM     30  C   UNL     1      -1.087  -1.750 -10.136  0.00  0.00    +0.046 A 
ATOM     31  C   UNL     1      -0.868  -0.762 -11.076  0.00  0.00    +0.004 A 
ATOM     32  C   UNL     1       0.266   0.026 -11.002  0.00  0.00    +0.000 A 
ATOM     33  C   UNL     1       1.181  -0.169  -9.985  0.00  0.00    +0.007 A 
ATOM     34  C   UNL     1       0.964  -1.153  -9.039  0.00  0.00    -0.009 A 
ATOM     35  C   UNL     1       1.963  -1.366  -7.930  0.00  0.00    +0.047 C 
ENDBRANCH  28  29
ENDBRANCH  27  28
ENDBRANCH  26  27
ENDBRANCH  24  26
ENDBRANCH  22  24
ENDBRANCH   2  22
TORSDOF 12
