REMARK  Name = ZINC36637887
REMARK  9 active torsions:
REMARK  status: ('A' for Active; 'I' for Inactive)
REMARK    1  A    between atoms: C_1  and  C_2
REMARK    2  A    between atoms: C_2  and  N_3
REMARK    3  A    between atoms: N_3  and  C_4
REMARK    4  A    between atoms: N_3  and  C_6
REMARK    5  A    between atoms: C_4  and  C_5
REMARK    6  A    between atoms: C_6  and  C_7
REMARK    7  A    between atoms: C_7  and  N_8
REMARK    8  A    between atoms: C_19  and  C_21
REMARK    9  A    between atoms: C_23  and  N_28
REMARK                            x       y       z     vdW  Elec       q    Type
REMARK                         _______ _______ _______ _____ _____    ______ ____
ROOT
ATOM      1  N   UNL     1      -1.076  -3.722   1.917  0.00  0.00    -0.248 N 
ATOM      2  C   UNL     1      -0.066  -4.582   1.520  0.00  0.00    +0.168 A 
ATOM      3  N   UNL     1       1.054  -4.304   0.894  0.00  0.00    -0.224 NA
ATOM      4  C   UNL     1       1.958  -5.253   0.567  0.00  0.00    +0.080 A 
ATOM      5  C   UNL     1       3.193  -5.088  -0.102  0.00  0.00    +0.030 A 
ATOM      6  C   UNL     1       3.999  -6.166  -0.360  0.00  0.00    +0.017 A 
ATOM      7  C   UNL     1       3.636  -7.450   0.023  0.00  0.00    +0.019 A 
ATOM      8  C   UNL     1       2.435  -7.648   0.679  0.00  0.00    +0.032 A 
ATOM      9  C   UNL     1       1.621  -6.574   0.941  0.00  0.00    +0.042 A 
ATOM     10  S   UNL     1       0.048  -6.353   1.736  0.00  0.00    -0.052 S 
ATOM     11 BR   UNL     1       4.774  -8.915  -0.350  0.00  0.00    -0.050 Br
ATOM     12  C   UNL     1      -2.157  -4.205   2.561  0.00  0.00    +0.254 C 
ATOM     13  O   UNL     1      -2.208  -5.380   2.868  0.00  0.00    -0.270 OA
ENDROOT
BRANCH  12  14
ATOM     14  C   UNL     1      -3.281  -3.305   2.893  0.00  0.00    +0.058 A 
ATOM     15  C   UNL     1      -3.061  -2.167   3.671  0.00  0.00    +0.047 A 
ATOM     16  C   UNL     1      -4.114  -1.331   3.978  0.00  0.00    +0.127 A 
ATOM     17  C   UNL     1      -5.388  -1.617   3.516  0.00  0.00    +0.034 A 
ATOM     18  C   UNL     1      -5.614  -2.743   2.745  0.00  0.00    +0.023 A 
ATOM     19  C   UNL     1      -4.567  -3.586   2.426  0.00  0.00    +0.053 A 
ATOM     20 CL   UNL     1      -4.851  -4.995   1.452  0.00  0.00    -0.083 Cl
BRANCH  16  21
ATOM     21  N   UNL     1      -3.883  -0.124   4.803  0.00  0.00    +0.056 N 
ATOM     22  O   UNL     1      -2.772   0.128   5.207  0.00  0.00    -0.126 OA
ATOM     23  O   UNL     1      -4.805   0.610   5.073  0.00  0.00    -0.126 OA
ENDBRANCH  16  21
ENDBRANCH  12  14
BRANCH   1  24
ATOM     24  C   UNL     1      -0.969  -2.288   1.637  0.00  0.00    +0.097 C 
BRANCH  24  25
ATOM     25  C   UNL     1      -1.719  -1.964   0.344  0.00  0.00    -0.059 C 
BRANCH  25  26
ATOM     26  N   UNL     1      -1.611  -0.525   0.064  0.00  0.00    +0.380 N 
ATOM     27  H   UNL     1      -1.940  -0.002   0.861  0.00  0.00    -0.082 HD
BRANCH  26  29
ATOM     28  C   UNL     1      -0.075   1.334  -0.357  0.00  0.00    -0.017 C 
ATOM     29  C   UNL     1      -0.208  -0.182  -0.204  0.00  0.00    -0.082 C 
ENDBRANCH  26  29
BRANCH  26  30
ATOM     30  C   UNL     1      -2.429  -0.193  -1.110  0.00  0.00    -0.082 C 
ATOM     31  C   UNL     1      -3.907  -0.417  -0.783  0.00  0.00    -0.017 C 
ENDBRANCH  26  30
ENDBRANCH  25  26
ENDBRANCH  24  25
ENDBRANCH   1  24
TORSDOF 7
