REMARK  Name = ZINC09483389
REMARK  12 active torsions:
REMARK  status: ('A' for Active; 'I' for Inactive)
REMARK    1  A    between atoms: C_1  and  C_2
REMARK    2  A    between atoms: C_5  and  C_8
REMARK    3  A    between atoms: C_13  and  C_17
REMARK    4  A    between atoms: C_13  and  C_18
REMARK    5  A    between atoms: N_26  and  C_27
REMARK    6  A    between atoms: C_27  and  C_28
REMARK    7  A    between atoms: N_30  and  C_31
REMARK    8  A    between atoms: C_31  and  C_32
REMARK    9  A    between atoms: C_32  and  C_33
REMARK   10  A    between atoms: C_33  and  N_73
REMARK   11  A    between atoms: C_34  and  N_73
REMARK   12  A    between atoms: C_35  and  N_73
REMARK                            x       y       z     vdW  Elec       q    Type
REMARK                         _______ _______ _______ _____ _____    ______ ____
ROOT
ATOM      1  C   UNL     1      -2.478  -4.334  -1.241  0.00  0.00    +0.139 C 
ATOM      2  C   UNL     1      -2.749  -5.802  -1.475  0.00  0.00    +0.037 C 
ATOM      3  C   UNL     1      -3.184  -6.686  -0.561  0.00  0.00    +0.017 C 
ATOM      4  C   UNL     1      -3.452  -8.131  -0.939  0.00  0.00    +0.058 C 
ATOM      5  C   UNL     1      -3.909  -8.213  -2.395  0.00  0.00    -0.023 C 
ATOM      6  C   UNL     1      -2.795  -7.620  -3.267  0.00  0.00    +0.086 C 
ATOM      7  C   UNL     1      -2.527  -6.217  -2.810  0.00  0.00    +0.163 C 
ATOM      8  O   UNL     1      -2.106  -5.409  -3.614  0.00  0.00    -0.292 OA
ATOM      9  C   UNL     1      -5.197  -7.409  -2.581  0.00  0.00    +0.011 C 
ATOM     10  C   UNL     1      -4.148  -9.674  -2.782  0.00  0.00    +0.011 C 
ATOM     11  N   UNL     1      -3.400  -6.380   0.745  0.00  0.00    -0.316 N 
ATOM     12  C   UNL     1      -2.515  -5.621   1.508  0.00  0.00    +0.052 A 
ATOM     13  C   UNL     1      -1.860  -6.150   2.607  0.00  0.00    +0.025 A 
ATOM     14  C   UNL     1      -1.016  -5.339   3.347  0.00  0.00    +0.002 A 
ATOM     15  C   UNL     1      -0.832  -4.016   2.986  0.00  0.00    +0.002 A 
ATOM     16  C   UNL     1      -1.481  -3.493   1.882  0.00  0.00    +0.025 A 
ATOM     17  C   UNL     1      -2.323  -4.307   1.134  0.00  0.00    +0.052 A 
ATOM     18  N   UNL     1      -2.973  -3.811   0.011  0.00  0.00    -0.308 N 
ATOM     19  H   UNL     1      -4.209  -6.707   1.168  0.00  0.00    +0.152 HD
ENDROOT
BRANCH   1  24
ATOM     20  C   UNL     1      -4.892  -1.329  -5.547  0.00  0.00    +0.044 C 
ATOM     21  C   UNL     1      -4.262  -2.112  -4.424  0.00  0.00    -0.050 A 
ATOM     22  C   UNL     1      -5.061  -2.750  -3.494  0.00  0.00    +0.004 A 
ATOM     23  C   UNL     1      -4.484  -3.469  -2.464  0.00  0.00    +0.006 A 
ATOM     24  C   UNL     1      -3.108  -3.550  -2.364  0.00  0.00    -0.023 A 
ATOM     25  C   UNL     1      -2.308  -2.908  -3.292  0.00  0.00    +0.006 A 
ATOM     26  C   UNL     1      -2.886  -2.194  -4.325  0.00  0.00    +0.004 A 
ENDBRANCH   1  24
BRANCH  18  27
ATOM     27  C   UNL     1      -2.970  -2.342   0.007  0.00  0.00    +0.201 C 
BRANCH  27  28
ATOM     28  C   UNL     1      -3.802  -1.835   1.157  0.00  0.00    +0.230 C 
ATOM     29  O   UNL     1      -4.343  -2.620   1.907  0.00  0.00    -0.274 OA
ATOM     30  N   UNL     1      -3.943  -0.509   1.352  0.00  0.00    -0.314 N 
ATOM     31  H   UNL     1      -3.510   0.119   0.753  0.00  0.00    +0.149 HD
BRANCH  30  32
ATOM     32  C   UNL     1      -4.751  -0.016   2.470  0.00  0.00    +0.102 C 
BRANCH  32  33
ATOM     33  C   UNL     1      -4.748   1.514   2.466  0.00  0.00    +0.000 C 
BRANCH  33  34
ATOM     34  C   UNL     1      -5.592   2.029   3.634  0.00  0.00    -0.078 C 
BRANCH  34  37
ATOM     35  C   UNL     1      -6.279   4.022   2.442  0.00  0.00    -0.097 C 
ATOM     36  C   UNL     1      -6.186   4.029   4.862  0.00  0.00    -0.097 C 
ATOM     37  N   UNL     1      -5.562   3.507   3.628  0.00  0.00    +0.376 N 
ATOM     38  H   UNL     1      -4.585   3.821   3.590  0.00  0.00    -0.083 HD
ENDBRANCH  34  37
ENDBRANCH  33  34
ENDBRANCH  32  33
ENDBRANCH  30  32
ENDBRANCH  27  28
ENDBRANCH  18  27
TORSDOF 7
