REMARK  Name = ZINC01853629
REMARK  10 active torsions:
REMARK  status: ('A' for Active; 'I' for Inactive)
REMARK    1  A    between atoms: C_1  and  C_2
REMARK    2  A    between atoms: C_2  and  C_3
REMARK    3  A    between atoms: C_3  and  S_4
REMARK    4  A    between atoms: S_4  and  C_5
REMARK    5  A    between atoms: C_14  and  C_16
REMARK    6  A    between atoms: C_14  and  C_17
REMARK    7  A    between atoms: C_20  and  S_23
REMARK    8  A    between atoms: S_23  and  C_24
REMARK    9  A    between atoms: C_24  and  C_25
REMARK   10  A    between atoms: N_27  and  C_28
REMARK                            x       y       z     vdW  Elec       q    Type
REMARK                         _______ _______ _______ _____ _____    ______ ____
ROOT
ATOM      1  C   UNL     1      -3.113  -2.797   0.023  0.00  0.00    +0.178 A 
ATOM      2  N   UNL     1      -4.028  -1.856   0.034  0.00  0.00    -0.216 NA
ATOM      3  C   UNL     1      -5.330  -2.130   0.054  0.00  0.00    +0.115 A 
ATOM      4  C   UNL     1      -5.819  -3.445   0.065  0.00  0.00    +0.056 A 
ATOM      5  C   UNL     1      -7.270  -3.585   0.088  0.00  0.00    -0.019 A 
ATOM      6  C   UNL     1      -7.999  -2.444   0.096  0.00  0.00    +0.021 A 
ATOM      7  S   UNL     1      -6.804  -1.139   0.075  0.00  0.00    -0.071 S 
ATOM      8  C   UNL     1      -9.493  -2.347   0.118  0.00  0.00    +0.203 C 
ATOM      9  O   UNL     1     -10.024  -3.646  -0.190  0.00  0.00    -0.368 OA
ATOM     10  C   UNL     1      -9.426  -4.701   0.567  0.00  0.00    +0.068 C 
ATOM     11  C   UNL     1      -7.985  -4.934   0.104  0.00  0.00    +0.071 C 
ATOM     12  C   UNL     1     -10.235  -5.986   0.374  0.00  0.00    +0.041 C 
ATOM     13  C   UNL     1      -9.427  -4.324   2.050  0.00  0.00    +0.041 C 
ATOM     14  C   UNL     1      -4.783  -4.500   0.051  0.00  0.00    +0.174 A 
ATOM     15  N   UNL     1      -3.458  -4.123   0.026  0.00  0.00    -0.248 N 
ATOM     16  C   UNL     1      -2.747  -5.292   0.013  0.00  0.00    +0.198 A 
ATOM     17  N   UNL     1      -3.617  -6.275   0.023  0.00  0.00    -0.122 NA
ATOM     18  N   UNL     1      -4.817  -5.810   0.054  0.00  0.00    -0.128 NA
ENDROOT
BRANCH   1  19
ATOM     19  S   UNL     1      -1.409  -2.348  -0.004  0.00  0.00    -0.087 S 
BRANCH  19  20
ATOM     20  C   UNL     1      -1.434  -0.534   0.000  0.00  0.00    +0.077 C 
BRANCH  20  22
ATOM     21  C   UNL     1      -0.020   1.526  -0.019  0.00  0.00    +0.004 C 
ATOM     22  C   UNL     1       0.001  -0.004  -0.022  0.00  0.00    +0.008 C 
ENDBRANCH  20  22
ENDBRANCH  19  20
ENDBRANCH   1  19
BRANCH  16  23
ATOM     23  S   UNL     1      -0.992  -5.448  -0.015  0.00  0.00    -0.076 S 
BRANCH  23  24
ATOM     24  C   UNL     1      -0.711  -7.240  -0.023  0.00  0.00    +0.173 C 
BRANCH  24  25
ATOM     25  C   UNL     1       0.770  -7.516  -0.046  0.00  0.00    +0.227 C 
ATOM     26  O   UNL     1       1.559  -6.595  -0.057  0.00  0.00    -0.275 OA
ATOM     27  N   UNL     1       1.219  -8.787  -0.056  0.00  0.00    -0.285 N 
ATOM     28  H   UNL     1       0.592  -9.524   0.019  0.00  0.00    +0.155 HD
BRANCH  27  29
ATOM     29  C   UNL     1       2.589  -9.045  -0.176  0.00  0.00    +0.033 A 
ATOM     30  C   UNL     1       3.029 -10.153  -0.887  0.00  0.00    +0.024 A 
ATOM     31  C   UNL     1       4.382 -10.405  -1.004  0.00  0.00    +0.017 A 
ATOM     32  C   UNL     1       5.299  -9.553  -0.413  0.00  0.00    +0.018 A 
ATOM     33  C   UNL     1       4.863  -8.448   0.297  0.00  0.00    +0.017 A 
ATOM     34  C   UNL     1       3.512  -8.189   0.412  0.00  0.00    +0.024 A 
ATOM     35 BR   UNL     1       7.151  -9.901  -0.574  0.00  0.00    -0.050 Br
ENDBRANCH  27  29
ENDBRANCH  24  25
ENDBRANCH  23  24
ENDBRANCH  16  23
TORSDOF 7
