REMARK  Name = ZINC63623029
REMARK  9 active torsions:
REMARK  status: ('A' for Active; 'I' for Inactive)
REMARK    1  A    between atoms: C_4  and  C_7
REMARK    2  A    between atoms: C_7  and  C_9
REMARK    3  A    between atoms: C_9  and  O_10
REMARK    4  A    between atoms: O_10  and  C_11
REMARK    5  A    between atoms: C_11  and  C_13
REMARK    6  A    between atoms: C_13  and  C_15
REMARK    7  A    between atoms: C_13  and  N_25
REMARK    8  A    between atoms: C_15  and  C_16
REMARK    9  A    between atoms: C_26  and  C_28
REMARK                            x       y       z     vdW  Elec       q    Type
REMARK                         _______ _______ _______ _____ _____    ______ ____
ROOT
ATOM      1  C   UNL     1       6.748  -4.644  -0.078  0.00  0.00    +0.186 C 
ENDROOT
BRANCH   1   2
ATOM      2  N   UNL     1       6.679  -6.079   0.208  0.00  0.00    -0.298 N 
ATOM      3  C   UNL     1       7.758  -6.860   0.002  0.00  0.00    +0.245 C 
ATOM      4  O   UNL     1       8.789  -6.374  -0.421  0.00  0.00    -0.270 OA
ATOM      5  H   UNL     1       5.856  -6.468   0.545  0.00  0.00    +0.150 HD
BRANCH   3   6
ATOM      6  C   UNL     1       7.687  -8.308   0.289  0.00  0.00    +0.037 A 
ATOM      7  C   UNL     1       6.503  -8.871   0.769  0.00  0.00    +0.014 A 
ATOM      8  C   UNL     1       6.444 -10.223   1.036  0.00  0.00    +0.016 A 
ATOM      9  C   UNL     1       7.556 -11.022   0.829  0.00  0.00    +0.018 A 
ATOM     10  C   UNL     1       8.733 -10.470   0.353  0.00  0.00    +0.016 A 
ATOM     11  C   UNL     1       8.803  -9.120   0.077  0.00  0.00    +0.014 A 
ATOM     12 BR   UNL     1       7.466 -12.874   1.197  0.00  0.00    -0.050 Br
ENDBRANCH   3   6
ENDBRANCH   1   2
BRANCH   1  13
ATOM     13  C   UNL     1       5.372  -4.132  -0.418  0.00  0.00    +0.328 C 
ATOM     14  O   UNL     1       4.430  -4.889  -0.422  0.00  0.00    -0.249 OA
BRANCH  13  15
ATOM     15  O   UNL     1       5.193  -2.836  -0.717  0.00  0.00    -0.455 OA
BRANCH  15  16
ATOM     16  C   UNL     1       3.863  -2.420  -1.030  0.00  0.00    +0.311 C 
BRANCH  16  17
ATOM     17  C   UNL     1       3.856  -0.945  -1.337  0.00  0.00    +0.200 C 
ATOM     18  O   UNL     1       4.890  -0.312  -1.291  0.00  0.00    -0.288 OA
BRANCH  17  22
ATOM     19  C   UNL     1       0.225   0.994  -2.359  0.00  0.00    +0.000 A 
ATOM     20  C   UNL     1       1.402   1.720  -2.307  0.00  0.00    +0.001 A 
ATOM     21  C   UNL     1       2.586   1.097  -1.976  0.00  0.00    +0.011 A 
ATOM     22  C   UNL     1       2.596  -0.272  -1.691  0.00  0.00    +0.021 A 
ATOM     23  C   UNL     1       1.403  -0.999  -1.744  0.00  0.00    +0.011 A 
ATOM     24  C   UNL     1       0.226  -0.361  -2.078  0.00  0.00    +0.001 A 
ENDBRANCH  17  22
ENDBRANCH  16  17
ENDBRANCH  15  16
ENDBRANCH  13  15
ENDBRANCH   1  13
BRANCH   1  25
ATOM     25  C   UNL     1       7.277  -3.905   1.153  0.00  0.00    +0.067 C 
BRANCH  25  26
ATOM     26  C   UNL     1       6.379  -4.182   2.331  0.00  0.00    -0.039 C 
ATOM     27  C   UNL     1       6.544  -5.140   3.271  0.00  0.00    -0.001 A 
ATOM     28  C   UNL     1       7.569  -6.171   3.471  0.00  0.00    +0.010 A 
ATOM     29  C   UNL     1       7.462  -7.006   4.530  0.00  0.00    +0.001 A 
ATOM     30  C   UNL     1       6.399  -6.911   5.439  0.00  0.00    +0.002 A 
ATOM     31  C   UNL     1       5.419  -5.990   5.321  0.00  0.00    +0.026 A 
ATOM     32  C   UNL     1       5.431  -5.061   4.245  0.00  0.00    +0.043 A 
ATOM     33  N   UNL     1       4.611  -4.092   3.919  0.00  0.00    -0.380 N 
ATOM     34  C   UNL     1       5.114  -3.442   2.703  0.00  0.00    +0.144 C 
ATOM     35  H   UNL     1       3.808  -3.844   4.403  0.00  0.00    +0.160 HD
ENDBRANCH  25  26
ENDBRANCH   1  25
TORSDOF 9
