REMARK  Name = ZINC35264950
REMARK  12 active torsions:
REMARK  status: ('A' for Active; 'I' for Inactive)
REMARK    1  A    between atoms: C_1  and  C_2
REMARK    2  A    between atoms: C_2  and  N_3
REMARK    3  A    between atoms: N_3  and  C_4
REMARK    4  A    between atoms: N_3  and  C_6
REMARK    5  A    between atoms: C_4  and  C_5
REMARK    6  A    between atoms: C_6  and  C_7
REMARK    7  A    between atoms: C_7  and  N_8
REMARK    8  A    between atoms: C_9  and  C_11
REMARK    9  A    between atoms: C_13  and  N_22
REMARK   10  A    between atoms: C_16  and  N_17
REMARK   11  A    between atoms: C_23  and  C_25
REMARK   12  A    between atoms: C_28  and  N_32
REMARK                            x       y       z     vdW  Elec       q    Type
REMARK                         _______ _______ _______ _____ _____    ______ ____
ROOT
ATOM      1  C   UNL     1      -0.199  -5.772   3.890  0.00  0.00    +0.059 A 
ATOM      2  C   UNL     1      -0.759  -6.725   3.035  0.00  0.00    +0.038 A 
ATOM      3  C   UNL     1      -0.982  -8.012   3.491  0.00  0.00    +0.035 A 
ATOM      4  C   UNL     1      -0.651  -8.359   4.798  0.00  0.00    +0.025 A 
ATOM      5  C   UNL     1      -0.099  -7.425   5.649  0.00  0.00    +0.026 A 
ATOM      6  C   UNL     1       0.137  -6.130   5.204  0.00  0.00    +0.042 A 
ENDROOT
BRANCH   6   7
ATOM      7  N   UNL     1       0.700  -5.190   6.061  0.00  0.00    -0.329 N 
ATOM      8  C   UNL     1      -0.044  -4.296   6.959  0.00  0.00    +0.105 C 
ATOM      9  C   UNL     1       0.992  -3.416   7.691  0.00  0.00    +0.020 C 
ATOM     10  C   UNL     1       2.223  -3.473   6.750  0.00  0.00    +0.020 C 
ATOM     11  C   UNL     1       2.142  -4.930   6.223  0.00  0.00    +0.105 C 
ENDBRANCH   6   7
BRANCH   1  13
ATOM     12  N   UNL     1      -0.281  -4.058   2.148  0.00  0.00    -0.313 N 
ATOM     13  C   UNL     1       0.043  -4.398   3.411  0.00  0.00    +0.246 C 
ATOM     14  O   UNL     1       0.535  -3.573   4.156  0.00  0.00    -0.270 OA
ATOM     15  H   UNL     1      -0.674  -4.717   1.554  0.00  0.00    +0.149 HD
BRANCH  12  16
ATOM     16  C   UNL     1      -0.041  -2.694   1.672  0.00  0.00    +0.086 C 
BRANCH  16  17
ATOM     17  C   UNL     1      -0.495  -2.574   0.216  0.00  0.00    -0.060 C 
BRANCH  17  18
ATOM     18  N   UNL     1      -0.254  -1.206  -0.261  0.00  0.00    +0.380 N 
ATOM     19  H   UNL     1      -0.707  -0.549   0.356  0.00  0.00    -0.082 HD
BRANCH  18  21
ATOM     20  C   UNL     1       1.437   0.519  -0.665  0.00  0.00    -0.017 C 
ATOM     21  C   UNL     1       1.191  -0.941  -0.281  0.00  0.00    -0.082 C 
ENDBRANCH  18  21
BRANCH  18  22
ATOM     22  C   UNL     1      -0.798  -1.057  -1.618  0.00  0.00    -0.082 C 
ATOM     23  C   UNL     1      -2.320  -1.207  -1.576  0.00  0.00    -0.017 C 
ENDBRANCH  18  22
ENDBRANCH  17  18
ENDBRANCH  16  17
ENDBRANCH  12  16
ENDBRANCH   1  13
BRANCH   3  24
ATOM     24  N   UNL     1      -1.544  -8.968   2.636  0.00  0.00    -0.281 N 
ATOM     25  C   UNL     1      -1.147 -10.254   2.709  0.00  0.00    +0.250 C 
ATOM     26  O   UNL     1      -0.362 -10.600   3.571  0.00  0.00    -0.270 OA
ATOM     27  H   UNL     1      -2.219  -8.705   1.990  0.00  0.00    +0.155 HD
BRANCH  25  28
ATOM     28  C   UNL     1      -1.665 -11.244   1.742  0.00  0.00    +0.055 A 
ATOM     29  C   UNL     1      -2.562 -10.849   0.747  0.00  0.00    +0.017 A 
ATOM     30  C   UNL     1      -3.041 -11.777  -0.153  0.00  0.00    +0.033 A 
ATOM     31  C   UNL     1      -2.636 -13.098  -0.072  0.00  0.00    +0.128 A 
ATOM     32  C   UNL     1      -1.748 -13.498   0.910  0.00  0.00    +0.053 A 
ATOM     33  C   UNL     1      -1.255 -12.577   1.814  0.00  0.00    +0.055 A 
ATOM     34 CL   UNL     1      -0.135 -13.078   3.043  0.00  0.00    -0.083 Cl
BRANCH  31  35
ATOM     35  N   UNL     1      -3.155 -14.089  -1.042  0.00  0.00    +0.056 N 
ATOM     36  O   UNL     1      -3.932 -13.743  -1.902  0.00  0.00    -0.126 OA
ATOM     37  O   UNL     1      -2.803 -15.243  -0.974  0.00  0.00    -0.126 OA
ENDBRANCH  31  35
ENDBRANCH  25  28
ENDBRANCH   3  24
TORSDOF 10
