REMARK  Name = ZINC06283194
REMARK  13 active torsions:
REMARK  status: ('A' for Active; 'I' for Inactive)
REMARK    1  A    between atoms: C_1  and  C_2
REMARK    2  A    between atoms: C_2  and  C_4
REMARK    3  A    between atoms: C_2  and  N_10
REMARK    4  A    between atoms: N_10  and  C_11
REMARK    5  A    between atoms: C_11  and  N_13
REMARK    6  A    between atoms: N_13  and  C_14
REMARK    7  A    between atoms: N_13  and  C_19
REMARK    8  A    between atoms: C_14  and  C_15
REMARK    9  A    between atoms: C_15  and  C_16
REMARK   10  A    between atoms: C_16  and  N_66
REMARK   11  A    between atoms: C_17  and  N_66
REMARK   12  A    between atoms: C_18  and  N_66
REMARK   13  A    between atoms: C_19  and  C_20
REMARK                            x       y       z     vdW  Elec       q    Type
REMARK                         _______ _______ _______ _____ _____    ______ ____
ROOT
ATOM      1  N   UNL     1       0.955  -2.111   0.617  0.00  0.00    -0.308 N 
ENDROOT
BRANCH   1   2
ATOM      2  C   UNL     1       0.839  -0.768   0.597  0.00  0.00    +0.134 C 
ATOM      3  S   UNL     1       1.966   0.201   1.446  0.00  0.00    -0.019 S 
BRANCH   2   4
ATOM      4  N   UNL     1      -0.164  -0.189  -0.092  0.00  0.00    -0.320 N 
ATOM      5  H   UNL     1      -0.802  -0.738  -0.573  0.00  0.00    +0.148 HD
BRANCH   4   7
ATOM      6  C   UNL     1      -1.066   1.734   1.121  0.00  0.00    +0.033 C 
ATOM      7  C   UNL     1      -0.290   1.271  -0.114  0.00  0.00    +0.099 C 
BRANCH   7   8
ATOM      8  C   UNL     1      -1.027   1.693  -1.359  0.00  0.00    -0.028 A 
ATOM      9  C   UNL     1      -2.105   0.953  -1.808  0.00  0.00    +0.005 A 
ATOM     10  C   UNL     1      -2.784   1.343  -2.947  0.00  0.00    +0.000 A 
ATOM     11  C   UNL     1      -2.379   2.467  -3.643  0.00  0.00    +0.000 A 
ATOM     12  C   UNL     1      -1.298   3.204  -3.196  0.00  0.00    +0.000 A 
ATOM     13  C   UNL     1      -0.622   2.817  -2.054  0.00  0.00    +0.005 A 
ENDBRANCH   7   8
ENDBRANCH   4   7
ENDBRANCH   2   4
ENDBRANCH   1   2
BRANCH   1  14
ATOM     14  C   UNL     1      -0.071  -2.944  -0.016  0.00  0.00    +0.105 C 
BRANCH  14  15
ATOM     15  C   UNL     1       0.303  -3.190  -1.479  0.00  0.00    +0.000 C 
BRANCH  15  16
ATOM     16  C   UNL     1      -0.768  -4.060  -2.139  0.00  0.00    -0.078 C 
BRANCH  16  19
ATOM     17  C   UNL     1      -1.281  -5.314  -4.146  0.00  0.00    -0.097 C 
ATOM     18  C   UNL     1      -0.451  -3.046  -4.315  0.00  0.00    -0.097 C 
ATOM     19  N   UNL     1      -0.383  -4.306  -3.545  0.00  0.00    +0.376 N 
ATOM     20  H   UNL     1       0.581  -4.660  -3.570  0.00  0.00    -0.083 HD
ENDBRANCH  16  19
ENDBRANCH  15  16
ENDBRANCH  14  15
ENDBRANCH   1  14
BRANCH   1  21
ATOM     21  C   UNL     1       2.107  -2.737   1.271  0.00  0.00    +0.147 C 
BRANCH  21  22
ATOM     22  C   UNL     1       1.740  -3.108   2.685  0.00  0.00    +0.035 A 
ATOM     23  C   UNL     1       2.022  -2.255   3.703  0.00  0.00    +0.020 A 
ATOM     24  C   UNL     1       1.649  -2.642   5.063  0.00  0.00    +0.003 A 
ATOM     25  C   UNL     1       1.912  -1.800   6.151  0.00  0.00    +0.059 A 
ATOM     26  C   UNL     1       1.553  -2.194   7.423  0.00  0.00    +0.163 A 
ATOM     27  C   UNL     1       0.929  -3.428   7.628  0.00  0.00    +0.164 A 
ATOM     28  C   UNL     1       0.667  -4.266   6.559  0.00  0.00    +0.075 A 
ATOM     29  C   UNL     1       1.023  -3.885   5.271  0.00  0.00    +0.053 A 
ATOM     30  N   UNL     1       0.769  -4.710   4.194  0.00  0.00    -0.322 N 
ATOM     31  H   UNL     1       0.338  -5.566   4.338  0.00  0.00    +0.169 HD
ATOM     32  C   UNL     1       1.111  -4.342   2.947  0.00  0.00    +0.254 A 
ATOM     33  O   UNL     1       0.872  -5.096   2.018  0.00  0.00    -0.268 OA
ATOM     34  O   UNL     1       0.569  -3.822   8.880  0.00  0.00    -0.485 OA
ATOM     35  C   UNL     1       1.179  -3.130   9.974  0.00  0.00    +0.270 C 
ATOM     36  C   UNL     1       1.111  -1.623   9.689  0.00  0.00    +0.270 C 
ATOM     37  O   UNL     1       1.817  -1.365   8.471  0.00  0.00    -0.485 OA
ENDBRANCH  21  22
ENDBRANCH   1  21
TORSDOF 10
