REMARK  Name = ZINC59369004
REMARK  7 active torsions:
REMARK  status: ('A' for Active; 'I' for Inactive)
REMARK    1  A    between atoms: C_1  and  C_2
REMARK    2  A    between atoms: N_7  and  C_9
REMARK    3  A    between atoms: C_9  and  C_10
REMARK    4  A    between atoms: C_16  and  C_18
REMARK    5  A    between atoms: C_18  and  C_20
REMARK    6  A    between atoms: C_18  and  N_21
REMARK    7  A    between atoms: C_22  and  C_24
REMARK                            x       y       z     vdW  Elec       q    Type
REMARK                         _______ _______ _______ _____ _____    ______ ____
ROOT
ATOM      1  C   UNL     1       1.666  -3.960   2.315  0.00  0.00    +0.034 A 
ATOM      2  C   UNL     1       2.756  -4.548   1.764  0.00  0.00    +0.070 A 
ATOM      3  S   UNL     1       2.341  -6.273   1.963  0.00  0.00    -0.060 S 
ATOM      4  C   UNL     1       0.849  -6.068   2.714  0.00  0.00    +0.165 A 
ATOM      5  N   UNL     1       0.728  -4.760   2.788  0.00  0.00    -0.231 NA
ATOM      6  N   UNL     1      -0.038  -7.043   3.155  0.00  0.00    -0.263 N 
ATOM      7  C   UNL     1       0.262  -8.348   2.997  0.00  0.00    +0.239 C 
ATOM      8  O   UNL     1       1.306  -8.670   2.470  0.00  0.00    -0.273 OA
ATOM      9  H   UNL     1      -0.873  -6.785   3.575  0.00  0.00    +0.157 HD
ENDROOT
BRANCH   7  10
ATOM     10  C   UNL     1      -0.700  -9.405   3.474  0.00  0.00    +0.156 C 
ATOM     11  C   UNL     1      -2.037  -9.243   2.748  0.00  0.00    +0.038 C 
BRANCH  10  12
ATOM     12  N   UNL     1      -0.147 -10.732   3.189  0.00  0.00    -0.300 N 
ATOM     13  C   UNL     1      -0.528 -11.793   3.927  0.00  0.00    +0.251 C 
ATOM     14  O   UNL     1      -1.332 -11.650   4.830  0.00  0.00    -0.270 OA
ATOM     15  H   UNL     1       0.493 -10.846   2.470  0.00  0.00    +0.150 HD
BRANCH  13  16
ATOM     16  C   UNL     1       0.024 -13.120   3.642  0.00  0.00    +0.075 A 
ATOM     17  C   UNL     1      -0.237 -14.329   4.270  0.00  0.00    +0.022 A 
ATOM     18  C   UNL     1       0.441 -15.417   3.776  0.00  0.00    +0.024 A 
ATOM     19  C   UNL     1       1.296 -15.244   2.737  0.00  0.00    +0.056 A 
ATOM     20  S   UNL     1       1.201 -13.602   2.393  0.00  0.00    -0.077 S 
ATOM     21 BR   UNL     1       2.348 -16.554   1.868  0.00  0.00    -0.043 Br
ENDBRANCH  13  16
ENDBRANCH  10  12
ENDBRANCH   7  10
BRANCH   1  22
ATOM     22  C   UNL     1       1.534  -2.461   2.390  0.00  0.00    -0.022 C 
BRANCH  22  28
ATOM     23  C   UNL     1      -0.019   1.526   0.010  0.00  0.00    +0.005 C 
ATOM     24  C   UNL     1       0.002  -0.004   0.002  0.00  0.00    -0.031 C 
ATOM     25  C   UNL     1      -1.434  -0.535   0.015  0.00  0.00    -0.001 C 
ATOM     26  C   UNL     1      -1.402  -2.064   0.086  0.00  0.00    -0.018 C 
ATOM     27  C   UNL     1      -0.613  -2.496   1.324  0.00  0.00    -0.078 C 
ATOM     28  N   UNL     1       0.758  -1.980   1.239  0.00  0.00    +0.384 N 
ATOM     29  C   UNL     1       0.740  -0.512   1.242  0.00  0.00    -0.075 C 
ATOM     30  H   UNL     1       1.188  -2.307   0.386  0.00  0.00    -0.081 HD
ENDBRANCH  22  28
ENDBRANCH   1  22
TORSDOF 5
