REMARK  Name = ZINC27984818
REMARK  8 active torsions:
REMARK  status: ('A' for Active; 'I' for Inactive)
REMARK    1  A    between atoms: C_3  and  O_9
REMARK    2  A    between atoms: O_9  and  C_10
REMARK    3  A    between atoms: C_10  and  C_11
REMARK    4  A    between atoms: C_14  and  C_16
REMARK    5  A    between atoms: N_18  and  C_19
REMARK    6  A    between atoms: C_19  and  C_20
REMARK    7  A    between atoms: C_23  and  S_26
REMARK    8  A    between atoms: S_26  and  N_29
REMARK                            x       y       z     vdW  Elec       q    Type
REMARK                         _______ _______ _______ _____ _____    ______ ____
ROOT
ATOM      1  C   UNL     1       1.141   5.397   1.647  0.00  0.00    +0.280 C 
ATOM      2  O   UNL     1       1.122   6.193   0.726  0.00  0.00    -0.267 OA
ATOM      3  N   UNL     1       1.157   4.074   1.394  0.00  0.00    -0.305 N 
ATOM      4  H   UNL     1       1.174   3.355   2.226  0.00  0.00    +0.149 HD
ENDROOT
BRANCH   1   8
ATOM      5  C   UNL     1       1.167   5.892   5.226  0.00  0.00    +0.143 A 
ATOM      6  C   UNL     1       1.146   7.184   4.830  0.00  0.00    +0.049 A 
ATOM      7  C   UNL     1       1.133   7.186   3.427  0.00  0.00    +0.055 A 
ATOM      8  C   UNL     1       1.147   5.879   3.032  0.00  0.00    +0.190 A 
ATOM      9  O   UNL     1       1.162   5.109   4.139  0.00  0.00    -0.452 OA
BRANCH   5  10
ATOM     10  C   UNL     1       1.187   5.411   6.654  0.00  0.00    +0.303 C 
BRANCH  10  11
ATOM     11  O   UNL     1      -0.154   5.241   7.118  0.00  0.00    -0.483 OA
BRANCH  11  14
ATOM     12  C   UNL     1       0.632   4.115  10.488  0.00  0.00    +0.005 A 
ATOM     13  C   UNL     1       0.796   4.554   9.188  0.00  0.00    +0.047 A 
ATOM     14  C   UNL     1      -0.314   4.809   8.397  0.00  0.00    +0.141 A 
ATOM     15  C   UNL     1      -1.589   4.628   8.915  0.00  0.00    +0.101 A 
ATOM     16  C   UNL     1      -1.749   4.183  10.215  0.00  0.00    +0.063 A 
ATOM     17  C   UNL     1      -0.638   3.930  11.001  0.00  0.00    +0.022 A 
ATOM     18 CL   UNL     1      -3.342   3.950  10.863  0.00  0.00    -0.082 Cl
ATOM     19 CL   UNL     1      -2.982   4.952   7.930  0.00  0.00    -0.078 Cl
ENDBRANCH  11  14
ENDBRANCH  10  11
ENDBRANCH   5  10
ENDBRANCH   1   8
BRANCH   3  20
ATOM     20  C   UNL     1       1.151   3.592   0.010  0.00  0.00    +0.140 C 
BRANCH  20  21
ATOM     21  C   UNL     1       1.171   2.086   0.002  0.00  0.00    -0.030 A 
ATOM     22  C   UNL     1      -0.017   1.378   0.010  0.00  0.00    +0.007 A 
ATOM     23  C   UNL     1       0.002  -0.004   0.002  0.00  0.00    +0.029 A 
ATOM     24  C   UNL     1       1.208  -0.679  -0.013  0.00  0.00    +0.105 A 
ATOM     25  C   UNL     1       2.396   0.029  -0.021  0.00  0.00    +0.029 A 
ATOM     26  C   UNL     1       2.377   1.411  -0.015  0.00  0.00    +0.007 A 
BRANCH  24  27
ATOM     27  S   UNL     1       1.232  -2.441  -0.022  0.00  0.00    +0.056 S 
ATOM     28  O   UNL     1       2.489  -2.832   0.515  0.00  0.00    -0.153 OA
ATOM     29  O   UNL     1      -0.002  -2.866   0.539  0.00  0.00    -0.153 OA
BRANCH  27  30
ATOM     30  N   UNL     1       1.223  -2.923  -1.606  0.00  0.00    -0.204 NA
ATOM     31  H   UNL     1       1.238  -4.022  -1.655  0.00  0.00    +0.144 HD
ATOM     32  H   UNL     1       2.111  -2.521  -2.116  0.00  0.00    +0.144 HD
ENDBRANCH  27  30
ENDBRANCH  24  27
ENDBRANCH  20  21
ENDBRANCH   3  20
TORSDOF 8
