REMARK  Name = ZINC40826881
REMARK  8 active torsions:
REMARK  status: ('A' for Active; 'I' for Inactive)
REMARK    1  A    between atoms: C_1  and  C_2
REMARK    2  A    between atoms: C_4  and  C_35
REMARK    3  A    between atoms: C_10  and  C_11
REMARK    4  A    between atoms: C_11  and  C_12
REMARK    5  A    between atoms: N_14  and  N_15
REMARK    6  A    between atoms: C_22  and  C_34
REMARK    7  A    between atoms: C_23  and  C_25
REMARK    8  A    between atoms: N_27  and  C_28
REMARK                            x       y       z     vdW  Elec       q    Type
REMARK                         _______ _______ _______ _____ _____    ______ ____
ROOT
ATOM      1  N   UNL     1       2.394  -6.490  -2.664  0.00  0.00    -0.184 NA
ATOM      2  C   UNL     1       2.783  -7.533  -3.331  0.00  0.00    +0.070 C 
ATOM      3  C   UNL     1       1.805  -8.552  -3.897  0.00  0.00    +0.058 C 
ATOM      4  C   UNL     1       2.373  -9.953  -3.646  0.00  0.00    +0.014 C 
ATOM      5  C   UNL     1       3.678 -10.154  -4.420  0.00  0.00    +0.075 C 
ATOM      6  C   UNL     1       4.628  -9.027  -4.101  0.00  0.00    +0.115 A 
ATOM      7  C   UNL     1       4.211  -7.814  -3.602  0.00  0.00    +0.042 A 
ATOM      8  C   UNL     1       5.348  -7.015  -3.430  0.00  0.00    +0.009 A 
ATOM      9  C   UNL     1       6.411  -7.770  -3.841  0.00  0.00    +0.193 A 
ATOM     10  O   UNL     1       5.951  -8.983  -4.234  0.00  0.00    -0.454 OA
ATOM     11  C   UNL     1       5.390  -5.604  -2.901  0.00  0.00    +0.048 C 
ENDROOT
BRANCH   1  14
ATOM     12  C   UNL     1       0.624  -5.191  -1.745  0.00  0.00    +0.237 C 
ATOM     13  O   UNL     1       1.442  -4.403  -1.317  0.00  0.00    -0.274 OA
ATOM     14  N   UNL     1       1.028  -6.273  -2.438  0.00  0.00    -0.206 N 
ATOM     15  H   UNL     1       0.374  -6.903  -2.779  0.00  0.00    +0.177 HD
BRANCH  12  16
ATOM     16  C   UNL     1      -0.845  -4.957  -1.501  0.00  0.00    +0.136 C 
BRANCH  16  26
ATOM     17  C   UNL     1      -0.830  -2.081   4.759  0.00  0.00    +0.044 C 
ATOM     18  C   UNL     1      -0.863  -2.587   3.340  0.00  0.00    -0.047 A 
ATOM     19  C   UNL     1      -0.615  -3.928   3.083  0.00  0.00    +0.007 A 
ATOM     20  C   UNL     1      -0.641  -4.403   1.801  0.00  0.00    -0.039 A 
ATOM     21  C   UNL     1      -0.919  -3.534   0.747  0.00  0.00    +0.027 A 
ATOM     22  C   UNL     1      -1.171  -2.176   1.000  0.00  0.00    +0.136 A 
ATOM     23  C   UNL     1      -1.145  -1.714   2.311  0.00  0.00    +0.050 A 
ATOM     24  O   UNL     1      -1.405  -1.583  -0.188  0.00  0.00    -0.463 OA
ATOM     25  C   UNL     1      -1.321  -2.473  -1.192  0.00  0.00    +0.200 A 
ATOM     26  C   UNL     1      -1.027  -3.688  -0.709  0.00  0.00    +0.007 A 
ATOM     27  C   UNL     1      -0.371  -5.861   1.529  0.00  0.00    +0.044 C 
ENDBRANCH  16  26
ENDBRANCH  12  16
ENDBRANCH   1  14
BRANCH   9  28
ATOM     28  C   UNL     1       7.814  -7.344  -3.842  0.00  0.00    +0.284 C 
ATOM     29  O   UNL     1       8.112  -6.230  -3.453  0.00  0.00    -0.266 OA
ATOM     30  N   UNL     1       8.774  -8.186  -4.273  0.00  0.00    -0.279 N 
ATOM     31  H   UNL     1       8.531  -9.050  -4.642  0.00  0.00    +0.155 HD
BRANCH  30  32
ATOM     32  C   UNL     1      10.116  -7.816  -4.189  0.00  0.00    +0.037 A 
ATOM     33  C   UNL     1      10.573  -7.017  -3.142  0.00  0.00    +0.043 A 
ATOM     34  C   UNL     1      11.908  -6.673  -3.095  0.00  0.00    +0.112 A 
ATOM     35  N   UNL     1      12.747  -7.090  -4.024  0.00  0.00    -0.263 NA
ATOM     36  C   UNL     1      12.354  -7.848  -5.030  0.00  0.00    +0.112 A 
ATOM     37  C   UNL     1      11.036  -8.241  -5.146  0.00  0.00    +0.043 A 
ENDBRANCH  30  32
ENDBRANCH   9  28
TORSDOF 5
