REMARK  Name = ZINC23038208
REMARK  11 active torsions:
REMARK  status: ('A' for Active; 'I' for Inactive)
REMARK    1  A    between atoms: C_1  and  C_2
REMARK    2  A    between atoms: C_2  and  C_26
REMARK    3  A    between atoms: N_5  and  N_9
REMARK    4  A    between atoms: C_10  and  C_12
REMARK    5  A    between atoms: C_12  and  N_13
REMARK    6  A    between atoms: N_13  and  C_14
REMARK    7  A    between atoms: N_13  and  C_15
REMARK    8  A    between atoms: C_15  and  C_16
REMARK    9  A    between atoms: N_18  and  C_19
REMARK   10  A    between atoms: C_26  and  C_27
REMARK   11  A    between atoms: C_27  and  C_28
REMARK                            x       y       z     vdW  Elec       q    Type
REMARK                         _______ _______ _______ _____ _____    ______ ____
ROOT
ATOM      1  N   UNL     1      -1.196   1.862  -0.032  0.00  0.00    -0.225 N 
ATOM      2  C   UNL     1      -0.019   1.205  -0.031  0.00  0.00    +0.213 C 
ATOM      3  O   UNL     1      -0.002  -0.008  -0.032  0.00  0.00    -0.276 OA
ATOM      4  H   UNL     1      -1.212   2.962  -0.031  0.00  0.00    +0.173 HD
ENDROOT
BRANCH   1   9
ATOM      5  C   UNL     1      -4.436  -1.152   1.358  0.00  0.00    +0.041 C 
ATOM      6  C   UNL     1      -4.369   0.159   0.573  0.00  0.00    +0.112 C 
ATOM      7  C   UNL     1      -3.199   1.002   1.040  0.00  0.00    +0.263 C 
ATOM      8  O   UNL     1      -3.020   1.454   2.151  0.00  0.00    -0.271 OA
ATOM      9  N   UNL     1      -2.399   1.143  -0.035  0.00  0.00    -0.137 N 
ATOM     10  C   UNL     1      -2.899   0.518  -1.107  0.00  0.00    +0.326 C 
ATOM     11  O   UNL     1      -2.358   0.507  -2.196  0.00  0.00    -0.251 OA
ATOM     12  N   UNL     1      -4.064  -0.101  -0.845  0.00  0.00    -0.284 N 
ATOM     13  H   UNL     1      -4.753  -0.705  -1.454  0.00  0.00    +0.151 HD
BRANCH   6  14
ATOM     14  C   UNL     1      -5.681   0.935   0.711  0.00  0.00    +0.040 C 
BRANCH  14  15
ATOM     15  C   UNL     1      -6.843   0.062   0.233  0.00  0.00    +0.038 C 
BRANCH  15  16
ATOM     16  C   UNL     1      -8.134   0.826   0.369  0.00  0.00    -0.047 A 
ATOM     17  C   UNL     1      -8.865   0.745   1.540  0.00  0.00    +0.003 A 
ATOM     18  C   UNL     1     -10.047   1.450   1.667  0.00  0.00    +0.000 A 
ATOM     19  C   UNL     1     -10.504   2.228   0.619  0.00  0.00    +0.000 A 
ATOM     20  C   UNL     1      -9.776   2.305  -0.553  0.00  0.00    +0.000 A 
ATOM     21  C   UNL     1      -8.591   1.604  -0.678  0.00  0.00    +0.003 A 
ENDBRANCH  15  16
ENDBRANCH  14  15
ENDBRANCH   6  14
ENDBRANCH   1   9
BRANCH   2  22
ATOM     22  C   UNL     1       1.274   1.978  -0.034  0.00  0.00    +0.020 C 
BRANCH  22  23
ATOM     23  N   UNL     1       2.405   1.040  -0.038  0.00  0.00    +0.389 N 
ATOM     24  C   UNL     1       2.458   0.274   1.214  0.00  0.00    -0.095 C 
ATOM     25  H   UNL     1       2.251   0.328  -0.863  0.00  0.00    -0.081 HD
BRANCH  23  26
ATOM     26  C   UNL     1       3.672   1.743  -0.280  0.00  0.00    +0.019 C 
BRANCH  26  27
ATOM     27  C   UNL     1       4.767   0.737  -0.521  0.00  0.00    +0.201 C 
ATOM     28  O   UNL     1       4.517  -0.450  -0.495  0.00  0.00    -0.278 OA
ATOM     29  N   UNL     1       6.025   1.155  -0.767  0.00  0.00    -0.286 N 
ATOM     30  H   UNL     1       6.237   2.230  -0.864  0.00  0.00    +0.155 HD
BRANCH  29  31
ATOM     31  C   UNL     1       7.060   0.222  -0.898  0.00  0.00    +0.052 A 
ATOM     32  C   UNL     1       6.813  -1.014  -1.482  0.00  0.00    +0.025 A 
ATOM     33  C   UNL     1       7.837  -1.930  -1.615  0.00  0.00    +0.002 A 
ATOM     34  C   UNL     1       9.106  -1.623  -1.158  0.00  0.00    +0.002 A 
ATOM     35  C   UNL     1       9.355  -0.397  -0.571  0.00  0.00    +0.022 A 
ATOM     36  C   UNL     1       8.335   0.527  -0.440  0.00  0.00    +0.062 A 
ATOM     37 CL   UNL     1       8.648   2.068   0.298  0.00  0.00    -0.082 Cl
ENDBRANCH  29  31
ENDBRANCH  26  27
ENDBRANCH  23  26
ENDBRANCH  22  23
ENDBRANCH   2  22
TORSDOF 9
