REMARK  Name = ZINC36005247
REMARK  13 active torsions:
REMARK  status: ('A' for Active; 'I' for Inactive)
REMARK    1  A    between atoms: C_1  and  C_2
REMARK    2  A    between atoms: C_2  and  O_3
REMARK    3  A    between atoms: O_3  and  C_4
REMARK    4  A    between atoms: C_4  and  C_6
REMARK    5  A    between atoms: C_7  and  C_24
REMARK    6  A    between atoms: N_8  and  C_23
REMARK    7  A    between atoms: C_12  and  C_14
REMARK    8  A    between atoms: C_17  and  C_20
REMARK    9  A    between atoms: C_20  and  C_21
REMARK   10  A    between atoms: C_20  and  C_22
REMARK   11  A    between atoms: C_24  and  N_25
REMARK   12  A    between atoms: C_29  and  C_32
REMARK   13  A    between atoms: C_33  and  C_35
REMARK                            x       y       z     vdW  Elec       q    Type
REMARK                         _______ _______ _______ _____ _____    ______ ____
ROOT
ATOM      1  C   UNL     1      -0.489  -2.136  -0.852  0.00  0.00    +0.080 C 
ATOM      2  C   UNL     1      -1.122  -3.328  -0.891  0.00  0.00    +0.041 C 
ATOM      3  N   UNL     1      -2.481  -3.400  -1.008  0.00  0.00    -0.260 N 
ATOM      4  C   UNL     1      -3.277  -2.327  -1.091  0.00  0.00    +0.307 C 
ATOM      5  O   UNL     1      -4.478  -2.492  -1.192  0.00  0.00    -0.252 OA
ATOM      6  N   UNL     1      -2.792  -1.070  -1.064  0.00  0.00    -0.288 N 
ATOM      7  C   UNL     1      -1.337  -0.883  -0.934  0.00  0.00    +0.144 C 
ATOM      8  C   UNL     1      -3.102  -4.726  -1.045  0.00  0.00    +0.139 C 
ATOM      9  H   UNL     1      -3.387  -0.306  -1.126  0.00  0.00    +0.151 HD
ENDROOT
BRANCH   7  10
ATOM     10  C   UNL     1      -0.869  -0.083  -2.122  0.00  0.00    -0.022 A 
ATOM     11  C   UNL     1      -1.286  -0.425  -3.395  0.00  0.00    +0.006 A 
ATOM     12  C   UNL     1      -0.857   0.309  -4.484  0.00  0.00    +0.004 A 
ATOM     13  C   UNL     1      -0.009   1.386  -4.301  0.00  0.00    -0.045 A 
ATOM     14  C   UNL     1       0.408   1.729  -3.029  0.00  0.00    +0.004 A 
ATOM     15  C   UNL     1      -0.025   0.997  -1.939  0.00  0.00    +0.006 A 
BRANCH  13  16
ATOM     16  C   UNL     1       0.460   2.186  -5.489  0.00  0.00    +0.013 C 
ATOM     17  C   UNL     1       0.013   3.640  -5.334  0.00  0.00    +0.012 C 
ATOM     18  C   UNL     1       1.987   2.128  -5.572  0.00  0.00    +0.012 C 
ENDBRANCH  13  16
ENDBRANCH   7  10
BRANCH   1  19
ATOM     19  C   UNL     1       0.919  -2.059  -0.730  0.00  0.00    +0.339 C 
ATOM     20  O   UNL     1       1.423  -1.800   0.346  0.00  0.00    -0.245 OA
BRANCH  19  21
ATOM     21  O   UNL     1       1.701  -2.274  -1.808  0.00  0.00    -0.462 OA
BRANCH  21  23
ATOM     22  C   UNL     1       3.830  -2.453  -2.938  0.00  0.00    +0.048 C 
ATOM     23  C   UNL     1       3.114  -2.181  -1.613  0.00  0.00    +0.229 C 
ENDBRANCH  21  23
ENDBRANCH  19  21
ENDBRANCH   1  19
BRANCH   2  24
ATOM     24  C   UNL     1      -0.317  -4.599  -0.806  0.00  0.00    +0.136 C 
BRANCH  24  25
ATOM     25  N   UNL     1      -0.642  -5.302   0.442  0.00  0.00    -0.294 NA
ATOM     26  C   UNL     1      -0.209  -4.527   1.611  0.00  0.00    +0.104 C 
ATOM     27  C   UNL     1      -0.725  -5.202   2.887  0.00  0.00    +0.124 C 
ATOM     28  N   UNL     1      -0.293  -6.608   2.878  0.00  0.00    -0.292 N 
ATOM     29  C   UNL     1      -0.571  -7.413   1.680  0.00  0.00    +0.087 C 
ATOM     30  C   UNL     1      -0.062  -6.651   0.452  0.00  0.00    +0.107 C 
ATOM     31  C   UNL     1       0.147  -8.760   1.788  0.00  0.00    +0.029 C 
ATOM     32  C   UNL     1       0.339  -7.143   3.941  0.00  0.00    +0.247 C 
ATOM     33  O   UNL     1       0.785  -8.273   3.877  0.00  0.00    -0.270 OA
BRANCH  32  34
ATOM     34  C   UNL     1       0.492  -6.358   5.183  0.00  0.00    +0.037 A 
ATOM     35  C   UNL     1      -0.441  -5.370   5.507  0.00  0.00    +0.016 A 
ATOM     36  C   UNL     1      -0.294  -4.641   6.667  0.00  0.00    +0.039 A 
ATOM     37  C   UNL     1       0.778  -4.886   7.511  0.00  0.00    +0.123 A 
ATOM     38  C   UNL     1       1.707  -5.865   7.195  0.00  0.00    +0.039 A 
ATOM     39  C   UNL     1       1.566  -6.605   6.040  0.00  0.00    +0.016 A 
ATOM     40  F   UNL     1       0.918  -4.167   8.647  0.00  0.00    -0.205 F 
ENDBRANCH  32  34
ENDBRANCH  24  25
ENDBRANCH   2  24
TORSDOF 8
