REMARK  Name = ZINC09151121
REMARK  11 active torsions:
REMARK  status: ('A' for Active; 'I' for Inactive)
REMARK    1  A    between atoms: C_1  and  C_2
REMARK    2  A    between atoms: C_2  and  N_63
REMARK    3  A    between atoms: C_8  and  N_27
REMARK    4  A    between atoms: C_9  and  C_10
REMARK    5  A    between atoms: C_10  and  N_11
REMARK    6  A    between atoms: N_14  and  C_15
REMARK    7  A    between atoms: C_18  and  C_21
REMARK    8  A    between atoms: C_21  and  C_22
REMARK    9  A    between atoms: C_22  and  O_24
REMARK   10  A    between atoms: O_24  and  C_25
REMARK   11  A    between atoms: C_25  and  C_26
REMARK                            x       y       z     vdW  Elec       q    Type
REMARK                         _______ _______ _______ _____ _____    ______ ____
ROOT
ATOM      1  C   UNL     1      -7.932  -3.439  -2.729  0.00  0.00    +0.144 C 
ENDROOT
BRANCH   1   8
ATOM      2  C   UNL     1     -12.218  -2.219  -2.647  0.00  0.00    -0.074 C 
ATOM      3  C   UNL     1     -10.701  -2.317  -2.464  0.00  0.00    +0.018 C 
ATOM      4  C   UNL     1     -10.352  -3.767  -2.138  0.00  0.00    -0.034 A 
ATOM      5  C   UNL     1     -11.331  -4.608  -1.704  0.00  0.00    -0.021 A 
ATOM      6  S   UNL     1     -10.490  -6.148  -1.461  0.00  0.00    -0.077 S 
ATOM      7  C   UNL     1      -8.858  -5.611  -1.952  0.00  0.00    +0.089 A 
ATOM      8  C   UNL     1      -9.073  -4.303  -2.257  0.00  0.00    +0.004 A 
ATOM      9  C   UNL     1     -12.771  -4.274  -1.492  0.00  0.00    -0.035 C 
ATOM     10  N   UNL     1     -12.895  -2.796  -1.469  0.00  0.00    +0.383 N 
ATOM     11  H   UNL     1     -12.448  -2.436  -0.617  0.00  0.00    -0.081 HD
BRANCH   7  12
ATOM     12  N   UNL     1      -7.668  -6.345  -2.007  0.00  0.00    -0.317 N 
ATOM     13  C   UNL     1      -7.518  -7.578  -2.574  0.00  0.00    +0.092 A 
ATOM     14  C   UNL     1      -6.230  -7.954  -2.432  0.00  0.00    +0.019 A 
ATOM     15  C   UNL     1      -5.562  -6.921  -1.744  0.00  0.00    +0.019 A 
ATOM     16  C   UNL     1      -6.464  -5.950  -1.497  0.00  0.00    +0.092 A 
ENDBRANCH   7  12
BRANCH  10  18
ATOM     17  C   UNL     1     -14.944  -2.822  -0.129  0.00  0.00    -0.017 C 
ATOM     18  C   UNL     1     -14.322  -2.408  -1.464  0.00  0.00    -0.082 C 
ENDBRANCH  10  18
ENDBRANCH   1   8
BRANCH   1  19
ATOM     19  N   UNL     1      -7.337  -2.748  -1.583  0.00  0.00    -0.295 N 
ATOM     20  C   UNL     1      -6.293  -1.915  -1.766  0.00  0.00    +0.304 C 
ATOM     21  O   UNL     1      -5.846  -1.738  -2.882  0.00  0.00    -0.252 OA
ATOM     22  N   UNL     1      -5.746  -1.278  -0.711  0.00  0.00    -0.269 N 
ATOM     23  H   UNL     1      -7.694  -2.889  -0.692  0.00  0.00    +0.151 HD
ATOM     24  H   UNL     1      -6.053  -1.476   0.188  0.00  0.00    +0.156 HD
BRANCH  22  25
ATOM     25  C   UNL     1      -4.735  -0.332  -0.912  0.00  0.00    +0.035 A 
ATOM     26  C   UNL     1      -4.724   0.440  -2.066  0.00  0.00    +0.023 A 
ATOM     27  C   UNL     1      -3.725   1.373  -2.262  0.00  0.00    +0.006 A 
ATOM     28  C   UNL     1      -2.736   1.539  -1.310  0.00  0.00    -0.037 A 
ATOM     29  C   UNL     1      -2.740   0.767  -0.163  0.00  0.00    +0.006 A 
ATOM     30  C   UNL     1      -3.740  -0.164   0.041  0.00  0.00    +0.023 A 
BRANCH  28  31
ATOM     31  C   UNL     1      -1.647   2.558  -1.527  0.00  0.00    +0.155 C 
BRANCH  31  32
ATOM     32  C   UNL     1      -2.075   3.881  -0.948  0.00  0.00    +0.311 C 
ATOM     33  O   UNL     1      -3.154   3.986  -0.414  0.00  0.00    -0.250 OA
BRANCH  32  34
ATOM     34  O   UNL     1      -1.256   4.942  -1.020  0.00  0.00    -0.465 OA
BRANCH  34  35
ATOM     35  C   UNL     1      -1.732   6.184  -0.436  0.00  0.00    +0.229 C 
ATOM     36  C   UNL     1      -0.670   7.271  -0.614  0.00  0.00    +0.048 C 
ENDBRANCH  34  35
ENDBRANCH  32  34
ENDBRANCH  31  32
ENDBRANCH  28  31
ENDBRANCH  22  25
ENDBRANCH   1  19
TORSDOF 9
