REMARK  Name = ZINC38547888
REMARK  10 active torsions:
REMARK  status: ('A' for Active; 'I' for Inactive)
REMARK    1  A    between atoms: C_1  and  C_2
REMARK    2  A    between atoms: C_2  and  C_3
REMARK    3  A    between atoms: C_5  and  C_16
REMARK    4  A    between atoms: C_6  and  N_8
REMARK    5  A    between atoms: C_9  and  C_11
REMARK    6  A    between atoms: C_16  and  C_18
REMARK    7  A    between atoms: C_16  and  N_27
REMARK    8  A    between atoms: C_21  and  C_24
REMARK    9  A    between atoms: C_24  and  C_25
REMARK   10  A    between atoms: C_24  and  C_26
REMARK                            x       y       z     vdW  Elec       q    Type
REMARK                         _______ _______ _______ _____ _____    ______ ____
ROOT
ATOM      1  C   UNL     1      -4.309  -1.601  -2.046  0.00  0.00    +0.135 C 
ENDROOT
BRANCH   1   2
ATOM      2  N   UNL     1      -3.723  -2.062  -3.308  0.00  0.00    -0.320 N 
ATOM      3  C   UNL     1      -3.408  -3.406  -3.477  0.00  0.00    +0.097 A 
ATOM      4  C   UNL     1      -3.584  -4.294  -2.421  0.00  0.00    +0.041 A 
ATOM      5  C   UNL     1      -3.267  -5.628  -2.604  0.00  0.00    +0.005 A 
ATOM      6  C   UNL     1      -2.782  -6.030  -3.842  0.00  0.00    +0.018 A 
ATOM      7  C   UNL     1      -2.632  -5.095  -4.846  0.00  0.00    +0.084 A 
ATOM      8  N   UNL     1      -2.948  -3.829  -4.644  0.00  0.00    -0.350 N 
ATOM      9  H   UNL     1      -3.555  -1.431  -4.024  0.00  0.00    +0.148 HD
ATOM     10  H   UNL     1      -2.837  -3.193  -5.368  0.00  0.00    +0.166 HD
ENDBRANCH   1   2
BRANCH   1  11
ATOM     11  C   UNL     1      -5.114  -0.352  -2.294  0.00  0.00    -0.023 A 
ATOM     12  C   UNL     1      -4.593   0.663  -3.076  0.00  0.00    +0.006 A 
ATOM     13  C   UNL     1      -5.332   1.809  -3.303  0.00  0.00    +0.004 A 
ATOM     14  C   UNL     1      -6.591   1.941  -2.748  0.00  0.00    -0.045 A 
ATOM     15  C   UNL     1      -7.112   0.926  -1.967  0.00  0.00    +0.004 A 
ATOM     16  C   UNL     1      -6.375  -0.222  -1.744  0.00  0.00    +0.006 A 
BRANCH  14  17
ATOM     17  C   UNL     1      -7.396   3.191  -2.995  0.00  0.00    +0.013 C 
ATOM     18  C   UNL     1      -8.707   2.823  -3.693  0.00  0.00    +0.012 C 
ATOM     19  C   UNL     1      -7.703   3.872  -1.660  0.00  0.00    +0.012 C 
ENDBRANCH  14  17
ENDBRANCH   1  11
BRANCH   1  22
ATOM     20  C   UNL     1      -0.978  -0.692  -0.589  0.00  0.00    -0.008 A 
ATOM     21  C   UNL     1      -1.944  -0.955  -1.501  0.00  0.00    +0.019 A 
ATOM     22  C   UNL     1      -3.208  -1.303  -1.061  0.00  0.00    +0.006 A 
ATOM     23  C   UNL     1      -3.440  -1.370   0.280  0.00  0.00    +0.078 A 
ATOM     24  S   UNL     1      -1.843  -0.942   0.953  0.00  0.00    -0.078 S 
BRANCH  23  25
ATOM     25  N   UNL     1      -4.620  -1.696   0.953  0.00  0.00    -0.273 N 
ATOM     26  C   UNL     1      -4.646  -1.706   2.300  0.00  0.00    +0.284 C 
ATOM     27  O   UNL     1      -3.641  -1.433   2.931  0.00  0.00    -0.266 OA
ATOM     28  H   UNL     1      -5.420  -1.914   0.451  0.00  0.00    +0.156 HD
BRANCH  26  29
ATOM     29  C   UNL     1      -5.884  -2.048   3.007  0.00  0.00    +0.189 A 
ATOM     30  C   UNL     1      -6.049  -2.091   4.362  0.00  0.00    +0.054 A 
ATOM     31  C   UNL     1      -7.383  -2.460   4.595  0.00  0.00    +0.042 A 
ATOM     32  C   UNL     1      -7.967  -2.623   3.387  0.00  0.00    +0.196 A 
ATOM     33  O   UNL     1      -7.062  -2.369   2.433  0.00  0.00    -0.458 OA
ENDBRANCH  26  29
ENDBRANCH  23  25
BRANCH  20  35
ATOM     34  C   UNL     1       0.564   1.227  -0.882  0.00  0.00    +0.009 C 
ATOM     35  C   UNL     1       0.459  -0.298  -0.816  0.00  0.00    +0.039 C 
ENDBRANCH  20  35
ENDBRANCH   1  22
TORSDOF 7
