REMARK  Name = ZINC09015476
REMARK  10 active torsions:
REMARK  status: ('A' for Active; 'I' for Inactive)
REMARK    1  A    between atoms: C_1  and  C_2
REMARK    2  A    between atoms: C_2  and  O_3
REMARK    3  A    between atoms: O_3  and  C_4
REMARK    4  A    between atoms: C_9  and  C_10
REMARK    5  A    between atoms: C_12  and  C_33
REMARK    6  A    between atoms: C_17  and  S_21
REMARK    7  A    between atoms: C_18  and  C_19
REMARK    8  A    between atoms: S_21  and  C_22
REMARK    9  A    between atoms: C_22  and  C_23
REMARK   10  A    between atoms: N_25  and  C_26
REMARK                            x       y       z     vdW  Elec       q    Type
REMARK                         _______ _______ _______ _____ _____    ______ ____
ROOT
ATOM      1  C   UNL     1      -2.488   0.005   0.019  0.00  0.00    +0.091 C 
ATOM      2  C   UNL     1      -3.265  -0.388   1.277  0.00  0.00    +0.190 C 
ATOM      3  C   UNL     1      -3.787  -1.794   1.126  0.00  0.00    +0.235 C 
ATOM      4  O   UNL     1      -3.820  -2.531   2.088  0.00  0.00    -0.274 OA
ATOM      5  N   UNL     1      -4.218  -2.235  -0.069  0.00  0.00    -0.278 N 
ATOM      6  C   UNL     1      -4.092  -1.456  -1.198  0.00  0.00    +0.082 C 
ATOM      7  C   UNL     1      -3.290  -0.358  -1.204  0.00  0.00    +0.066 C 
ATOM      8  H   UNL     1      -4.678  -3.230  -0.154  0.00  0.00    +0.155 HD
ENDROOT
BRANCH   1  14
ATOM      9  C   UNL     1       0.019  -0.017  -0.019  0.00  0.00    +0.124 A 
ATOM     10  C   UNL     1       1.229  -0.695  -0.051  0.00  0.00    +0.046 A 
ATOM     11  C   UNL     1       1.246  -2.076  -0.058  0.00  0.00    +0.004 A 
ATOM     12  C   UNL     1       0.057  -2.783  -0.047  0.00  0.00    +0.001 A 
ATOM     13  C   UNL     1      -1.150  -2.110  -0.022  0.00  0.00    +0.008 A 
ATOM     14  C   UNL     1      -1.172  -0.728  -0.008  0.00  0.00    +0.004 A 
BRANCH   9  15
ATOM     15  O   UNL     1       0.001   1.342  -0.006  0.00  0.00    -0.492 OA
BRANCH  15  17
ATOM     16  C   UNL     1       1.044   3.522  -0.000  0.00  0.00    +0.048 C 
ATOM     17  C   UNL     1       1.265   2.008  -0.019  0.00  0.00    +0.225 C 
ENDBRANCH  15  17
ENDBRANCH   9  15
ENDBRANCH   1  14
BRANCH   7  18
ATOM     18  C   UNL     1      -3.208   0.458  -2.378  0.00  0.00    +0.098 C 
ATOM     19  N   UNL     1      -3.142   1.105  -3.309  0.00  0.00    -0.191 NA
ENDBRANCH   7  18
BRANCH   2  20
ATOM     20  C   UNL     1      -4.394   0.537   1.465  0.00  0.00    +0.076 C 
ATOM     21  N   UNL     1      -5.266   1.251   1.611  0.00  0.00    -0.196 NA
ENDBRANCH   2  20
BRANCH   6  22
ATOM     22  S   UNL     1      -4.983  -1.888  -2.656  0.00  0.00    -0.100 S 
BRANCH  22  23
ATOM     23  C   UNL     1      -5.840  -3.372  -2.072  0.00  0.00    +0.171 C 
BRANCH  23  24
ATOM     24  C   UNL     1      -6.688  -3.932  -3.184  0.00  0.00    +0.227 C 
ATOM     25  O   UNL     1      -6.711  -3.383  -4.265  0.00  0.00    -0.275 OA
ATOM     26  N   UNL     1      -7.421  -5.044  -2.978  0.00  0.00    -0.285 N 
ATOM     27  H   UNL     1      -7.342  -5.586  -2.023  0.00  0.00    +0.155 HD
BRANCH  26  28
ATOM     28  C   UNL     1      -8.283  -5.510  -3.977  0.00  0.00    +0.033 A 
ATOM     29  C   UNL     1      -9.488  -6.109  -3.633  0.00  0.00    +0.024 A 
ATOM     30  C   UNL     1     -10.339  -6.562  -4.622  0.00  0.00    +0.017 A 
ATOM     31  C   UNL     1      -9.987  -6.430  -5.954  0.00  0.00    +0.018 A 
ATOM     32  C   UNL     1      -8.785  -5.839  -6.299  0.00  0.00    +0.017 A 
ATOM     33  C   UNL     1      -7.933  -5.379  -5.314  0.00  0.00    +0.024 A 
ATOM     34 BR   UNL     1     -11.152  -7.058  -7.304  0.00  0.00    -0.050 Br
ENDBRANCH  26  28
ENDBRANCH  23  24
ENDBRANCH  22  23
ENDBRANCH   6  22
TORSDOF 9
