REMARK  Name = ZINC15865027
REMARK  13 active torsions:
REMARK  status: ('A' for Active; 'I' for Inactive)
REMARK    1  A    between atoms: C_1  and  C_2
REMARK    2  A    between atoms: C_2  and  N_77
REMARK    3  A    between atoms: C_6  and  C_8
REMARK    4  A    between atoms: C_8  and  N_9
REMARK    5  A    between atoms: C_10  and  C_12
REMARK    6  A    between atoms: N_15  and  S_18
REMARK    7  A    between atoms: S_18  and  C_21
REMARK    8  A    between atoms: C_22  and  C_37
REMARK    9  A    between atoms: C_25  and  C_26
REMARK   10  A    between atoms: C_27  and  C_28
REMARK   11  A    between atoms: C_29  and  C_36
REMARK   12  A    between atoms: C_31  and  C_35
REMARK   13  A    between atoms: C_33  and  C_34
REMARK                            x       y       z     vdW  Elec       q    Type
REMARK                         _______ _______ _______ _____ _____    ______ ____
ROOT
ATOM      1  S   UNL     1      -4.232   1.038  -0.240  0.00  0.00    +0.066 S 
ATOM      2  O   UNL     1      -4.453   1.567   1.060  0.00  0.00    -0.153 OA
ATOM      3  O   UNL     1      -4.412   1.811  -1.419  0.00  0.00    -0.153 OA
ENDROOT
BRANCH   1   7
ATOM      4  C   UNL     1       0.155   0.630  -0.207  0.00  0.00    +0.077 C 
ATOM      5  C   UNL     1      -0.662   0.888   1.061  0.00  0.00    +0.030 C 
ATOM      6  C   UNL     1      -1.984   0.119   0.978  0.00  0.00    +0.110 C 
ATOM      7  N   UNL     1      -2.669   0.490  -0.268  0.00  0.00    -0.176 NA
ATOM      8  C   UNL     1      -1.942   0.366  -1.538  0.00  0.00    +0.110 C 
ATOM      9  C   UNL     1      -0.620   1.133  -1.427  0.00  0.00    +0.030 C 
BRANCH   4  11
ATOM     10  N   UNL     1       2.327   1.078   0.889  0.00  0.00    -0.317 N 
ATOM     11  C   UNL     1       1.471   1.358  -0.113  0.00  0.00    +0.216 C 
ATOM     12  O   UNL     1       1.760   2.197  -0.940  0.00  0.00    -0.276 OA
ATOM     13  H   UNL     1       2.096   0.407   1.551  0.00  0.00    +0.149 HD
BRANCH  10  14
ATOM     14  C   UNL     1       3.606   1.786   0.980  0.00  0.00    +0.089 C 
BRANCH  14  18
ATOM     15  C   UNL     1       4.393   2.248   4.520  0.00  0.00    -0.078 C 
ATOM     16  C   UNL     1       5.835   2.163   3.976  0.00  0.00    -0.020 C 
ATOM     17  C   UNL     1       5.632   2.194   2.437  0.00  0.00    -0.016 C 
ATOM     18  C   UNL     1       4.313   1.397   2.280  0.00  0.00    -0.051 C 
ATOM     19  N   UNL     1       3.496   1.803   3.442  0.00  0.00    +0.382 N 
ATOM     20  H   UNL     1       2.881   2.578   3.170  0.00  0.00    -0.081 HD
BRANCH  19  22
ATOM     21  C   UNL     1       1.928   1.061   5.187  0.00  0.00    -0.017 C 
ATOM     22  C   UNL     1       2.664   0.662   3.906  0.00  0.00    -0.082 C 
ENDBRANCH  19  22
ENDBRANCH  14  18
ENDBRANCH  10  14
ENDBRANCH   4  11
ENDBRANCH   1   7
BRANCH   1  23
ATOM     23  C   UNL     1      -5.280  -0.370  -0.396  0.00  0.00    +0.174 A 
ATOM     24  C   UNL     1      -5.816  -1.171   0.630  0.00  0.00    +0.107 A 
ATOM     25  N   UNL     1      -6.531  -2.094   0.049  0.00  0.00    -0.081 NA
ATOM     26  O   UNL     1      -6.518  -1.987  -1.155  0.00  0.00    -0.353 OA
ATOM     27  C   UNL     1      -5.771  -0.937  -1.547  0.00  0.00    +0.187 A 
ATOM     28  C   UNL     1      -5.604  -0.997   2.112  0.00  0.00    +0.071 C 
BRANCH  27  29
ATOM     29  C   UNL     1      -5.528  -0.493  -2.923  0.00  0.00    +0.051 C 
ATOM     30  C   UNL     1      -6.083  -1.159  -3.953  0.00  0.00    +0.012 C 
BRANCH  30  31
ATOM     31  C   UNL     1      -5.839  -0.712  -5.335  0.00  0.00    -0.019 A 
ATOM     32  C   UNL     1      -6.027   0.629  -5.684  0.00  0.00    -0.043 A 
ATOM     33  C   UNL     1      -5.791   1.040  -6.979  0.00  0.00    +0.007 A 
ATOM     34  C   UNL     1      -5.379   0.128  -7.935  0.00  0.00    -0.050 A 
ATOM     35  C   UNL     1      -5.196  -1.202  -7.598  0.00  0.00    +0.007 A 
ATOM     36  C   UNL     1      -5.423  -1.628  -6.306  0.00  0.00    -0.043 A 
ATOM     37  C   UNL     1      -5.223  -3.077  -5.942  0.00  0.00    +0.044 C 
ATOM     38  C   UNL     1      -5.129   0.584  -9.349  0.00  0.00    +0.044 C 
ATOM     39  C   UNL     1      -6.481   1.623  -4.647  0.00  0.00    +0.044 C 
ENDBRANCH  30  31
ENDBRANCH  27  29
ENDBRANCH   1  23
TORSDOF 8
