REMARK  Name = ZINC08691504
REMARK  8 active torsions:
REMARK  status: ('A' for Active; 'I' for Inactive)
REMARK    1  A    between atoms: C_1  and  C_2
REMARK    2  A    between atoms: C_5  and  C_8
REMARK    3  A    between atoms: N_10  and  C_11
REMARK    4  A    between atoms: C_11  and  C_18
REMARK    5  A    between atoms: C_12  and  C_13
REMARK    6  A    between atoms: N_20  and  C_21
REMARK    7  A    between atoms: C_21  and  C_22
REMARK    8  A    between atoms: C_22  and  C_23
REMARK                            x       y       z     vdW  Elec       q    Type
REMARK                         _______ _______ _______ _____ _____    ______ ____
ROOT
ATOM      1  C   UNL     1      -0.021  -6.328   0.972  0.00  0.00    +0.097 C 
ATOM      2  C   UNL     1      -0.013  -6.933  -0.246  0.00  0.00    +0.043 C 
ENDROOT
BRANCH   2   3
ATOM      3  C   UNL     1      -0.048  -6.149  -1.426  0.00  0.00    +0.014 A 
ATOM      4  C   UNL     1      -0.134  -6.563  -2.749  0.00  0.00    +0.015 A 
ATOM      5  C   UNL     1      -0.152  -5.604  -3.731  0.00  0.00    +0.008 A 
ATOM      6  C   UNL     1      -0.086  -4.290  -3.381  0.00  0.00    +0.046 A 
ATOM      7  S   UNL     1      -0.002  -4.373  -1.600  0.00  0.00    -0.097 S 
ENDBRANCH   2   3
BRANCH   1  10
ATOM      8  C   UNL     1      -0.926  -4.237   1.661  0.00  0.00    +0.248 C 
ATOM      9  O   UNL     1      -1.843  -4.825   2.201  0.00  0.00    -0.270 OA
ATOM     10  N   UNL     1       0.060  -4.933   1.061  0.00  0.00    -0.277 N 
ATOM     11  H   UNL     1       0.827  -4.467   0.692  0.00  0.00    +0.155 HD
BRANCH   8  16
ATOM     12  C   UNL     1      -0.797   1.516   1.667  0.00  0.00    +0.044 C 
ATOM     13  C   UNL     1      -0.831   0.009   1.666  0.00  0.00    -0.050 A 
ATOM     14  C   UNL     1      -1.929  -0.655   2.181  0.00  0.00    +0.004 A 
ATOM     15  C   UNL     1      -1.967  -2.034   2.182  0.00  0.00    +0.013 A 
ATOM     16  C   UNL     1      -0.893  -2.759   1.662  0.00  0.00    +0.037 A 
ATOM     17  C   UNL     1       0.212  -2.082   1.144  0.00  0.00    +0.013 A 
ATOM     18  C   UNL     1       0.235  -0.703   1.144  0.00  0.00    +0.004 A 
ENDBRANCH   8  16
ENDBRANCH   1  10
BRANCH   1  19
ATOM     19  C   UNL     1      -0.115  -7.136   2.190  0.00  0.00    +0.258 C 
ATOM     20  O   UNL     1      -0.122  -6.594   3.280  0.00  0.00    -0.269 OA
ATOM     21  N   UNL     1      -0.193  -8.478   2.103  0.00  0.00    -0.310 N 
ATOM     22  H   UNL     1      -0.188  -8.910   1.235  0.00  0.00    +0.149 HD
BRANCH  21  23
ATOM     23  C   UNL     1      -0.287  -9.286   3.322  0.00  0.00    +0.109 C 
BRANCH  23  24
ATOM     24  C   UNL     1      -0.363 -10.768   2.947  0.00  0.00    +0.056 C 
BRANCH  24  25
ATOM     25  C   UNL     1      -0.460 -11.599   4.200  0.00  0.00    -0.021 A 
ATOM     26  C   UNL     1       0.559 -12.178   4.855  0.00  0.00    +0.087 A 
ATOM     27  N   UNL     1       0.088 -12.851   5.949  0.00  0.00    -0.360 N 
ATOM     28  H   UNL     1       0.637 -13.348   6.576  0.00  0.00    +0.165 HD
ATOM     29  C   UNL     1      -1.280 -12.719   6.027  0.00  0.00    +0.047 A 
ATOM     30  C   UNL     1      -1.683 -11.923   4.939  0.00  0.00    +0.003 A 
ATOM     31  C   UNL     1      -3.033 -11.614   4.764  0.00  0.00    +0.010 A 
ATOM     32  C   UNL     1      -3.957 -12.083   5.655  0.00  0.00    +0.001 A 
ATOM     33  C   UNL     1      -3.564 -12.864   6.732  0.00  0.00    +0.002 A 
ATOM     34  C   UNL     1      -2.238 -13.190   6.918  0.00  0.00    +0.026 A 
ENDBRANCH  24  25
ENDBRANCH  23  24
ENDBRANCH  21  23
ENDBRANCH   1  19
TORSDOF 7
