REMARK  Name = ZINC20256704
REMARK  9 active torsions:
REMARK  status: ('A' for Active; 'I' for Inactive)
REMARK    1  A    between atoms: C_1  and  O_2
REMARK    2  A    between atoms: O_2  and  C_3
REMARK    3  A    between atoms: C_6  and  C_9
REMARK    4  A    between atoms: C_9  and  N_10
REMARK    5  A    between atoms: C_18  and  C_21
REMARK    6  A    between atoms: C_21  and  N_22
REMARK    7  A    between atoms: N_22  and  C_23
REMARK    8  A    between atoms: C_23  and  C_24
REMARK    9  A    between atoms: C_24  and  O_30
REMARK                            x       y       z     vdW  Elec       q    Type
REMARK                         _______ _______ _______ _____ _____    ______ ____
ROOT
ATOM      1  N   UNL     1      -1.080   3.357   7.730  0.00  0.00    -0.304 N 
ATOM      2  C   UNL     1      -2.029   2.608   8.392  0.00  0.00    +0.053 A 
ATOM      3  C   UNL     1      -2.686   3.109   9.511  0.00  0.00    +0.030 A 
ATOM      4  C   UNL     1      -3.634   2.341  10.157  0.00  0.00    -0.042 A 
ATOM      5  C   UNL     1      -3.940   1.066   9.699  0.00  0.00    -0.043 A 
ATOM      6  C   UNL     1      -3.304   0.554   8.600  0.00  0.00    +0.014 A 
ATOM      7  C   UNL     1      -2.342   1.316   7.931  0.00  0.00    -0.001 A 
ATOM      8  C   UNL     1      -1.652   0.798   6.748  0.00  0.00    +0.017 A 
ATOM      9  C   UNL     1      -0.725   1.582   6.144  0.00  0.00    +0.001 A 
ATOM     10  C   UNL     1      -0.447   2.871   6.648  0.00  0.00    +0.253 A 
ATOM     11  O   UNL     1       0.387   3.561   6.088  0.00  0.00    -0.267 OA
ATOM     12  C   UNL     1      -5.003   0.448  10.583  0.00  0.00    +0.036 C 
ATOM     13  C   UNL     1      -5.627   1.631  11.352  0.00  0.00    +0.009 C 
ATOM     14  C   UNL     1      -4.475   2.658  11.377  0.00  0.00    +0.036 C 
ENDROOT
BRANCH   1  15
ATOM     15  C   UNL     1      -0.755   4.702   8.213  0.00  0.00    +0.160 C 
BRANCH  15  19
ATOM     16  C   UNL     1      -3.308   7.553   6.313  0.00  0.00    +0.120 A 
ATOM     17  C   UNL     1      -3.693   6.964   7.508  0.00  0.00    +0.046 A 
ATOM     18  C   UNL     1      -2.865   6.043   8.121  0.00  0.00    +0.009 A 
ATOM     19  C   UNL     1      -1.655   5.707   7.543  0.00  0.00    -0.027 A 
ATOM     20  C   UNL     1      -1.267   6.297   6.354  0.00  0.00    +0.009 A 
ATOM     21  C   UNL     1      -2.093   7.215   5.735  0.00  0.00    +0.046 A 
BRANCH  16  23
ATOM     22  C   UNL     1      -3.659   9.026   4.480  0.00  0.00    +0.277 C 
ATOM     23  O   UNL     1      -4.120   8.460   5.708  0.00  0.00    -0.495 OA
ENDBRANCH  16  23
ENDBRANCH  15  19
ENDBRANCH   1  15
BRANCH   9  24
ATOM     24  C   UNL     1       0.008   1.078   4.928  0.00  0.00    -0.041 C 
BRANCH  24  25
ATOM     25  N   UNL     1      -0.676   1.546   3.715  0.00  0.00    +0.384 N 
ATOM     26  H   UNL     1      -1.708   1.165   3.706  0.00  0.00    -0.085 HD
ATOM     27  H   UNL     1      -0.691   2.646   3.704  0.00  0.00    -0.085 HD
BRANCH  25  28
ATOM     28  C   UNL     1       0.011   1.072   2.506  0.00  0.00    -0.047 C 
BRANCH  28  29
ATOM     29  C   UNL     1      -0.729   1.579   1.267  0.00  0.00    +0.051 C 
ATOM     30  C   UNL     1      -0.013   1.086   0.008  0.00  0.00    +0.033 C 
ATOM     31  C   UNL     1      -0.753   1.593  -1.232  0.00  0.00    +0.003 C 
ATOM     32  C   UNL     1      -0.773   3.123  -1.223  0.00  0.00    +0.000 C 
ATOM     33  C   UNL     1      -1.490   3.616   0.036  0.00  0.00    +0.003 C 
ATOM     34  C   UNL     1      -0.750   3.109   1.275  0.00  0.00    +0.033 C 
BRANCH  29  35
ATOM     35  O   UNL     1      -2.070   1.085   1.277  0.00  0.00    -0.390 OA
ATOM     36  H   UNL     1      -2.758   1.345   0.460  0.00  0.00    +0.210 HD
ENDBRANCH  29  35
ENDBRANCH  28  29
ENDBRANCH  25  28
ENDBRANCH  24  25
ENDBRANCH   9  24
TORSDOF 8
