REMARK  Name = ZINC23353760
REMARK  6 active torsions:
REMARK  status: ('A' for Active; 'I' for Inactive)
REMARK    1  A    between atoms: C_1  and  N_2
REMARK    2  A    between atoms: C_5  and  C_7
REMARK    3  A    between atoms: C_16  and  N_20
REMARK    4  A    between atoms: N_20  and  C_21
REMARK    5  A    between atoms: C_21  and  C_22
REMARK    6  A    between atoms: C_22  and  N_29
REMARK                            x       y       z     vdW  Elec       q    Type
REMARK                         _______ _______ _______ _____ _____    ______ ____
ROOT
ATOM      1  C   UNL     1      -0.715   0.354   0.845  0.00  0.00    +0.172 C 
ATOM      2  N   UNL     1      -0.362  -1.057   0.666  0.00  0.00    -0.270 N 
ATOM      3  C   UNL     1      -0.236  -1.674  -0.520  0.00  0.00    +0.043 A 
ATOM      4  C   UNL     1       0.096  -2.965  -0.267  0.00  0.00    +0.004 A 
ATOM      5  C   UNL     1       0.163  -3.079   1.131  0.00  0.00    +0.151 A 
ATOM      6  N   UNL     1      -0.120  -1.885   1.623  0.00  0.00    -0.166 NA
ATOM      7  C   UNL     1       0.328  -4.009  -1.323  0.00  0.00    +0.023 C 
ATOM      8  C   UNL     1      -0.258  -3.496  -2.646  0.00  0.00    -0.067 C 
ATOM      9  C   UNL     1       0.238  -2.072  -2.907  0.00  0.00    -0.009 C 
ATOM     10  C   UNL     1      -0.412  -1.108  -1.905  0.00  0.00    +0.054 C 
ENDROOT
BRANCH   5  11
ATOM     11  C   UNL     1       0.493  -4.295   1.902  0.00  0.00    +0.267 C 
ATOM     12  O   UNL     1       0.637  -5.358   1.329  0.00  0.00    -0.268 OA
ATOM     13  N   UNL     1       0.633  -4.227   3.241  0.00  0.00    -0.295 N 
ATOM     14  C   UNL     1       0.341  -2.973   3.936  0.00  0.00    +0.119 C 
ATOM     15  C   UNL     1      -0.878  -3.165   4.845  0.00  0.00    +0.088 C 
ATOM     16  S   UNL     1      -0.533  -4.527   6.000  0.00  0.00    -0.158 S 
ATOM     17  C   UNL     1      -0.054  -5.891   4.898  0.00  0.00    +0.088 C 
ATOM     18  C   UNL     1       1.071  -5.410   3.983  0.00  0.00    +0.119 C 
ENDBRANCH   5  11
BRANCH   8  19
ATOM     19  N   UNL     1       0.170  -4.373  -3.744  0.00  0.00    +0.382 N 
ATOM     20  H   UNL     1       1.169  -4.294  -3.867  0.00  0.00    -0.085 HD
ATOM     21  H   UNL     1      -0.068  -5.328  -3.524  0.00  0.00    -0.085 HD
BRANCH  19  22
ATOM     22  C   UNL     1      -0.509  -3.972  -4.984  0.00  0.00    -0.060 C 
BRANCH  22  23
ATOM     23  C   UNL     1      -0.030  -4.857  -6.136  0.00  0.00    +0.007 C 
ATOM     24  C   UNL     1      -0.130  -4.098  -7.431  0.00  0.00    +0.020 C 
ATOM     25  C   UNL     1      -1.197  -2.988  -7.384  0.00  0.00    +0.002 C 
ATOM     26  C   UNL     1      -2.490  -3.433  -6.674  0.00  0.00    +0.000 C 
ATOM     27  C   UNL     1      -2.901  -4.831  -7.049  0.00  0.00    +0.000 C 
ATOM     28  C   UNL     1      -2.329  -5.808  -6.001  0.00  0.00    +0.002 C 
ATOM     29  C   UNL     1      -0.925  -6.110  -6.233  0.00  0.00    +0.020 C 
BRANCH  23  30
ATOM     30  N   UNL     1       1.362  -5.262  -5.902  0.00  0.00    -0.294 NA
ATOM     31  C   UNL     1       2.259  -4.096  -5.913  0.00  0.00    +0.113 C 
ATOM     32  C   UNL     1       3.687  -4.555  -5.607  0.00  0.00    +0.175 C 
ATOM     33  O   UNL     1       4.078  -5.548  -6.560  0.00  0.00    -0.377 OA
ATOM     34  C   UNL     1       3.227  -6.697  -6.576  0.00  0.00    +0.175 C 
ATOM     35  C   UNL     1       1.794  -6.260  -6.892  0.00  0.00    +0.113 C 
ENDBRANCH  23  30
ENDBRANCH  22  23
ENDBRANCH  19  22
ENDBRANCH   8  19
TORSDOF 5
