REMARK  Name = ZINC39769480
REMARK  7 active torsions:
REMARK  status: ('A' for Active; 'I' for Inactive)
REMARK    1  A    between atoms: C_4  and  N_7
REMARK    2  A    between atoms: C_8  and  C_30
REMARK    3  A    between atoms: C_12  and  S_14
REMARK    4  A    between atoms: S_14  and  C_15
REMARK    5  A    between atoms: C_15  and  C_16
REMARK    6  A    between atoms: N_18  and  N_19
REMARK    7  A    between atoms: C_20  and  C_21
REMARK                            x       y       z     vdW  Elec       q    Type
REMARK                         _______ _______ _______ _____ _____    ______ ____
ROOT
ATOM      1  N   UNL     1       3.809  -0.671  -0.280  0.00  0.00    -0.284 N 
ATOM      2  C   UNL     1       3.818  -2.110   0.051  0.00  0.00    +0.189 C 
ATOM      3  N   UNL     1       5.167  -2.574  -0.370  0.00  0.00    -0.230 NA
ATOM      4  N   UNL     1       6.033  -1.440  -0.011  0.00  0.00    -0.226 NA
ATOM      5  C   UNL     1       5.218  -0.244  -0.327  0.00  0.00    +0.218 C 
ATOM      6  H   UNL     1       5.194  -2.751  -1.363  0.00  0.00    +0.143 HD
ATOM      7  H   UNL     1       6.883  -1.448  -0.554  0.00  0.00    +0.143 HD
ENDROOT
BRANCH   1  11
ATOM      8  C   UNL     1       0.461   1.707  -0.966  0.00  0.00    +0.000 A 
ATOM      9  C   UNL     1       1.727   2.221  -1.177  0.00  0.00    +0.002 A 
ATOM     10  C   UNL     1       2.840   1.435  -0.951  0.00  0.00    +0.023 A 
ATOM     11  C   UNL     1       2.686   0.127  -0.510  0.00  0.00    +0.033 A 
ATOM     12  C   UNL     1       1.412  -0.386  -0.299  0.00  0.00    +0.023 A 
ATOM     13  C   UNL     1       0.304   0.405  -0.527  0.00  0.00    +0.002 A 
ENDBRANCH   1  11
BRANCH   2  14
ATOM     14  C   UNL     1       2.745  -2.835  -0.718  0.00  0.00    -0.009 A 
ATOM     15  C   UNL     1       2.651  -2.710  -2.096  0.00  0.00    +0.026 A 
ATOM     16  C   UNL     1       1.653  -3.390  -2.768  0.00  0.00    +0.111 A 
ATOM     17  N   UNL     1       0.797  -4.150  -2.114  0.00  0.00    -0.263 NA
ATOM     18  C   UNL     1       0.856  -4.293  -0.804  0.00  0.00    +0.111 A 
ATOM     19  C   UNL     1       1.830  -3.648  -0.066  0.00  0.00    +0.026 A 
ENDBRANCH   2  14
BRANCH   5  20
ATOM     20  S   UNL     1       5.517   1.050   0.908  0.00  0.00    -0.112 S 
BRANCH  20  21
ATOM     21  C   UNL     1       5.103   0.256   2.486  0.00  0.00    +0.169 C 
BRANCH  21  22
ATOM     22  C   UNL     1       5.310   1.236   3.611  0.00  0.00    +0.242 C 
ATOM     23  O   UNL     1       5.699   2.360   3.373  0.00  0.00    -0.273 OA
ATOM     24  N   UNL     1       5.063   0.863   4.883  0.00  0.00    -0.206 N 
ATOM     25  H   UNL     1       4.752  -0.035   5.074  0.00  0.00    +0.177 HD
BRANCH  24  26
ATOM     26  N   UNL     1       5.256   1.774   5.930  0.00  0.00    -0.188 NA
ATOM     27  C   UNL     1       5.016   1.413   7.165  0.00  0.00    +0.136 C 
BRANCH  27  28
ATOM     28  C   UNL     1       5.209   2.325   8.213  0.00  0.00    +0.000 C 
ATOM     29  C   UNL     1       5.007   2.100   9.572  0.00  0.00    +0.004 A 
ATOM     30  C   UNL     1       4.575   0.969  10.299  0.00  0.00    +0.010 A 
ATOM     31  C   UNL     1       4.468   1.037  11.650  0.00  0.00    +0.001 A 
ATOM     32  C   UNL     1       4.776   2.207  12.351  0.00  0.00    +0.002 A 
ATOM     33  C   UNL     1       5.197   3.329  11.720  0.00  0.00    +0.026 A 
ATOM     34  C   UNL     1       5.334   3.335  10.306  0.00  0.00    +0.043 A 
ATOM     35  N   UNL     1       5.716   4.279   9.472  0.00  0.00    -0.380 N 
ATOM     36  C   UNL     1       5.686   3.756   8.103  0.00  0.00    +0.150 C 
ATOM     37  H   UNL     1       5.980   5.178   9.725  0.00  0.00    +0.160 HD
ENDBRANCH  27  28
ENDBRANCH  24  26
ENDBRANCH  21  22
ENDBRANCH  20  21
ENDBRANCH   5  20
TORSDOF 7
