REMARK  Name = ZINC62039852
REMARK  3 active torsions:
REMARK  status: ('A' for Active; 'I' for Inactive)
REMARK    1  A    between atoms: C_1  and  S_2
REMARK    2  A    between atoms: S_2  and  C_3
REMARK    3  A    between atoms: N_16  and  C_17
REMARK                            x       y       z     vdW  Elec       q    Type
REMARK                         _______ _______ _______ _____ _____    ______ ____
ROOT
ATOM      1  C   UNL     1      -0.391  -0.719   2.722  0.00  0.00    +0.191 A 
ATOM      2  N   UNL     1       0.185  -1.914   2.649  0.00  0.00    -0.206 NA
ATOM      3  C   UNL     1       1.347  -2.170   3.224  0.00  0.00    +0.136 A 
ATOM      4  C   UNL     1       2.008  -1.137   3.947  0.00  0.00    +0.051 A 
ATOM      5  C   UNL     1       3.287  -1.192   4.658  0.00  0.00    -0.025 A 
ATOM      6  C   UNL     1       3.696  -0.062   5.270  0.00  0.00    -0.004 A 
ATOM      7  S   UNL     1       2.424   1.128   4.942  0.00  0.00    -0.073 S 
ATOM      8  C   UNL     1       1.340   0.103   3.982  0.00  0.00    +0.115 A 
ATOM      9  N   UNL     1       0.182   0.282   3.377  0.00  0.00    -0.215 NA
ATOM     10  C   UNL     1       4.955   0.139   6.057  0.00  0.00    +0.043 C 
ATOM     11  C   UNL     1       5.548  -1.239   6.385  0.00  0.00    +0.005 C 
ATOM     12  C   UNL     1       5.563  -2.083   5.107  0.00  0.00    +0.005 C 
ATOM     13  C   UNL     1       4.134  -2.461   4.717  0.00  0.00    +0.037 C 
ATOM     14  N   UNL     1       1.915  -3.428   3.125  0.00  0.00    -0.298 N 
ATOM     15  H   UNL     1       2.719  -3.638   3.626  0.00  0.00    +0.154 HD
ENDROOT
BRANCH  14  16
ATOM     16  C   UNL     1       1.331  -4.396   2.302  0.00  0.00    +0.052 A 
ATOM     17  C   UNL     1       0.652  -4.014   1.152  0.00  0.00    +0.046 A 
ATOM     18  C   UNL     1       0.076  -4.973   0.341  0.00  0.00    +0.061 A 
ATOM     19  C   UNL     1       0.174  -6.314   0.674  0.00  0.00    +0.061 A 
ATOM     20  C   UNL     1       0.848  -6.697   1.819  0.00  0.00    +0.043 A 
ATOM     21  C   UNL     1       1.432  -5.743   2.631  0.00  0.00    +0.064 A 
ATOM     22 CL   UNL     1       2.285  -6.225   4.064  0.00  0.00    -0.082 Cl
ATOM     23 CL   UNL     1      -0.552  -7.516  -0.347  0.00  0.00    -0.082 Cl
ATOM     24 CL   UNL     1      -0.772  -4.496  -1.097  0.00  0.00    -0.082 Cl
ENDBRANCH  14  16
BRANCH   1  26
ATOM     25  C   UNL     1      -2.329   1.279   2.282  0.00  0.00    +0.093 C 
ATOM     26  S   UNL     1      -1.943  -0.458   1.929  0.00  0.00    -0.089 S 
ENDBRANCH   1  26
TORSDOF 2
