REMARK  Name = ZINC35711694
REMARK  15 active torsions:
REMARK  status: ('A' for Active; 'I' for Inactive)
REMARK    1  A    between atoms: C_1  and  C_2
REMARK    2  A    between atoms: C_2  and  C_3
REMARK    3  A    between atoms: C_3  and  N_4
REMARK    4  A    between atoms: C_5  and  C_37
REMARK    5  A    between atoms: C_6  and  C_30
REMARK    6  A    between atoms: C_7  and  C_12
REMARK    7  A    between atoms: C_15  and  N_18
REMARK    8  A    between atoms: N_21  and  C_22
REMARK    9  A    between atoms: C_25  and  C_28
REMARK   10  A    between atoms: C_28  and  C_29
REMARK   11  A    between atoms: C_30  and  O_32
REMARK   12  A    between atoms: O_32  and  C_33
REMARK   13  A    between atoms: C_33  and  C_34
REMARK   14  A    between atoms: C_34  and  C_35
REMARK   15  A    between atoms: C_34  and  C_36
REMARK                            x       y       z     vdW  Elec       q    Type
REMARK                         _______ _______ _______ _____ _____    ______ ____
ROOT
ATOM      1  C   UNL     1       0.788  -6.429   0.175  0.00  0.00    -0.022 A 
ATOM      2  C   UNL     1       0.130  -6.005   1.315  0.00  0.00    +0.007 A 
ATOM      3  C   UNL     1      -0.066  -6.880   2.367  0.00  0.00    +0.024 A 
ATOM      4  C   UNL     1       0.399  -8.185   2.278  0.00  0.00    +0.035 A 
ATOM      5  C   UNL     1       1.060  -8.607   1.132  0.00  0.00    +0.024 A 
ATOM      6  C   UNL     1       1.248  -7.730   0.082  0.00  0.00    +0.007 A 
ENDROOT
BRANCH   1  10
ATOM      7  N   UNL     1       0.551  -2.744  -0.918  0.00  0.00    -0.259 N 
ATOM      8  C   UNL     1       1.796  -3.185  -0.571  0.00  0.00    +0.024 C 
ATOM      9  C   UNL     1       2.094  -4.502  -0.571  0.00  0.00    +0.078 C 
ATOM     10  C   UNL     1       1.000  -5.472  -0.970  0.00  0.00    +0.143 C 
ATOM     11  N   UNL     1      -0.307  -4.895  -1.326  0.00  0.00    -0.288 N 
ATOM     12  C   UNL     1      -0.453  -3.556  -1.273  0.00  0.00    +0.307 C 
ATOM     13  O   UNL     1      -1.529  -3.070  -1.561  0.00  0.00    -0.252 OA
ATOM     14  C   UNL     1       2.854  -2.185  -0.181  0.00  0.00    +0.061 C 
ATOM     15  H   UNL     1      -1.046  -5.465  -1.589  0.00  0.00    +0.151 HD
BRANCH   9  16
ATOM     16  C   UNL     1       3.383  -4.960  -0.212  0.00  0.00    +0.339 C 
ATOM     17  O   UNL     1       3.662  -6.139  -0.321  0.00  0.00    -0.245 OA
BRANCH  16  18
ATOM     18  O   UNL     1       4.304  -4.089   0.250  0.00  0.00    -0.461 OA
BRANCH  18  19
ATOM     19  C   UNL     1       5.616  -4.600   0.493  0.00  0.00    +0.235 C 
BRANCH  19  20
ATOM     20  C   UNL     1       6.480  -3.507   1.126  0.00  0.00    +0.020 C 
ATOM     21  C   UNL     1       7.852  -4.084   1.482  0.00  0.00    +0.010 C 
ATOM     22  C   UNL     1       6.653  -2.355   0.134  0.00  0.00    +0.010 C 
ENDBRANCH  19  20
ENDBRANCH  18  19
ENDBRANCH  16  18
ENDBRANCH   9  16
BRANCH   7  23
ATOM     23  C   UNL     1       0.297  -1.301  -0.895  0.00  0.00    +0.114 C 
BRANCH  23  25
ATOM     24  C   UNL     1       0.514   0.829  -2.183  0.00  0.00    +0.005 C 
ATOM     25  C   UNL     1       0.779  -0.678  -2.207  0.00  0.00    +0.016 C 
ENDBRANCH  23  25
ENDBRANCH   7  23
ENDBRANCH   1  10
BRANCH   4  26
ATOM     26  N   UNL     1       0.203  -9.073   3.341  0.00  0.00    -0.269 N 
ATOM     27  C   UNL     1      -0.912  -8.988   4.093  0.00  0.00    +0.308 C 
ATOM     28  O   UNL     1      -1.789  -8.201   3.793  0.00  0.00    -0.252 OA
ATOM     29  N   UNL     1      -1.055  -9.774   5.179  0.00  0.00    -0.269 N 
ATOM     30  H   UNL     1       0.869  -9.750   3.537  0.00  0.00    +0.156 HD
ATOM     31  H   UNL     1      -0.326 -10.348   5.461  0.00  0.00    +0.156 HD
BRANCH  29  32
ATOM     32  C   UNL     1      -2.255  -9.762   5.898  0.00  0.00    +0.035 A 
ATOM     33  C   UNL     1      -3.461  -9.574   5.237  0.00  0.00    +0.023 A 
ATOM     34  C   UNL     1      -4.644  -9.563   5.949  0.00  0.00    +0.005 A 
ATOM     35  C   UNL     1      -4.628  -9.739   7.321  0.00  0.00    -0.048 A 
ATOM     36  C   UNL     1      -3.429  -9.927   7.983  0.00  0.00    +0.005 A 
ATOM     37  C   UNL     1      -2.243  -9.945   7.275  0.00  0.00    +0.023 A 
BRANCH  35  38
ATOM     38  C   UNL     1      -5.920  -9.727   8.096  0.00  0.00    +0.032 C 
ATOM     39  C   UNL     1      -6.481 -11.148   8.176  0.00  0.00    +0.009 C 
ENDBRANCH  35  38
ENDBRANCH  29  32
ENDBRANCH   4  26
TORSDOF 10
