REMARK  Name = ZINC43136835
REMARK  6 active torsions:
REMARK  status: ('A' for Active; 'I' for Inactive)
REMARK    1  A    between atoms: C_3  and  C_6
REMARK    2  A    between atoms: C_6  and  C_8
REMARK    3  A    between atoms: C_6  and  N_20
REMARK    4  A    between atoms: C_8  and  N_9
REMARK    5  A    between atoms: N_12  and  C_13
REMARK    6  A    between atoms: C_13  and  C_14
REMARK                            x       y       z     vdW  Elec       q    Type
REMARK                         _______ _______ _______ _____ _____    ______ ____
ROOT
ATOM      1  C   UNL     1       4.126   0.260  -1.425  0.00  0.00    +0.098 C 
ENDROOT
BRANCH   1   2
ATOM      2  N   UNL     1       5.570   0.024  -1.358  0.00  0.00    -0.301 N 
ATOM      3  C   UNL     1       6.234  -0.409  -2.448  0.00  0.00    +0.300 C 
ATOM      4  O   UNL     1       5.633  -0.605  -3.487  0.00  0.00    -0.253 OA
ATOM      5  N   UNL     1       7.563  -0.626  -2.386  0.00  0.00    -0.295 N 
ATOM      6  H   UNL     1       6.049   0.180  -0.529  0.00  0.00    +0.150 HD
ATOM      7  H   UNL     1       8.041  -0.470  -1.557  0.00  0.00    +0.151 HD
BRANCH   5   8
ATOM      8  C   UNL     1       8.284  -1.097  -3.571  0.00  0.00    +0.148 C 
BRANCH   8   9
ATOM      9  C   UNL     1       9.745  -1.258  -3.239  0.00  0.00    +0.008 A 
ATOM     10  C   UNL     1      10.397  -2.349  -2.767  0.00  0.00    +0.028 A 
ATOM     11  C   UNL     1      11.757  -2.266  -2.531  0.00  0.00    +0.025 A 
ATOM     12  C   UNL     1      12.398  -1.097  -2.781  0.00  0.00    +0.060 A 
ATOM     13  S   UNL     1      11.066  -0.066  -3.373  0.00  0.00    -0.099 S 
ATOM     14 BR   UNL     1      12.710  -3.760  -1.872  0.00  0.00    -0.050 Br
ENDBRANCH   8   9
ENDBRANCH   5   8
ENDBRANCH   1   2
BRANCH   1  15
ATOM     15  C   UNL     1       3.602   0.617  -0.032  0.00  0.00    +0.016 C 
BRANCH  15  16
ATOM     16  N   UNL     1       3.975  -0.441   0.917  0.00  0.00    +0.387 N 
ATOM     17  C   UNL     1       3.460  -1.729   0.439  0.00  0.00    -0.078 C 
ATOM     18  C   UNL     1       3.914  -2.846   1.381  0.00  0.00    -0.019 C 
ATOM     19  C   UNL     1       3.374  -2.570   2.788  0.00  0.00    -0.004 C 
ATOM     20  C   UNL     1       3.857  -1.191   3.247  0.00  0.00    -0.019 C 
ATOM     21  C   UNL     1       3.405  -0.136   2.235  0.00  0.00    -0.078 C 
ATOM     22  H   UNL     1       4.980  -0.488   0.989  0.00  0.00    -0.081 HD
ENDBRANCH  15  16
BRANCH  15  25
ATOM     23  C   UNL     1       0.038   1.554  -0.081  0.00  0.00    +0.041 A 
ATOM     24  C   UNL     1       1.408   1.895   0.005  0.00  0.00    +0.043 A 
ATOM     25  C   UNL     1       2.102   0.746  -0.077  0.00  0.00    +0.093 A 
ATOM     26  O   UNL     1       1.230  -0.268  -0.207  0.00  0.00    -0.469 OA
ATOM     27  C   UNL     1      -0.023   0.217  -0.210  0.00  0.00    +0.195 A 
ENDBRANCH  15  25
ENDBRANCH   1  15
TORSDOF 6
