REMARK  Name = ZINC39458292
REMARK  10 active torsions:
REMARK  status: ('A' for Active; 'I' for Inactive)
REMARK    1  A    between atoms: C_1  and  C_2
REMARK    2  A    between atoms: C_2  and  C_3
REMARK    3  A    between atoms: C_2  and  C_4
REMARK    4  A    between atoms: C_4  and  N_5
REMARK    5  A    between atoms: C_6  and  N_32
REMARK    6  A    between atoms: C_8  and  C_15
REMARK    7  A    between atoms: C_15  and  C_17
REMARK    8  A    between atoms: C_17  and  S_18
REMARK    9  A    between atoms: S_18  and  C_19
REMARK   10  A    between atoms: C_22  and  C_25
REMARK                            x       y       z     vdW  Elec       q    Type
REMARK                         _______ _______ _______ _____ _____    ______ ____
ROOT
ATOM      1  C   UNL     1       3.626   0.808  -3.484  0.00  0.00    +0.155 C 
ATOM      2  O   UNL     1       2.770   0.005  -3.767  0.00  0.00    -0.296 OA
ENDROOT
BRANCH   1   5
ATOM      3  N   UNL     1       1.987  -0.050  -1.089  0.00  0.00    -0.297 N 
ATOM      4  C   UNL     1       2.288   1.336  -1.462  0.00  0.00    +0.037 C 
ATOM      5  C   UNL     1       3.680   1.394  -2.097  0.00  0.00    +0.146 C 
ATOM      6  C   UNL     1       4.645   0.602  -1.252  0.00  0.00    +0.250 C 
ATOM      7  O   UNL     1       5.928   0.991  -1.164  0.00  0.00    -0.273 OA
ATOM      8  N   UNL     1       4.245  -0.456  -0.606  0.00  0.00    -0.127 NA
ATOM      9  C   UNL     1       2.961  -0.856  -0.633  0.00  0.00    +0.327 C 
ATOM     10  O   UNL     1       2.676  -1.972  -0.240  0.00  0.00    -0.250 OA
BRANCH   4  11
ATOM     11  N   UNL     1       2.257   2.185  -0.264  0.00  0.00    +0.391 N 
ATOM     12  H   UNL     1       2.887   1.811   0.430  0.00  0.00    -0.087 HD
ATOM     13  H   UNL     1       2.543   3.121  -0.508  0.00  0.00    -0.087 HD
ATOM     14  H   UNL     1       1.320   2.206   0.109  0.00  0.00    -0.087 HD
ENDBRANCH   4  11
BRANCH   3  15
ATOM     15  C   UNL     1       0.617  -0.556  -1.208  0.00  0.00    +0.110 C 
BRANCH  15  17
ATOM     16  C   UNL     1       1.295  -2.345  -2.814  0.00  0.00    +0.009 C 
ATOM     17  C   UNL     1       0.402  -1.119  -2.614  0.00  0.00    +0.000 C 
ATOM     18  C   UNL     1      -1.064  -1.523  -2.783  0.00  0.00    +0.009 C 
ENDBRANCH  15  17
ENDBRANCH   3  15
ENDBRANCH   1   5
BRANCH   1  19
ATOM     19  C   UNL     1       4.640   1.224  -4.518  0.00  0.00    +0.152 C 
BRANCH  19  20
ATOM     20  S   UNL     1       4.312   0.351  -6.073  0.00  0.00    -0.079 S 
BRANCH  20  21
ATOM     21  C   UNL     1       5.564   0.938  -7.165  0.00  0.00    +0.185 A 
ATOM     22  N   UNL     1       6.501   1.811  -6.867  0.00  0.00    -0.201 NA
ATOM     23  H   UNL     1       5.195  -0.071  -8.949  0.00  0.00    +0.191 HD
ATOM     24  C   UNL     1       7.279   2.021  -7.939  0.00  0.00    +0.183 A 
ATOM     25  N   UNL     1       6.843   1.280  -8.932  0.00  0.00    -0.152 NA
ATOM     26  N   UNL     1       5.734   0.564  -8.453  0.00  0.00    -0.253 N 
BRANCH  24  27
ATOM     27  C   UNL     1       8.442   2.940  -7.994  0.00  0.00    +0.035 A 
ATOM     28  C   UNL     1       8.810   3.672  -6.867  0.00  0.00    +0.013 A 
ATOM     29  C   UNL     1       9.893   4.525  -6.923  0.00  0.00    +0.001 A 
ATOM     30  C   UNL     1      10.614   4.656  -8.097  0.00  0.00    +0.001 A 
ATOM     31  C   UNL     1      10.254   3.933  -9.220  0.00  0.00    +0.016 A 
ATOM     32  C   UNL     1       9.175   3.071  -9.173  0.00  0.00    +0.029 A 
ATOM     33 BR   UNL     1       8.689   2.078 -10.707  0.00  0.00    -0.050 Br
ENDBRANCH  24  27
ENDBRANCH  20  21
ENDBRANCH  19  20
ENDBRANCH   1  19
TORSDOF 8
