REMARK  Name = ZINC11427327
REMARK  14 active torsions:
REMARK  status: ('A' for Active; 'I' for Inactive)
REMARK    1  A    between atoms: C_1  and  C_2
REMARK    2  A    between atoms: C_2  and  C_3
REMARK    3  A    between atoms: C_3  and  C_4
REMARK    4  A    between atoms: C_4  and  N_5
REMARK    5  A    between atoms: N_5  and  C_6
REMARK    6  A    between atoms: C_7  and  N_19
REMARK    7  A    between atoms: N_8  and  C_15
REMARK    8  A    between atoms: C_15  and  C_16
REMARK    9  A    between atoms: C_16  and  C_17
REMARK   10  A    between atoms: C_16  and  C_18
REMARK   11  A    between atoms: C_20  and  C_22
REMARK   12  A    between atoms: C_22  and  S_23
REMARK   13  A    between atoms: S_23  and  C_24
REMARK   14  A    between atoms: N_28  and  C_29
REMARK                            x       y       z     vdW  Elec       q    Type
REMARK                         _______ _______ _______ _____ _____    ______ ____
ROOT
ATOM      1  N   UNL     1       0.176   1.306   2.755  0.00  0.00    -0.264 N 
ATOM      2  C   UNL     1      -0.252   1.295   1.475  0.00  0.00    +0.230 C 
ATOM      3  O   UNL     1      -1.397   1.603   1.216  0.00  0.00    -0.274 OA
ENDROOT
BRANCH   1   4
ATOM      4  C   UNL     1      -0.676   1.768   3.780  0.00  0.00    +0.140 A 
ATOM      5  C   UNL     1      -1.084   3.086   3.813  0.00  0.00    +0.127 A 
ATOM      6  N   UNL     1      -1.915   3.506   4.825  0.00  0.00    -0.280 N 
ATOM      7  C   UNL     1      -2.325   2.643   5.772  0.00  0.00    +0.331 A 
ATOM      8  O   UNL     1      -3.059   3.034   6.659  0.00  0.00    -0.246 OA
ATOM      9  N   UNL     1      -1.937   1.355   5.756  0.00  0.00    -0.273 N 
ATOM     10  H   UNL     1      -2.253   0.735   6.475  0.00  0.00    +0.173 HD
ATOM     11  C   UNL     1      -1.129   0.891   4.784  0.00  0.00    +0.277 A 
ATOM     12  O   UNL     1      -0.787  -0.279   4.776  0.00  0.00    -0.266 OA
BRANCH   5  13
ATOM     13  N   UNL     1      -0.665   3.968   2.845  0.00  0.00    -0.343 N 
ATOM     14  H   UNL     1      -0.165   3.646   2.079  0.00  0.00    +0.144 HD
ATOM     15  H   UNL     1      -0.870   4.912   2.929  0.00  0.00    +0.144 HD
ENDBRANCH   5  13
BRANCH   6  16
ATOM     16  C   UNL     1      -2.357   4.902   4.872  0.00  0.00    +0.131 C 
BRANCH  16  17
ATOM     17  C   UNL     1      -3.660   5.052   4.085  0.00  0.00    +0.003 C 
ATOM     18  C   UNL     1      -4.187   6.480   4.237  0.00  0.00    +0.009 C 
ATOM     19  C   UNL     1      -3.399   4.759   2.606  0.00  0.00    +0.009 C 
ENDBRANCH  16  17
ENDBRANCH   6  16
ENDBRANCH   1   4
BRANCH   1  20
ATOM     20  C   UNL     1       1.526   0.838   3.079  0.00  0.00    +0.114 C 
BRANCH  20  21
ATOM     21  C   UNL     1       2.494   2.023   3.065  0.00  0.00    +0.019 C 
BRANCH  21  23
ATOM     22  C   UNL     1       4.871   2.720   3.391  0.00  0.00    +0.004 C 
ATOM     23  C   UNL     1       3.903   1.535   3.404  0.00  0.00    -0.002 C 
ENDBRANCH  21  23
ENDBRANCH  20  21
ENDBRANCH   1  20
BRANCH   2  24
ATOM     24  C   UNL     1       0.691   0.901   0.368  0.00  0.00    +0.173 C 
BRANCH  24  25
ATOM     25  S   UNL     1      -0.174   0.985  -1.220  0.00  0.00    -0.076 S 
BRANCH  25  26
ATOM     26  C   UNL     1       1.125   0.489  -2.302  0.00  0.00    +0.196 A 
ATOM     27  N   UNL     1       2.352   0.173  -1.957  0.00  0.00    -0.122 NA
ATOM     28  N   UNL     1       3.033  -0.143  -3.000  0.00  0.00    -0.137 NA
ATOM     29  C   UNL     1       2.293  -0.040  -4.067  0.00  0.00    +0.230 A 
ATOM     30  N   UNL     1       1.049   0.367  -3.663  0.00  0.00    -0.277 N 
BRANCH  30  31
ATOM     31  C   UNL     1      -0.070   0.607  -4.474  0.00  0.00    +0.050 A 
ATOM     32  C   UNL     1      -1.293   0.030  -4.160  0.00  0.00    +0.026 A 
ATOM     33  C   UNL     1      -2.394   0.274  -4.958  0.00  0.00    +0.002 A 
ATOM     34  C   UNL     1      -2.277   1.081  -6.074  0.00  0.00    +0.000 A 
ATOM     35  C   UNL     1      -1.058   1.653  -6.392  0.00  0.00    +0.002 A 
ATOM     36  C   UNL     1       0.045   1.418  -5.595  0.00  0.00    +0.026 A 
ENDBRANCH  30  31
ENDBRANCH  25  26
ENDBRANCH  24  25
ENDBRANCH   2  24
TORSDOF 11
