REMARK  Name = ZINC03372264
REMARK  11 active torsions:
REMARK  status: ('A' for Active; 'I' for Inactive)
REMARK    1  A    between atoms: C_1  and  C_2
REMARK    2  A    between atoms: C_2  and  C_4
REMARK    3  A    between atoms: C_2  and  N_17
REMARK    4  A    between atoms: N_6  and  C_7
REMARK    5  A    between atoms: C_10  and  S_13
REMARK    6  A    between atoms: S_13  and  N_16
REMARK    7  A    between atoms: N_17  and  C_18
REMARK    8  A    between atoms: C_18  and  C_19
REMARK    9  A    between atoms: C_19  and  C_20
REMARK   10  A    between atoms: C_23  and  O_26
REMARK   11  A    between atoms: O_26  and  C_27
REMARK                            x       y       z     vdW  Elec       q    Type
REMARK                         _______ _______ _______ _____ _____    ______ ____
ROOT
ATOM      1  C   UNL     1      -1.412  -0.524   0.012  0.00  0.00    +0.203 C 
ATOM      2  O   UNL     1      -1.810  -1.215  -0.902  0.00  0.00    -0.277 OA
ATOM      3  N   UNL     1      -2.236  -0.217   1.033  0.00  0.00    -0.287 N 
ATOM      4  H   UNL     1      -1.899   0.279   1.796  0.00  0.00    +0.155 HD
ENDROOT
BRANCH   3   5
ATOM      5  C   UNL     1      -3.578  -0.613   0.993  0.00  0.00    +0.033 A 
ATOM      6  C   UNL     1      -4.561   0.206   1.532  0.00  0.00    +0.025 A 
ATOM      7  C   UNL     1      -5.885  -0.187   1.491  0.00  0.00    +0.030 A 
ATOM      8  C   UNL     1      -6.231  -1.395   0.914  0.00  0.00    +0.105 A 
ATOM      9  C   UNL     1      -5.253  -2.213   0.376  0.00  0.00    +0.030 A 
ATOM     10  C   UNL     1      -3.929  -1.822   0.409  0.00  0.00    +0.025 A 
BRANCH   8  11
ATOM     11  S   UNL     1      -7.920  -1.894   0.863  0.00  0.00    +0.056 S 
ATOM     12  O   UNL     1      -7.922  -3.311   0.759  0.00  0.00    -0.153 OA
ATOM     13  O   UNL     1      -8.578  -1.206   1.919  0.00  0.00    -0.153 OA
BRANCH  11  14
ATOM     14  N   UNL     1      -8.559  -1.314  -0.550  0.00  0.00    -0.204 NA
ATOM     15  H   UNL     1      -9.279  -1.794  -0.989  0.00  0.00    +0.144 HD
ATOM     16  H   UNL     1      -8.214  -0.496  -0.939  0.00  0.00    +0.144 HD
ENDBRANCH  11  14
ENDBRANCH   8  11
ENDBRANCH   3   5
BRANCH   1  18
ATOM     17  C   UNL     1      -0.009   1.520   0.022  0.00  0.00    -0.004 C 
ATOM     18  C   UNL     1       0.004  -0.009   0.005  0.00  0.00    +0.013 C 
BRANCH  18  19
ATOM     19  N   UNL     1       0.691  -0.480  -1.205  0.00  0.00    +0.387 N 
ATOM     20  H   UNL     1       0.628  -1.486  -1.258  0.00  0.00    -0.085 HD
ATOM     21  H   UNL     1       0.255  -0.072  -2.019  0.00  0.00    -0.085 HD
BRANCH  19  22
ATOM     22  C   UNL     1       2.103  -0.079  -1.154  0.00  0.00    -0.077 C 
BRANCH  22  23
ATOM     23  C   UNL     1       2.818  -0.570  -2.414  0.00  0.00    +0.016 C 
BRANCH  23  24
ATOM     24  C   UNL     1       4.267  -0.159  -2.362  0.00  0.00    -0.049 A 
ATOM     25  C   UNL     1       4.659   1.059  -2.886  0.00  0.00    +0.007 A 
ATOM     26  C   UNL     1       5.986   1.438  -2.840  0.00  0.00    +0.046 A 
ATOM     27  C   UNL     1       6.927   0.595  -2.266  0.00  0.00    +0.120 A 
ATOM     28  C   UNL     1       6.532  -0.626  -1.740  0.00  0.00    +0.046 A 
ATOM     29  C   UNL     1       5.202  -0.998  -1.785  0.00  0.00    +0.007 A 
BRANCH  27  30
ATOM     30  O   UNL     1       8.234   0.965  -2.219  0.00  0.00    -0.495 OA
ATOM     31  C   UNL     1       9.147   0.048  -1.614  0.00  0.00    +0.277 C 
ENDBRANCH  27  30
ENDBRANCH  23  24
ENDBRANCH  22  23
ENDBRANCH  19  22
ENDBRANCH  18  19
ENDBRANCH   1  18
TORSDOF 9
