REMARK  Name = ZINC13509693
REMARK  12 active torsions:
REMARK  status: ('A' for Active; 'I' for Inactive)
REMARK    1  A    between atoms: C_1  and  C_2
REMARK    2  A    between atoms: C_2  and  C_3
REMARK    3  A    between atoms: C_3  and  C_4
REMARK    4  A    between atoms: C_4  and  C_5
REMARK    5  A    between atoms: C_5  and  C_6
REMARK    6  A    between atoms: C_6  and  C_7
REMARK    7  A    between atoms: C_11  and  C_19
REMARK    8  A    between atoms: C_17  and  O_18
REMARK    9  A    between atoms: C_19  and  C_35
REMARK   10  A    between atoms: N_20  and  N_21
REMARK   11  A    between atoms: C_22  and  C_24
REMARK   12  A    between atoms: C_33  and  O_34
REMARK                            x       y       z     vdW  Elec       q    Type
REMARK                         _______ _______ _______ _____ _____    ______ ____
ROOT
ATOM      1  C   UNL     1       2.343   4.188   0.084  0.00  0.00    -0.005 A 
ATOM      2  C   UNL     1       1.168   3.496   0.103  0.00  0.00    +0.018 A 
ATOM      3  C   UNL     1       1.179   2.094   0.043  0.00  0.00    +0.019 A 
ATOM      4  C   UNL     1      -0.040   1.371   0.064  0.00  0.00    +0.028 A 
ATOM      5  C   UNL     1       0.005  -0.010   0.003  0.00  0.00    +0.082 A 
ATOM      6  C   UNL     1       1.311  -0.673  -0.082  0.00  0.00    +0.346 A 
ATOM      7  O   UNL     1       1.374  -1.888  -0.137  0.00  0.00    -0.244 OA
ATOM      8  O   UNL     1       2.439   0.057  -0.099  0.00  0.00    -0.422 OA
ATOM      9  C   UNL     1       2.405   1.406  -0.039  0.00  0.00    +0.143 A 
ATOM     10  C   UNL     1       3.590   2.128  -0.059  0.00  0.00    +0.092 A 
ATOM     11  C   UNL     1       3.558   3.511   0.002  0.00  0.00    +0.124 A 
ENDROOT
BRANCH   5  12
ATOM     12  C   UNL     1      -1.236  -0.801   0.023  0.00  0.00    +0.070 C 
ATOM     13  N   UNL     1      -1.987  -0.804   1.083  0.00  0.00    -0.184 NA
ATOM     14  C   UNL     1      -1.636  -1.606  -1.186  0.00  0.00    +0.068 C 
BRANCH  13  15
ATOM     15  N   UNL     1      -1.647  -0.008   2.185  0.00  0.00    -0.203 N 
ATOM     16  C   UNL     1      -2.373  -0.080   3.318  0.00  0.00    +0.267 C 
ATOM     17  O   UNL     1      -3.376  -0.768   3.355  0.00  0.00    -0.268 OA
ATOM     18  H   UNL     1      -0.890   0.596   2.132  0.00  0.00    +0.178 HD
BRANCH  16  19
ATOM     19  C   UNL     1      -1.951   0.674   4.514  0.00  0.00    +0.080 A 
ATOM     20  C   UNL     1      -0.880   1.549   4.433  0.00  0.00    +0.025 A 
ATOM     21  C   UNL     1      -0.486   2.266   5.572  0.00  0.00    -0.017 A 
ATOM     22  C   UNL     1       0.594   3.167   5.525  0.00  0.00    +0.008 A 
ATOM     23  C   UNL     1       0.955   3.844   6.648  0.00  0.00    +0.001 A 
ATOM     24  C   UNL     1       0.271   3.660   7.849  0.00  0.00    +0.001 A 
ATOM     25  C   UNL     1      -0.778   2.797   7.933  0.00  0.00    +0.008 A 
ATOM     26  C   UNL     1      -1.183   2.079   6.794  0.00  0.00    -0.014 A 
ATOM     27  C   UNL     1      -2.262   1.182   6.851  0.00  0.00    +0.054 A 
ATOM     28  C   UNL     1      -2.637   0.495   5.734  0.00  0.00    +0.130 A 
BRANCH  28  29
ATOM     29  O   UNL     1      -3.681  -0.370   5.797  0.00  0.00    -0.506 OA
ATOM     30  H   UNL     1      -3.430  -1.274   6.031  0.00  0.00    +0.292 HD
ENDBRANCH  28  29
ENDBRANCH  16  19
ENDBRANCH  13  15
ENDBRANCH   5  12
BRANCH  11  31
ATOM     31  O   UNL     1       4.720   4.213  -0.018  0.00  0.00    -0.506 OA
ATOM     32  H   UNL     1       5.018   4.455  -0.905  0.00  0.00    +0.292 HD
ENDBRANCH  11  31
BRANCH   1  33
ATOM     33  C   UNL     1       2.326   5.693   0.149  0.00  0.00    +0.039 C 
BRANCH  33  34
ATOM     34  C   UNL     1       2.632   6.145   1.579  0.00  0.00    +0.005 C 
BRANCH  34  35
ATOM     35  C   UNL     1       2.615   7.673   1.646  0.00  0.00    +0.000 C 
BRANCH  35  36
ATOM     36  C   UNL     1       2.921   8.125   3.075  0.00  0.00    -0.000 C 
BRANCH  36  38
ATOM     37  C   UNL     1       3.210  10.104   4.572  0.00  0.00    +0.004 C 
ATOM     38  C   UNL     1       2.904   9.653   3.142  0.00  0.00    -0.003 C 
ENDBRANCH  36  38
ENDBRANCH  35  36
ENDBRANCH  34  35
ENDBRANCH  33  34
ENDBRANCH   1  33
TORSDOF 10
