REMARK  Name = ZINC29936315
REMARK  10 active torsions:
REMARK  status: ('A' for Active; 'I' for Inactive)
REMARK    1  A    between atoms: C_1  and  C_2
REMARK    2  A    between atoms: C_5  and  N_8
REMARK    3  A    between atoms: C_9  and  C_11
REMARK    4  A    between atoms: C_11  and  N_12
REMARK    5  A    between atoms: N_12  and  C_13
REMARK    6  A    between atoms: C_14  and  C_16
REMARK    7  A    between atoms: C_16  and  N_17
REMARK    8  A    between atoms: N_17  and  C_18
REMARK    9  A    between atoms: C_18  and  C_20
REMARK   10  A    between atoms: C_18  and  C_27
REMARK                            x       y       z     vdW  Elec       q    Type
REMARK                         _______ _______ _______ _____ _____    ______ ____
ROOT
ATOM      1  C   UNL     1       4.872   4.132   0.481  0.00  0.00    +0.016 C 
ENDROOT
BRANCH   1   4
ATOM      2  N   UNL     1       3.416   2.296  -0.311  0.00  0.00    -0.297 N 
ATOM      3  C   UNL     1       3.885   2.575  -1.671  0.00  0.00    +0.132 C 
ATOM      4  C   UNL     1       3.876   3.028   0.723  0.00  0.00    +0.199 C 
ATOM      5  O   UNL     1       3.487   2.797   1.849  0.00  0.00    -0.278 OA
BRANCH   2   6
ATOM      6  C   UNL     1       2.448   1.223  -0.076  0.00  0.00    +0.203 C 
BRANCH   6   8
ATOM      7  N   UNL     1      -0.011   0.966   0.007  0.00  0.00    -0.284 N 
ATOM      8  C   UNL     1       1.050   1.777  -0.174  0.00  0.00    +0.235 C 
ATOM      9  O   UNL     1       0.879   2.953  -0.417  0.00  0.00    -0.274 OA
ATOM     10  H   UNL     1       0.140  -0.115   0.144  0.00  0.00    +0.155 HD
BRANCH   7  15
ATOM     11  C   UNL     1      -5.256   3.126   0.068  0.00  0.00    +0.044 C 
ATOM     12  C   UNL     1      -3.863   2.552   0.052  0.00  0.00    -0.050 A 
ATOM     13  C   UNL     1      -3.645   1.284  -0.456  0.00  0.00    +0.005 A 
ATOM     14  C   UNL     1      -2.369   0.756  -0.472  0.00  0.00    +0.023 A 
ATOM     15  C   UNL     1      -1.305   1.499   0.022  0.00  0.00    +0.033 A 
ATOM     16  C   UNL     1      -1.528   2.769   0.536  0.00  0.00    +0.023 A 
ATOM     17  C   UNL     1      -2.806   3.294   0.544  0.00  0.00    +0.005 A 
ENDBRANCH   7  15
ENDBRANCH   6   8
ENDBRANCH   2   6
ENDBRANCH   1   4
BRANCH   1  18
ATOM     18  N   UNL     1       5.213   4.773   1.758  0.00  0.00    +0.392 N 
ATOM     19  H   UNL     1       4.303   5.193   2.212  0.00  0.00    -0.084 HD
ATOM     20  H   UNL     1       5.650   4.027   2.438  0.00  0.00    -0.084 HD
BRANCH  18  21
ATOM     21  C   UNL     1       6.184   5.857   1.561  0.00  0.00    -0.003 C 
BRANCH  21  22
ATOM     22  C   UNL     1       6.959   6.075   2.835  0.00  0.00    -0.056 A 
ATOM     23  C   UNL     1       6.312   6.022   4.055  0.00  0.00    +0.005 A 
ATOM     24  C   UNL     1       7.023   6.216   5.224  0.00  0.00    +0.038 A 
ATOM     25  C   UNL     1       8.382   6.476   5.172  0.00  0.00    +0.123 A 
ATOM     26  C   UNL     1       9.028   6.534   3.949  0.00  0.00    +0.038 A 
ATOM     27  C   UNL     1       8.316   6.334   2.782  0.00  0.00    +0.005 A 
ATOM     28  F   UNL     1       9.077   6.672   6.314  0.00  0.00    -0.205 F 
ENDBRANCH  21  22
BRANCH  21  29
ATOM     29  C   UNL     1       5.455   7.124   1.194  0.00  0.00    -0.020 A 
ATOM     30  C   UNL     1       5.797   8.074   0.289  0.00  0.00    +0.010 A 
ATOM     31  C   UNL     1       4.964   9.163   0.113  0.00  0.00    +0.008 A 
ATOM     32  C   UNL     1       3.836   9.255   0.859  0.00  0.00    +0.045 A 
ATOM     33  S   UNL     1       3.921   7.768   1.843  0.00  0.00    -0.103 S 
ENDBRANCH  21  29
ENDBRANCH  18  21
ENDBRANCH   1  18
TORSDOF 8
