REMARK  Name = ZINC21584308
REMARK  9 active torsions:
REMARK  status: ('A' for Active; 'I' for Inactive)
REMARK    1  A    between atoms: C_1  and  C_2
REMARK    2  A    between atoms: C_2  and  C_3
REMARK    3  A    between atoms: C_2  and  C_4
REMARK    4  A    between atoms: C_4  and  C_6
REMARK    5  A    between atoms: C_4  and  N_18
REMARK    6  A    between atoms: C_9  and  C_12
REMARK    7  A    between atoms: N_18  and  C_19
REMARK    8  A    between atoms: C_19  and  C_20
REMARK    9  A    between atoms: N_22  and  C_23
REMARK                            x       y       z     vdW  Elec       q    Type
REMARK                         _______ _______ _______ _____ _____    ______ ____
ROOT
ATOM      1  C   UNL     1      -0.744   1.838  -1.203  0.00  0.00    -0.038 C 
ENDROOT
BRANCH   1   2
ATOM      2  C   UNL     1      -0.232   3.046  -1.944  0.00  0.00    -0.061 A 
ATOM      3  C   UNL     1       0.114   4.189  -1.247  0.00  0.00    +0.002 A 
ATOM      4  C   UNL     1       0.588   5.296  -1.927  0.00  0.00    +0.004 A 
ATOM      5  C   UNL     1       0.708   5.263  -3.304  0.00  0.00    -0.044 A 
ATOM      6  C   UNL     1       0.357   4.122  -4.000  0.00  0.00    +0.004 A 
ATOM      7  C   UNL     1      -0.113   3.013  -3.321  0.00  0.00    +0.002 A 
BRANCH   5   8
ATOM      8  C   UNL     1       1.220   6.471  -4.044  0.00  0.00    +0.019 C 
ATOM      9  C   UNL     1       2.631   6.807  -3.559  0.00  0.00    +0.008 C 
ATOM     10  C   UNL     1       3.151   8.034  -4.311  0.00  0.00    +0.001 C 
ATOM     11  C   UNL     1       2.225   9.223  -4.049  0.00  0.00    +0.000 C 
ATOM     12  C   UNL     1       0.813   8.887  -4.535  0.00  0.00    +0.001 C 
ATOM     13  C   UNL     1       0.293   7.660  -3.782  0.00  0.00    +0.008 C 
ENDBRANCH   5   8
ENDBRANCH   1   2
BRANCH   1  15
ATOM     14  C   UNL     1      -2.779   0.758  -0.234  0.00  0.00    +0.006 C 
ATOM     15  C   UNL     1      -2.222   2.038  -0.862  0.00  0.00    -0.027 C 
ATOM     16  C   UNL     1      -2.365   3.196   0.128  0.00  0.00    +0.006 C 
ENDBRANCH   1  15
BRANCH   1  17
ATOM     17  N   UNL     1       0.025   1.661   0.036  0.00  0.00    +0.389 N 
ATOM     18  H   UNL     1       0.305   2.646   0.437  0.00  0.00    -0.084 HD
ATOM     19  H   UNL     1      -0.589   1.125   0.775  0.00  0.00    -0.084 HD
BRANCH  17  20
ATOM     20  C   UNL     1       1.248   0.887  -0.210  0.00  0.00    +0.016 C 
BRANCH  20  21
ATOM     21  C   UNL     1       2.031   0.764   1.072  0.00  0.00    +0.196 C 
ATOM     22  O   UNL     1       1.611   1.272   2.090  0.00  0.00    -0.278 OA
ATOM     23  N   UNL     1       3.199   0.090   1.087  0.00  0.00    -0.312 N 
ATOM     24  H   UNL     1       3.580  -0.370   0.163  0.00  0.00    +0.149 HD
BRANCH  23  25
ATOM     25  C   UNL     1       3.960  -0.029   2.333  0.00  0.00    +0.095 C 
ATOM     26  C   UNL     1       4.872   1.197   2.503  0.00  0.00    +0.046 C 
ATOM     27  C   UNL     1       5.901   0.937   3.630  0.00  0.00    +0.168 C 
ATOM     28  S   UNL     1       6.091  -0.892   3.589  0.00  0.00    -0.029 S 
ATOM     29  O   UNL     1       5.646  -1.431   4.826  0.00  0.00    -0.174 OA
ATOM     30  O   UNL     1       7.391  -1.212   3.114  0.00  0.00    -0.174 OA
ATOM     31  C   UNL     1       4.858  -1.297   2.280  0.00  0.00    +0.188 C 
ENDBRANCH  23  25
ENDBRANCH  20  21
ENDBRANCH  17  20
ENDBRANCH   1  17
TORSDOF 7
