REMARK  Name = ZINC27563225
REMARK  12 active torsions:
REMARK  status: ('A' for Active; 'I' for Inactive)
REMARK    1  A    between atoms: C_1  and  C_2
REMARK    2  A    between atoms: C_2  and  C_3
REMARK    3  A    between atoms: C_7  and  C_28
REMARK    4  A    between atoms: C_8  and  N_9
REMARK    5  A    between atoms: C_10  and  C_12
REMARK    6  A    between atoms: C_12  and  N_13
REMARK    7  A    between atoms: N_13  and  C_14
REMARK    8  A    between atoms: N_13  and  C_16
REMARK    9  A    between atoms: C_14  and  C_15
REMARK   10  A    between atoms: C_16  and  C_17
REMARK   11  A    between atoms: N_19  and  C_20
REMARK   12  A    between atoms: C_28  and  C_29
REMARK                            x       y       z     vdW  Elec       q    Type
REMARK                         _______ _______ _______ _____ _____    ______ ____
ROOT
ATOM      1  N   UNL     1       0.750  -2.172   2.717  0.00  0.00    +0.391 N 
ATOM      2  H   UNL     1       0.607  -3.135   2.205  0.00  0.00    -0.080 HD
ENDROOT
BRANCH   1   3
ATOM      3  C   UNL     1      -0.547  -1.483   2.753  0.00  0.00    -0.081 C 
ATOM      4  C   UNL     1      -1.265  -1.677   1.415  0.00  0.00    -0.017 C 
ENDBRANCH   1   3
BRANCH   1   5
ATOM      5  C   UNL     1       1.737  -1.397   1.954  0.00  0.00    +0.020 C 
BRANCH   5   7
ATOM      6  N   UNL     1       3.935  -1.795   0.893  0.00  0.00    -0.287 N 
ATOM      7  C   UNL     1       2.843  -2.310   1.492  0.00  0.00    +0.201 C 
ATOM      8  O   UNL     1       2.751  -3.507   1.659  0.00  0.00    -0.278 OA
ATOM      9  H   UNL     1       4.056  -0.705   0.812  0.00  0.00    +0.155 HD
BRANCH   6  15
ATOM     10  C   UNL     1       4.868  -3.032  -0.961  0.00  0.00    -0.026 A 
ATOM     11  C   UNL     1       5.834  -3.878  -1.469  0.00  0.00    +0.005 A 
ATOM     12  C   UNL     1       6.854  -4.334  -0.654  0.00  0.00    +0.001 A 
ATOM     13  C   UNL     1       6.904  -3.953   0.675  0.00  0.00    +0.005 A 
ATOM     14  C   UNL     1       5.938  -3.111   1.190  0.00  0.00    -0.026 A 
ATOM     15  C   UNL     1       4.916  -2.647   0.373  0.00  0.00    +0.040 A 
BRANCH  10  17
ATOM     16  C   UNL     1       4.138  -1.158  -2.412  0.00  0.00    +0.009 C 
ATOM     17  C   UNL     1       3.760  -2.530  -1.851  0.00  0.00    +0.033 C 
ENDBRANCH  10  17
BRANCH  14  18
ATOM     18  C   UNL     1       5.993  -2.697   2.638  0.00  0.00    +0.033 C 
ATOM     19  C   UNL     1       5.861  -3.935   3.528  0.00  0.00    +0.009 C 
ENDBRANCH  14  18
ENDBRANCH   6  15
ENDBRANCH   5   7
ENDBRANCH   1   5
BRANCH   1  20
ATOM     20  C   UNL     1       1.235  -2.452   4.075  0.00  0.00    +0.020 C 
BRANCH  20  21
ATOM     21  C   UNL     1       0.319  -3.446   4.742  0.00  0.00    +0.201 C 
ATOM     22  O   UNL     1      -0.644  -3.879   4.144  0.00  0.00    -0.278 OA
ATOM     23  N   UNL     1       0.569  -3.853   6.002  0.00  0.00    -0.285 N 
ATOM     24  H   UNL     1       1.388  -3.396   6.575  0.00  0.00    +0.155 HD
BRANCH  23  25
ATOM     25  C   UNL     1      -0.215  -4.859   6.581  0.00  0.00    +0.070 A 
ATOM     26  C   UNL     1      -1.393  -4.531   7.239  0.00  0.00    +0.064 A 
ATOM     27  C   UNL     1      -2.167  -5.527   7.806  0.00  0.00    +0.022 A 
ATOM     28  C   UNL     1      -1.764  -6.847   7.726  0.00  0.00    +0.003 A 
ATOM     29  C   UNL     1      -0.589  -7.177   7.076  0.00  0.00    +0.022 A 
ATOM     30  C   UNL     1       0.187  -6.187   6.503  0.00  0.00    +0.064 A 
ATOM     31 CL   UNL     1       1.662  -6.601   5.687  0.00  0.00    -0.082 Cl
ATOM     32 CL   UNL     1      -1.897  -2.873   7.346  0.00  0.00    -0.082 Cl
ENDBRANCH  23  25
ENDBRANCH  20  21
ENDBRANCH   1  20
TORSDOF 9
