REMARK  Name = ZINC14019679
REMARK  8 active torsions:
REMARK  status: ('A' for Active; 'I' for Inactive)
REMARK    1  A    between atoms: C_3  and  S_27
REMARK    2  A    between atoms: C_6  and  C_7
REMARK    3  A    between atoms: C_7  and  C_8
REMARK    4  A    between atoms: C_8  and  N_9
REMARK    5  A    between atoms: C_10  and  C_12
REMARK    6  A    between atoms: C_12  and  N_65
REMARK    7  A    between atoms: C_15  and  C_18
REMARK    8  A    between atoms: S_27  and  N_30
REMARK                            x       y       z     vdW  Elec       q    Type
REMARK                         _______ _______ _______ _____ _____    ______ ____
ROOT
ATOM      1  N   UNL     1       1.558  -1.477  -4.497  0.00  0.00    -0.317 N 
ATOM      2  C   UNL     1       0.855  -0.801  -5.427  0.00  0.00    +0.196 C 
ATOM      3  O   UNL     1       0.523  -1.351  -6.455  0.00  0.00    -0.278 OA
ATOM      4  H   UNL     1       1.824  -1.037  -3.675  0.00  0.00    +0.149 HD
ENDROOT
BRANCH   1   5
ATOM      5  C   UNL     1       1.921  -2.878  -4.729  0.00  0.00    +0.109 C 
BRANCH   5   6
ATOM      6  C   UNL     1       2.710  -3.405  -3.528  0.00  0.00    +0.054 C 
BRANCH   6  12
ATOM      7  C   UNL     1       2.237  -5.856  -3.353  0.00  0.00    +0.005 A 
ATOM      8  C   UNL     1       2.577  -7.178  -3.576  0.00  0.00    +0.029 A 
ATOM      9  C   UNL     1       3.769  -7.488  -4.203  0.00  0.00    +0.105 A 
ATOM     10  C   UNL     1       4.619  -6.477  -4.612  0.00  0.00    +0.029 A 
ATOM     11  C   UNL     1       4.276  -5.156  -4.393  0.00  0.00    +0.005 A 
ATOM     12  C   UNL     1       3.084  -4.845  -3.767  0.00  0.00    -0.046 A 
BRANCH   9  13
ATOM     13  S   UNL     1       4.206  -9.172  -4.483  0.00  0.00    +0.056 S 
ATOM     14  O   UNL     1       2.991  -9.909  -4.497  0.00  0.00    -0.153 OA
ATOM     15  O   UNL     1       5.115  -9.180  -5.575  0.00  0.00    -0.153 OA
BRANCH  13  16
ATOM     16  N   UNL     1       5.055  -9.684  -3.156  0.00  0.00    -0.204 NA
ATOM     17  H   UNL     1       5.018 -10.616  -2.887  0.00  0.00    +0.144 HD
ATOM     18  H   UNL     1       5.588  -9.053  -2.649  0.00  0.00    +0.144 HD
ENDBRANCH  13  16
ENDBRANCH   9  13
ENDBRANCH   6  12
ENDBRANCH   5   6
ENDBRANCH   1   5
BRANCH   2  19
ATOM     19  C   UNL     1       0.481   0.639  -5.189  0.00  0.00    +0.019 C 
BRANCH  19  25
ATOM     20  C   UNL     1      -0.753   2.501  -6.122  0.00  0.00    -0.077 C 
ATOM     21  C   UNL     1      -1.538   2.970  -7.349  0.00  0.00    -0.006 C 
ATOM     22  C   UNL     1      -0.595   3.049  -8.553  0.00  0.00    +0.072 C 
ATOM     23  C   UNL     1       0.042   1.675  -8.782  0.00  0.00    -0.006 C 
ATOM     24  C   UNL     1       0.781   1.243  -7.514  0.00  0.00    -0.077 C 
ATOM     25  N   UNL     1      -0.186   1.164  -6.398  0.00  0.00    +0.385 N 
ATOM     26  H   UNL     1      -0.947   0.527  -6.662  0.00  0.00    -0.081 HD
BRANCH  22  27
ATOM     27  C   UNL     1      -1.375   3.453  -9.778  0.00  0.00    +0.219 C 
ATOM     28  O   UNL     1      -1.770   2.606 -10.552  0.00  0.00    -0.275 OA
ATOM     29  N   UNL     1      -1.634   4.754 -10.013  0.00  0.00    -0.301 N 
ATOM     30  C   UNL     1      -2.271   5.120 -11.258  0.00  0.00    +0.108 C 
ATOM     31  C   UNL     1      -1.201   5.379 -12.339  0.00  0.00    +0.019 C 
ATOM     32  C   UNL     1      -0.482   6.631 -12.056  0.00  0.00    +0.002 C 
ATOM     33  C   UNL     1       0.297   6.625 -10.745  0.00  0.00    +0.002 C 
ATOM     34  C   UNL     1      -0.624   7.009  -9.614  0.00  0.00    +0.019 C 
ATOM     35  C   UNL     1      -1.250   5.748  -8.991  0.00  0.00    +0.108 C 
ENDBRANCH  22  27
ENDBRANCH  19  25
ENDBRANCH   2  19
TORSDOF 8
