REMARK  Name = ZINC06408565
REMARK  8 active torsions:
REMARK  status: ('A' for Active; 'I' for Inactive)
REMARK    1  A    between atoms: C_1  and  C_2
REMARK    2  A    between atoms: C_9  and  C_14
REMARK    3  A    between atoms: C_14  and  C_16
REMARK    4  A    between atoms: C_14  and  N_67
REMARK    5  A    between atoms: N_20  and  C_21
REMARK    6  A    between atoms: C_21  and  C_22
REMARK    7  A    between atoms: C_21  and  C_23
REMARK    8  A    between atoms: C_21  and  C_24
REMARK                            x       y       z     vdW  Elec       q    Type
REMARK                         _______ _______ _______ _____ _____    ______ ____
ROOT
ATOM      1  C   UNL     1       1.574   3.700  -0.149  0.00  0.00    +0.039 C 
ENDROOT
BRANCH   1  16
ATOM      2  C   UNL     1       0.307   1.659   0.161  0.00  0.00    -0.058 C 
ATOM      3  C   UNL     1       0.420   0.135   0.237  0.00  0.00    +0.088 C 
ATOM      4  N   UNL     1       1.286  -0.234   1.365  0.00  0.00    -0.313 N 
ATOM      5  C   UNL     1       2.627   0.347   1.208  0.00  0.00    +0.088 C 
ATOM      6  C   UNL     1       2.514   1.871   1.132  0.00  0.00    -0.058 C 
ATOM      7  C   UNL     1       1.355  -1.605   1.508  0.00  0.00    +0.162 A 
ATOM      8  N   UNL     1       2.022  -2.308   2.395  0.00  0.00    -0.225 NA
ATOM      9  C   UNL     1       1.997  -3.659   2.417  0.00  0.00    +0.080 A 
ATOM     10  C   UNL     1       2.663  -4.529   3.310  0.00  0.00    +0.029 A 
ATOM     11  C   UNL     1       2.529  -5.888   3.194  0.00  0.00    +0.002 A 
ATOM     12  C   UNL     1       1.740  -6.457   2.204  0.00  0.00    +0.001 A 
ATOM     13  C   UNL     1       1.074  -5.635   1.314  0.00  0.00    +0.017 A 
ATOM     14  C   UNL     1       1.203  -4.273   1.423  0.00  0.00    +0.041 A 
ATOM     15  S   UNL     1       0.552  -2.875   0.540  0.00  0.00    -0.052 S 
ATOM     16  N   UNL     1       1.659   2.229  -0.020  0.00  0.00    +0.391 N 
ATOM     17  H   UNL     1       2.073   1.842  -0.876  0.00  0.00    -0.080 HD
ENDBRANCH   1  16
BRANCH   1  26
ATOM     18  C   UNL     1       6.833   8.354   2.360  0.00  0.00    +0.044 C 
ATOM     19  C   UNL     1       6.380   7.268   1.419  0.00  0.00    -0.050 A 
ATOM     20  C   UNL     1       7.263   6.763   0.475  0.00  0.00    +0.005 A 
ATOM     21  C   UNL     1       6.871   5.769  -0.395  0.00  0.00    +0.026 A 
ATOM     22  C   UNL     1       5.575   5.267  -0.330  0.00  0.00    +0.049 A 
ATOM     23  C   UNL     1       4.682   5.782   0.628  0.00  0.00    -0.001 A 
ATOM     24  C   UNL     1       5.103   6.790   1.502  0.00  0.00    +0.013 A 
ATOM     25  C   UNL     1       3.318   5.251   0.685  0.00  0.00    +0.017 A 
ATOM     26  C   UNL     1       2.968   4.271  -0.184  0.00  0.00    +0.011 A 
ATOM     27  C   UNL     1       3.902   3.789  -1.126  0.00  0.00    +0.251 A 
ATOM     28  O   UNL     1       3.565   2.911  -1.901  0.00  0.00    -0.268 OA
ATOM     29  N   UNL     1       5.155   4.274  -1.189  0.00  0.00    -0.322 N 
ATOM     30  H   UNL     1       5.772   3.920  -1.849  0.00  0.00    +0.169 HD
ENDBRANCH   1  26
BRANCH   1  31
ATOM     31  C   UNL     1       0.861   4.035  -1.434  0.00  0.00    +0.143 A 
ATOM     32  N   UNL     1       1.135   3.567  -2.627  0.00  0.00    -0.115 NA
ATOM     33  N   UNL     1       0.303   4.089  -3.460  0.00  0.00    -0.023 NA
ATOM     34  N   UNL     1      -0.490   4.884  -2.831  0.00  0.00    -0.043 NA
ATOM     35  N   UNL     1      -0.178   4.879  -1.579  0.00  0.00    -0.225 N 
BRANCH  35  36
ATOM     36  C   UNL     1      -0.832   5.646  -0.516  0.00  0.00    +0.059 C 
ATOM     37  C   UNL     1       0.201   6.534   0.181  0.00  0.00    +0.036 C 
ATOM     38  C   UNL     1      -1.931   6.521  -1.121  0.00  0.00    +0.036 C 
ATOM     39  C   UNL     1      -1.447   4.684   0.502  0.00  0.00    +0.036 C 
ENDBRANCH  35  36
ENDBRANCH   1  31
TORSDOF 4
