REMARK  Name = ZINC03638740
REMARK  15 active torsions:
REMARK  status: ('A' for Active; 'I' for Inactive)
REMARK    1  A    between atoms: C_1  and  C_2
REMARK    2  A    between atoms: C_2  and  C_3
REMARK    3  A    between atoms: C_3  and  N_70
REMARK    4  A    between atoms: C_4  and  C_5
REMARK    5  A    between atoms: C_4  and  N_70
REMARK    6  A    between atoms: C_5  and  C_6
REMARK    7  A    between atoms: C_7  and  C_8
REMARK    8  A    between atoms: C_7  and  N_70
REMARK    9  A    between atoms: C_8  and  C_9
REMARK   10  A    between atoms: C_9  and  N_10
REMARK   11  A    between atoms: C_11  and  C_13
REMARK   12  A    between atoms: N_19  and  C_24
REMARK   13  A    between atoms: C_24  and  C_25
REMARK   14  A    between atoms: C_27  and  C_32
REMARK   15  A    between atoms: C_30  and  C_31
REMARK                            x       y       z     vdW  Elec       q    Type
REMARK                         _______ _______ _______ _____ _____    ______ ____
ROOT
ATOM      1  C   UNL     1      -0.690   4.921  -1.222  0.00  0.00    +0.039 A 
ATOM      2  C   UNL     1      -0.857   3.573  -1.556  0.00  0.00    +0.014 A 
ATOM      3  C   UNL     1       0.242   2.747  -1.635  0.00  0.00    +0.017 A 
ATOM      4  C   UNL     1       1.512   3.253  -1.393  0.00  0.00    +0.030 A 
ATOM      5  C   UNL     1       1.694   4.599  -1.060  0.00  0.00    +0.051 A 
ATOM      6  C   UNL     1       0.588   5.429  -0.978  0.00  0.00    +0.037 A 
ATOM      7  N   UNL     1       2.960   5.122  -0.807  0.00  0.00    -0.265 N 
ATOM      8  C   UNL     1       4.119   4.611  -1.215  0.00  0.00    +0.230 C 
ATOM      9  O   UNL     1       5.139   5.196  -0.917  0.00  0.00    -0.274 OA
ATOM     10  C   UNL     1       4.234   3.348  -2.023  0.00  0.00    +0.170 C 
ATOM     11  S   UNL     1       2.924   2.199  -1.504  0.00  0.00    -0.114 S 
ENDROOT
BRANCH   1  13
ATOM     12  N   UNL     1      -3.083   5.349  -1.480  0.00  0.00    -0.311 N 
ATOM     13  C   UNL     1      -1.865   5.808  -1.133  0.00  0.00    +0.244 C 
ATOM     14  O   UNL     1      -1.734   6.953  -0.746  0.00  0.00    -0.270 OA
ATOM     15  H   UNL     1      -3.188   4.436  -1.789  0.00  0.00    +0.149 HD
BRANCH  12  16
ATOM     16  C   UNL     1      -4.250   6.230  -1.392  0.00  0.00    +0.102 C 
BRANCH  16  17
ATOM     17  C   UNL     1      -5.499   5.469  -1.841  0.00  0.00    +0.000 C 
BRANCH  17  18
ATOM     18  C   UNL     1      -6.718   6.390  -1.748  0.00  0.00    -0.077 C 
BRANCH  18  19
ATOM     19  N   UNL     1      -7.912   5.647  -2.205  0.00  0.00    +0.380 N 
ATOM     20  H   UNL     1      -7.715   5.232  -3.123  0.00  0.00    -0.082 HD
BRANCH  19  21
ATOM     21  C   UNL     1      -8.232   4.567  -1.248  0.00  0.00    -0.079 C 
BRANCH  21  23
ATOM     22  C   UNL     1      -8.846   4.018   1.111  0.00  0.00    +0.002 C 
ATOM     23  C   UNL     1      -8.631   5.153   0.108  0.00  0.00    -0.022 C 
ENDBRANCH  21  23
ENDBRANCH  19  21
BRANCH  19  24
ATOM     24  C   UNL     1      -9.061   6.568  -2.331  0.00  0.00    -0.079 C 
BRANCH  24  25
ATOM     25  C   UNL     1     -10.216   5.826  -3.008  0.00  0.00    -0.022 C 
ATOM     26  C   UNL     1     -11.352   6.808  -3.300  0.00  0.00    +0.002 C 
ENDBRANCH  24  25
ENDBRANCH  19  24
ENDBRANCH  18  19
ENDBRANCH  17  18
ENDBRANCH  16  17
ENDBRANCH  12  16
ENDBRANCH   1  13
BRANCH   7  27
ATOM     27  C   UNL     1       3.022   6.354  -0.017  0.00  0.00    +0.149 C 
BRANCH  27  28
ATOM     28  C   UNL     1       2.623   6.058   1.406  0.00  0.00    -0.027 A 
ATOM     29  C   UNL     1       1.314   6.243   1.810  0.00  0.00    +0.008 A 
ATOM     30  C   UNL     1       0.947   5.968   3.114  0.00  0.00    -0.050 A 
ATOM     31  C   UNL     1       1.892   5.517   4.017  0.00  0.00    +0.003 A 
ATOM     32  C   UNL     1       3.202   5.336   3.614  0.00  0.00    +0.004 A 
ATOM     33  C   UNL     1       3.568   5.608   2.309  0.00  0.00    -0.046 A 
ATOM     34  C   UNL     1       4.996   5.412   1.870  0.00  0.00    +0.044 C 
ATOM     35  C   UNL     1      -0.481   6.164   3.552  0.00  0.00    +0.044 C 
ENDBRANCH  27  28
ENDBRANCH   7  27
TORSDOF 11
