REMARK  Name = ZINC43548640
REMARK  13 active torsions:
REMARK  status: ('A' for Active; 'I' for Inactive)
REMARK    1  A    between atoms: C_1  and  C_2
REMARK    2  A    between atoms: C_2  and  C_3
REMARK    3  A    between atoms: C_3  and  C_4
REMARK    4  A    between atoms: C_4  and  N_5
REMARK    5  A    between atoms: C_12  and  C_35
REMARK    6  A    between atoms: C_15  and  C_25
REMARK    7  A    between atoms: C_17  and  O_24
REMARK    8  A    between atoms: C_21  and  C_23
REMARK    9  A    between atoms: C_25  and  C_27
REMARK   10  A    between atoms: C_25  and  C_28
REMARK   11  A    between atoms: N_30  and  C_31
REMARK   12  A    between atoms: N_30  and  C_32
REMARK   13  A    between atoms: C_32  and  C_33
REMARK                            x       y       z     vdW  Elec       q    Type
REMARK                         _______ _______ _______ _____ _____    ______ ____
ROOT
ATOM      1  N   UNL     1       2.905  -1.829  -0.084  0.00  0.00    -0.325 N 
ATOM      2  C   UNL     1       2.680  -3.109   0.399  0.00  0.00    +0.136 A 
ATOM      3  N   UNL     1       2.931  -3.586   1.598  0.00  0.00    -0.340 N 
ATOM      4  C   UNL     1       2.659  -4.848   1.924  0.00  0.00    +0.031 A 
ATOM      5  C   UNL     1       2.109  -5.589   0.929  0.00  0.00    +0.013 A 
ATOM      6  S   UNL     1       2.010  -4.429  -0.406  0.00  0.00    -0.059 S 
ATOM      7  C   UNL     1       1.697  -7.019   0.980  0.00  0.00    +0.051 C 
ATOM      8  C   UNL     1       1.630  -7.461   2.453  0.00  0.00    -0.022 C 
ATOM      9  C   UNL     1       1.613  -8.996   2.486  0.00  0.00    +0.008 C 
ATOM     10  C   UNL     1       2.838  -9.522   1.734  0.00  0.00    +0.007 C 
ATOM     11  C   UNL     1       4.117  -9.017   2.404  0.00  0.00    +0.029 C 
ATOM     12  C   UNL     1       4.125  -7.486   2.412  0.00  0.00    +0.123 C 
ATOM     13  C   UNL     1       2.898  -6.984   3.169  0.00  0.00    +0.033 C 
ATOM     14  C   UNL     1       2.920  -5.464   3.290  0.00  0.00    +0.039 C 
ATOM     15  C   UNL     1       1.835  -5.012   4.269  0.00  0.00    +0.014 C 
ATOM     16  C   UNL     1       0.384  -6.886   3.128  0.00  0.00    +0.012 C 
ATOM     17  H   UNL     1       3.301  -1.157   0.491  0.00  0.00    +0.148 HD
ATOM     18  H   UNL     1       3.327  -3.002   2.264  0.00  0.00    +0.167 HD
ENDROOT
BRANCH  12  19
ATOM     19  O   UNL     1       4.091  -7.000   1.068  0.00  0.00    -0.391 OA
ATOM     20  H   UNL     1       4.840  -7.287   0.527  0.00  0.00    +0.210 HD
ENDBRANCH  12  19
BRANCH  11  21
ATOM     21  C   UNL     1       5.333  -9.528   1.629  0.00  0.00    +0.078 C 
ATOM     22  C   UNL     1       5.329 -11.058   1.625  0.00  0.00    +0.017 C 
BRANCH  21  23
ATOM     23  C   UNL     1       6.593  -9.030   2.289  0.00  0.00    +0.219 C 
ATOM     24  O   UNL     1       6.533  -8.449   3.351  0.00  0.00    -0.275 OA
ATOM     25  N   UNL     1       7.788  -9.232   1.698  0.00  0.00    -0.293 N 
ATOM     26  C   UNL     1       7.852  -9.817   0.356  0.00  0.00    +0.133 C 
BRANCH  25  27
ATOM     27  C   UNL     1       9.022  -8.867   2.397  0.00  0.00    +0.196 C 
BRANCH  27  28
ATOM     28  C   UNL     1       9.496 -10.015   3.188  0.00  0.00    -0.086 C 
ATOM     29  C   UNL     1       9.874 -10.930   3.819  0.00  0.00    +0.005 C 
ENDBRANCH  27  28
ENDBRANCH  25  27
ENDBRANCH  21  23
ENDBRANCH  11  21
BRANCH   1  30
ATOM     30  C   UNL     1       2.545  -1.493  -1.464  0.00  0.00    +0.103 C 
BRANCH  30  31
ATOM     31  C   UNL     1       2.895  -0.029  -1.740  0.00  0.00    +0.018 C 
BRANCH  31  33
ATOM     32  C   UNL     1       2.869   1.785  -3.457  0.00  0.00    +0.004 C 
ATOM     33  C   UNL     1       2.518   0.322  -3.181  0.00  0.00    -0.002 C 
ENDBRANCH  31  33
ENDBRANCH  30  31
ENDBRANCH   1  30
TORSDOF 8
