REMARK  Name = ZINC39852369
REMARK  8 active torsions:
REMARK  status: ('A' for Active; 'I' for Inactive)
REMARK    1  A    between atoms: C_4  and  O_7
REMARK    2  A    between atoms: O_7  and  C_8
REMARK    3  A    between atoms: C_8  and  C_9
REMARK    4  A    between atoms: N_11  and  N_12
REMARK    5  A    between atoms: C_13  and  C_15
REMARK    6  A    between atoms: C_18  and  N_21
REMARK    7  A    between atoms: C_22  and  C_30
REMARK    8  A    between atoms: C_24  and  C_26
REMARK                            x       y       z     vdW  Elec       q    Type
REMARK                         _______ _______ _______ _____ _____    ______ ____
ROOT
ATOM      1  C   UNL     1       8.250  -5.882  -0.810  0.00  0.00    +0.038 A 
ATOM      2  C   UNL     1       9.433  -5.139  -0.850  0.00  0.00    +0.015 A 
ATOM      3  C   UNL     1      10.646  -5.769  -0.684  0.00  0.00    +0.028 A 
ATOM      4  C   UNL     1      10.695  -7.144  -0.478  0.00  0.00    +0.066 A 
ATOM      5  C   UNL     1       9.520  -7.887  -0.438  0.00  0.00    +0.028 A 
ATOM      6  C   UNL     1       8.303  -7.262  -0.597  0.00  0.00    +0.015 A 
ENDROOT
BRANCH   4   7
ATOM      7  N   UNL     1      11.927  -7.780  -0.311  0.00  0.00    -0.231 N 
ATOM      8  C   UNL     1      12.962  -7.342   0.470  0.00  0.00    +0.082 A 
ATOM      9  C   UNL     1      13.980  -8.264   0.346  0.00  0.00    +0.063 A 
ATOM     10  C   UNL     1      13.542  -9.265  -0.522  0.00  0.00    +0.166 A 
ATOM     11  N   UNL     1      12.323  -8.983  -0.908  0.00  0.00    -0.162 NA
BRANCH   8  12
ATOM     12  C   UNL     1      12.984  -6.118   1.288  0.00  0.00    +0.038 A 
ATOM     13  C   UNL     1      14.062  -5.428   1.782  0.00  0.00    +0.017 A 
ATOM     14  C   UNL     1      13.835  -4.295   2.531  0.00  0.00    +0.008 A 
ATOM     15  C   UNL     1      12.556  -3.896   2.757  0.00  0.00    +0.046 A 
ATOM     16  S   UNL     1      11.616  -5.140   1.888  0.00  0.00    -0.095 S 
ENDBRANCH   8  12
BRANCH  10  17
ATOM     17  C   UNL     1      14.338 -10.474  -0.941  0.00  0.00    +0.436 C 
ATOM     18  F   UNL     1      14.097 -11.523  -0.047  0.00  0.00    -0.164 F 
ATOM     19  F   UNL     1      13.954 -10.862  -2.229  0.00  0.00    -0.164 F 
ATOM     20  F   UNL     1      15.701 -10.160  -0.935  0.00  0.00    -0.164 F 
ENDBRANCH  10  17
ENDBRANCH   4   7
BRANCH   1  22
ATOM     21  N   UNL     1       6.899  -3.879  -1.192  0.00  0.00    -0.230 N 
ATOM     22  C   UNL     1       6.947  -5.210  -0.986  0.00  0.00    +0.260 C 
ATOM     23  O   UNL     1       5.919  -5.857  -0.946  0.00  0.00    -0.269 OA
ATOM     24  H   UNL     1       7.719  -3.362  -1.223  0.00  0.00    +0.173 HD
BRANCH  21  27
ATOM     25  C   UNL     1       5.614  -1.909  -1.564  0.00  0.00    +0.267 C 
ATOM     26  O   UNL     1       6.639  -1.264  -1.604  0.00  0.00    -0.271 OA
ATOM     27  N   UNL     1       5.662  -3.241  -1.359  0.00  0.00    -0.231 N 
ATOM     28  H   UNL     1       4.842  -3.757  -1.327  0.00  0.00    +0.173 HD
BRANCH  25  29
ATOM     29  C   UNL     1       4.284  -1.223  -1.744  0.00  0.00    +0.326 C 
BRANCH  29  30
ATOM     30  O   UNL     1       4.493   0.176  -1.945  0.00  0.00    -0.483 OA
BRANCH  30  34
ATOM     31  C   UNL     1       1.138   2.512  -2.493  0.00  0.00    +0.000 A 
ATOM     32  C   UNL     1       2.393   3.092  -2.509  0.00  0.00    +0.004 A 
ATOM     33  C   UNL     1       3.518   2.312  -2.326  0.00  0.00    +0.045 A 
ATOM     34  C   UNL     1       3.388   0.946  -2.125  0.00  0.00    +0.121 A 
ATOM     35  C   UNL     1       2.128   0.366  -2.110  0.00  0.00    +0.045 A 
ATOM     36  C   UNL     1       1.006   1.151  -2.294  0.00  0.00    +0.004 A 
ENDBRANCH  30  34
ENDBRANCH  29  30
ENDBRANCH  25  29
ENDBRANCH  21  27
ENDBRANCH   1  22
TORSDOF 8
