REMARK  Name = ZINC09722497
REMARK  12 active torsions:
REMARK  status: ('A' for Active; 'I' for Inactive)
REMARK    1  A    between atoms: C_1  and  C_2
REMARK    2  A    between atoms: C_2  and  N_72
REMARK    3  A    between atoms: C_6  and  C_8
REMARK    4  A    between atoms: C_8  and  N_9
REMARK    5  A    between atoms: C_10  and  C_12
REMARK    6  A    between atoms: N_15  and  S_18
REMARK    7  A    between atoms: S_18  and  C_21
REMARK    8  A    between atoms: C_22  and  C_36
REMARK    9  A    between atoms: C_25  and  C_26
REMARK   10  A    between atoms: C_27  and  C_28
REMARK   11  A    between atoms: C_31  and  O_34
REMARK   12  A    between atoms: O_34  and  C_35
REMARK                            x       y       z     vdW  Elec       q    Type
REMARK                         _______ _______ _______ _____ _____    ______ ____
ROOT
ATOM      1  C   UNL     1       2.064   4.120   0.298  0.00  0.00    +0.077 C 
ATOM      2  C   UNL     1       1.458   4.401   1.675  0.00  0.00    +0.030 C 
ATOM      3  C   UNL     1       2.028   3.407   2.692  0.00  0.00    +0.110 C 
ATOM      4  N   UNL     1       1.797   2.042   2.199  0.00  0.00    -0.176 NA
ATOM      5  C   UNL     1       2.265   1.690   0.851  0.00  0.00    +0.110 C 
ATOM      6  C   UNL     1       1.688   2.705  -0.147  0.00  0.00    +0.030 C 
ENDROOT
BRANCH   1   8
ATOM      7  N   UNL     1       1.931   5.064  -1.984  0.00  0.00    -0.317 N 
ATOM      8  C   UNL     1       1.532   5.118  -0.698  0.00  0.00    +0.216 C 
ATOM      9  O   UNL     1       0.746   5.970  -0.341  0.00  0.00    -0.276 OA
ATOM     10  H   UNL     1       2.559   4.383  -2.269  0.00  0.00    +0.149 HD
BRANCH   7  11
ATOM     11  C   UNL     1       1.413   6.034  -2.952  0.00  0.00    +0.089 C 
BRANCH  11  15
ATOM     12  C   UNL     1       2.693   6.886  -6.312  0.00  0.00    -0.078 C 
ATOM     13  C   UNL     1       4.003   6.829  -5.497  0.00  0.00    -0.020 C 
ATOM     14  C   UNL     1       3.621   6.137  -4.172  0.00  0.00    -0.016 C 
ATOM     15  C   UNL     1       2.112   5.834  -4.298  0.00  0.00    -0.051 C 
ATOM     16  N   UNL     1       1.648   6.808  -5.292  0.00  0.00    +0.382 N 
ATOM     17  H   UNL     1       1.520   7.726  -4.852  0.00  0.00    -0.081 HD
BRANCH  16  19
ATOM     18  C   UNL     1      -0.211   7.465  -6.795  0.00  0.00    -0.017 C 
ATOM     19  C   UNL     1       0.349   6.364  -5.892  0.00  0.00    -0.082 C 
ENDBRANCH  16  19
ENDBRANCH  11  15
ENDBRANCH   7  11
ENDBRANCH   1   8
BRANCH   4  20
ATOM     20  S   UNL     1       1.032   0.920   3.146  0.00  0.00    +0.066 S 
ATOM     21  O   UNL     1       1.215   1.333   4.493  0.00  0.00    -0.153 OA
ATOM     22  O   UNL     1       1.444  -0.356   2.677  0.00  0.00    -0.153 OA
BRANCH  20  23
ATOM     23  C   UNL     1      -0.694   1.046   2.811  0.00  0.00    +0.174 A 
ATOM     24  C   UNL     1      -1.444   0.357   1.839  0.00  0.00    +0.107 A 
ATOM     25  N   UNL     1      -2.675   0.771   1.953  0.00  0.00    -0.081 NA
ATOM     26  O   UNL     1      -2.804   1.588   2.833  0.00  0.00    -0.353 OA
ATOM     27  C   UNL     1      -1.631   1.846   3.443  0.00  0.00    +0.187 A 
ATOM     28  C   UNL     1      -0.923  -0.657   0.854  0.00  0.00    +0.071 C 
BRANCH  27  29
ATOM     29  C   UNL     1      -1.395   2.781   4.546  0.00  0.00    +0.051 C 
ATOM     30  C   UNL     1      -2.386   3.590   4.967  0.00  0.00    +0.011 C 
BRANCH  30  31
ATOM     31  C   UNL     1      -3.637   3.685   4.196  0.00  0.00    -0.025 A 
ATOM     32  C   UNL     1      -3.596   3.772   2.801  0.00  0.00    +0.011 A 
ATOM     33  C   UNL     1      -4.769   3.855   2.083  0.00  0.00    +0.046 A 
ATOM     34  C   UNL     1      -5.991   3.863   2.744  0.00  0.00    +0.120 A 
ATOM     35  C   UNL     1      -6.037   3.782   4.131  0.00  0.00    +0.046 A 
ATOM     36  C   UNL     1      -4.869   3.693   4.857  0.00  0.00    +0.011 A 
BRANCH  34  37
ATOM     37  O   UNL     1      -7.145   3.950   2.033  0.00  0.00    -0.495 OA
ATOM     38  C   UNL     1      -7.026   4.030   0.611  0.00  0.00    +0.277 C 
ENDBRANCH  34  37
ENDBRANCH  30  31
ENDBRANCH  27  29
ENDBRANCH  20  23
ENDBRANCH   4  20
TORSDOF 9
