REMARK  Name = ZINC35486906
REMARK  14 active torsions:
REMARK  status: ('A' for Active; 'I' for Inactive)
REMARK    1  A    between atoms: C_1  and  C_2
REMARK    2  A    between atoms: C_2  and  O_3
REMARK    3  A    between atoms: O_3  and  C_4
REMARK    4  A    between atoms: C_6  and  C_18
REMARK    5  A    between atoms: C_9  and  O_10
REMARK    6  A    between atoms: O_10  and  C_11
REMARK    7  A    between atoms: C_11  and  C_12
REMARK    8  A    between atoms: C_25  and  C_40
REMARK    9  A    between atoms: N_33  and  C_34
REMARK   10  A    between atoms: C_34  and  C_35
REMARK   11  A    between atoms: C_35  and  C_36
REMARK   12  A    between atoms: C_36  and  N_37
REMARK   13  A    between atoms: N_37  and  C_38
REMARK   14  A    between atoms: N_37  and  C_39
REMARK                            x       y       z     vdW  Elec       q    Type
REMARK                         _______ _______ _______ _____ _____    ______ ____
ROOT
ATOM      1  C   UNL     1       0.654  -4.954  -0.018  0.00  0.00    +0.145 C 
ATOM      2  C   UNL     1       0.879  -5.498  -1.391  0.00  0.00    +0.072 A 
ATOM      3  C   UNL     1       1.149  -4.825  -2.665  0.00  0.00    +0.199 A 
ATOM      4  O   UNL     1       1.407  -3.637  -2.750  0.00  0.00    -0.287 OA
ATOM      5  C   UNL     1       1.080  -5.728  -3.841  0.00  0.00    +0.065 A 
ATOM      6  C   UNL     1       1.116  -5.208  -5.135  0.00  0.00    +0.018 A 
ATOM      7  C   UNL     1       1.046  -6.053  -6.207  0.00  0.00    -0.050 A 
ATOM      8  C   UNL     1       0.939  -7.423  -6.012  0.00  0.00    +0.007 A 
ATOM      9  C   UNL     1       0.903  -7.953  -4.742  0.00  0.00    +0.047 A 
ATOM     10  C   UNL     1       0.977  -7.113  -3.631  0.00  0.00    +0.139 A 
ATOM     11  O   UNL     1       0.951  -7.657  -2.393  0.00  0.00    -0.450 OA
ATOM     12  C   UNL     1       0.789  -6.859  -1.319  0.00  0.00    +0.199 A 
ATOM     13  C   UNL     1       0.501  -7.230   0.078  0.00  0.00    +0.283 C 
ATOM     14  O   UNL     1       0.357  -8.368   0.480  0.00  0.00    -0.267 OA
ATOM     15  N   UNL     1       0.422  -6.123   0.846  0.00  0.00    -0.284 N 
ATOM     16  C   UNL     1       1.084  -5.495  -7.607  0.00  0.00    +0.044 C 
ENDROOT
BRANCH   1  19
ATOM     17  C   UNL     1      -1.498  -1.849   0.006  0.00  0.00    +0.162 A 
ATOM     18  C   UNL     1      -0.389  -2.680  -0.003  0.00  0.00    +0.055 A 
ATOM     19  C   UNL     1      -0.553  -4.052  -0.008  0.00  0.00    -0.019 A 
ATOM     20  C   UNL     1      -1.823  -4.600  -0.005  0.00  0.00    +0.009 A 
ATOM     21  C   UNL     1      -2.934  -3.777   0.004  0.00  0.00    +0.050 A 
ATOM     22  C   UNL     1      -2.776  -2.400   0.016  0.00  0.00    +0.162 A 
BRANCH  17  23
ATOM     23  O   UNL     1      -1.339  -0.499   0.012  0.00  0.00    -0.489 OA
BRANCH  23  25
ATOM     24  C   UNL     1      -0.019   1.526   0.010  0.00  0.00    +0.048 C 
ATOM     25  C   UNL     1       0.002  -0.004   0.002  0.00  0.00    +0.226 C 
ENDBRANCH  23  25
ENDBRANCH  17  23
BRANCH  22  26
ATOM     26  O   UNL     1      -3.868  -1.589   0.030  0.00  0.00    -0.484 OA
BRANCH  26  27
ATOM     27  C   UNL     1      -5.148  -2.225   0.039  0.00  0.00    +0.264 C 
BRANCH  27  28
ATOM     28  C   UNL     1      -6.229  -1.175   0.055  0.00  0.00    -0.010 A 
ATOM     29  C   UNL     1      -6.710  -0.696   1.259  0.00  0.00    +0.007 A 
ATOM     30  C   UNL     1      -7.702   0.266   1.274  0.00  0.00    +0.000 A 
ATOM     31  C   UNL     1      -8.213   0.750   0.084  0.00  0.00    +0.000 A 
ATOM     32  C   UNL     1      -7.732   0.272  -1.120  0.00  0.00    +0.000 A 
ATOM     33  C   UNL     1      -6.737  -0.688  -1.135  0.00  0.00    +0.007 A 
ENDBRANCH  27  28
ENDBRANCH  26  27
ENDBRANCH  22  26
ENDBRANCH   1  19
BRANCH  15  34
ATOM     34  C   UNL     1       0.153  -6.089   2.286  0.00  0.00    +0.107 C 
BRANCH  34  35
ATOM     35  C   UNL     1      -1.356  -5.994   2.521  0.00  0.00    +0.000 C 
BRANCH  35  36
ATOM     36  C   UNL     1      -1.637  -5.958   4.024  0.00  0.00    -0.078 C 
BRANCH  36  37
ATOM     37  N   UNL     1      -3.086  -5.867   4.249  0.00  0.00    +0.376 N 
ATOM     38  C   UNL     1      -3.364  -5.953   5.689  0.00  0.00    -0.097 C 
ATOM     39  C   UNL     1      -3.582  -4.585   3.731  0.00  0.00    -0.097 C 
ATOM     40  H   UNL     1      -3.549  -6.625   3.771  0.00  0.00    -0.083 HD
ENDBRANCH  36  37
ENDBRANCH  35  36
ENDBRANCH  34  35
ENDBRANCH  15  34
TORSDOF 10
