REMARK  Name = ZINC08893973
REMARK  8 active torsions:
REMARK  status: ('A' for Active; 'I' for Inactive)
REMARK    1  A    between atoms: C_1  and  C_2
REMARK    2  A    between atoms: C_5  and  N_9
REMARK    3  A    between atoms: C_6  and  C_8
REMARK    4  A    between atoms: C_10  and  C_12
REMARK    5  A    between atoms: N_14  and  C_15
REMARK    6  A    between atoms: C_15  and  C_16
REMARK    7  A    between atoms: C_16  and  C_18
REMARK    8  A    between atoms: C_16  and  N_57
REMARK                            x       y       z     vdW  Elec       q    Type
REMARK                         _______ _______ _______ _____ _____    ______ ____
ROOT
ATOM      1  C   UNL     1      -4.141   2.620  -2.393  0.00  0.00    +0.299 C 
ATOM      2  O   UNL     1      -3.796   2.031  -3.397  0.00  0.00    -0.265 OA
ATOM      3  N   UNL     1      -3.328   2.655  -1.320  0.00  0.00    -0.309 N 
ATOM      4  H   UNL     1      -3.603   3.126  -0.517  0.00  0.00    +0.149 HD
ENDROOT
BRANCH   1   6
ATOM      5  N   UNL     1      -6.282   3.269  -3.422  0.00  0.00    -0.278 N 
ATOM      6  C   UNL     1      -5.468   3.305  -2.348  0.00  0.00    +0.303 C 
ATOM      7  O   UNL     1      -5.813   3.893  -1.344  0.00  0.00    -0.265 OA
ATOM      8  H   UNL     1      -5.976   2.866  -4.249  0.00  0.00    +0.155 HD
BRANCH   5  13
ATOM      9  C   UNL     1     -11.496   5.476  -3.102  0.00  0.00    +0.044 C 
ATOM     10  C   UNL     1     -10.111   4.889  -3.187  0.00  0.00    -0.050 A 
ATOM     11  C   UNL     1      -9.473   4.456  -2.038  0.00  0.00    +0.005 A 
ATOM     12  C   UNL     1      -8.204   3.919  -2.113  0.00  0.00    +0.024 A 
ATOM     13  C   UNL     1      -7.567   3.812  -3.343  0.00  0.00    +0.037 A 
ATOM     14  C   UNL     1      -8.208   4.253  -4.494  0.00  0.00    -0.029 A 
ATOM     15  C   UNL     1      -9.480   4.785  -4.413  0.00  0.00    +0.008 A 
ATOM     16  C   UNL     1      -7.519   4.146  -5.830  0.00  0.00    +0.045 C 
ENDBRANCH   5  13
ENDBRANCH   1   6
BRANCH   3  17
ATOM     17  C   UNL     1      -2.027   1.984  -1.364  0.00  0.00    +0.094 C 
BRANCH  17  18
ATOM     18  C   UNL     1      -1.386   2.021   0.025  0.00  0.00    -0.020 C 
BRANCH  18  25
ATOM     19  C   UNL     1      -3.570   1.639   1.019  0.00  0.00    -0.078 C 
ATOM     20  C   UNL     1      -4.336   0.994   2.142  0.00  0.00    -0.019 C 
ATOM     21  C   UNL     1      -4.265   1.917   3.376  0.00  0.00    -0.002 C 
ATOM     22  C   UNL     1      -2.989   1.804   4.075  0.00  0.00    -0.002 C 
ATOM     23  C   UNL     1      -1.798   2.208   3.181  0.00  0.00    -0.019 C 
ATOM     24  C   UNL     1      -1.486   1.064   2.256  0.00  0.00    -0.078 C 
ATOM     25  N   UNL     1      -2.157   1.139   0.914  0.00  0.00    +0.385 N 
ATOM     26  H   UNL     1      -2.177   0.195   0.509  0.00  0.00    -0.081 HD
ENDBRANCH  18  25
BRANCH  18  27
ATOM     27  C   UNL     1       0.025   1.499  -0.059  0.00  0.00    -0.052 A 
ATOM     28  C   UNL     1       1.095   2.373  -0.109  0.00  0.00    +0.009 A 
ATOM     29  C   UNL     1       2.352   1.870  -0.190  0.00  0.00    +0.045 A 
ATOM     30  S   UNL     1       2.046   0.111  -0.197  0.00  0.00    -0.105 S 
ATOM     31  C   UNL     1       0.264   0.165  -0.092  0.00  0.00    +0.047 A 
ENDBRANCH  18  27
ENDBRANCH  17  18
ENDBRANCH   3  17
TORSDOF 6
