REMARK  Name = ZINC04333659
REMARK  1 active torsions:
REMARK  status: ('A' for Active; 'I' for Inactive)
REMARK    1  A    between atoms: C_4  and  C_7
REMARK                            x       y       z     vdW  Elec       q    Type
REMARK                         _______ _______ _______ _____ _____    ______ ____
ROOT
ATOM      1  C   UNL     1      -1.332   2.114   0.020  0.00  0.00    +0.031 C 
ATOM      2  C   UNL     1      -1.382   3.083  -1.144  0.00  0.00    +0.083 C 
ATOM      3  C   UNL     1      -2.629   3.938  -1.146  0.00  0.00    +0.211 C 
ATOM      4  C   UNL     1      -3.744   3.195  -1.832  0.00  0.00    +0.029 A 
ATOM      5  C   UNL     1      -4.394   2.028  -1.500  0.00  0.00    +0.010 A 
ATOM      6  C   UNL     1      -5.401   1.602  -2.362  0.00  0.00    +0.000 A 
ATOM      7  C   UNL     1      -5.734   2.312  -3.499  0.00  0.00    +0.001 A 
ATOM      8  C   UNL     1      -5.088   3.489  -3.845  0.00  0.00    +0.015 A 
ATOM      9  C   UNL     1      -4.075   3.927  -2.984  0.00  0.00    +0.068 A 
ATOM     10  C   UNL     1      -3.209   5.101  -3.043  0.00  0.00    +0.342 C 
ATOM     11  O   UNL     1      -3.237   5.944  -3.918  0.00  0.00    -0.245 OA
ATOM     12  O   UNL     1      -2.376   5.116  -1.988  0.00  0.00    -0.432 OA
ATOM     13  N   UNL     1      -3.107   4.416   0.148  0.00  0.00    -0.265 N 
ATOM     14  C   UNL     1      -4.513   4.362   0.086  0.00  0.00    +0.056 A 
ATOM     15  C   UNL     1      -5.388   5.158  -0.640  0.00  0.00    +0.025 A 
ATOM     16  C   UNL     1      -6.742   4.856  -0.542  0.00  0.00    +0.002 A 
ATOM     17  C   UNL     1      -7.196   3.814   0.239  0.00  0.00    +0.002 A 
ATOM     18  C   UNL     1      -6.330   3.020   0.980  0.00  0.00    +0.025 A 
ATOM     19  C   UNL     1      -4.973   3.320   0.901  0.00  0.00    +0.050 A 
ATOM     20  N   UNL     1      -3.898   2.736   1.560  0.00  0.00    -0.321 N 
ATOM     21  C   UNL     1      -2.760   3.672   1.355  0.00  0.00    +0.106 C 
ATOM     22  C   UNL     1      -1.465   2.907   1.316  0.00  0.00    +0.038 C 
ATOM     23  C   UNL     1      -0.251   3.837   1.421  0.00  0.00    +0.008 C 
ATOM     24  C   UNL     1      -0.321   4.615   2.734  0.00  0.00    +0.001 C 
ATOM     25  C   UNL     1      -1.579   5.477   2.722  0.00  0.00    +0.004 C 
ATOM     26  C   UNL     1      -2.822   4.637   2.545  0.00  0.00    +0.046 C 
ATOM     27  H   UNL     1      -3.892   1.898   2.049  0.00  0.00    +0.148 HD
ENDROOT
BRANCH   1  31
ATOM     28  C   UNL     1       2.394   0.025  -0.021  0.00  0.00    +0.000 A 
ATOM     29  C   UNL     1       1.238  -0.632   0.355  0.00  0.00    +0.000 A 
ATOM     30  C   UNL     1       0.032   0.045   0.371  0.00  0.00    +0.004 A 
ATOM     31  C   UNL     1      -0.017   1.378   0.010  0.00  0.00    -0.044 A 
ATOM     32  C   UNL     1       1.140   2.035  -0.366  0.00  0.00    +0.004 A 
ATOM     33  C   UNL     1       2.345   1.359  -0.382  0.00  0.00    +0.000 A 
ENDBRANCH   1  31
TORSDOF 1
