REMARK  Name = ZINC39673924
REMARK  6 active torsions:
REMARK  status: ('A' for Active; 'I' for Inactive)
REMARK    1  A    between atoms: C_1  and  C_2
REMARK    2  A    between atoms: C_4  and  C_12
REMARK    3  A    between atoms: C_12  and  C_13
REMARK    4  A    between atoms: C_13  and  N_14
REMARK    5  A    between atoms: C_15  and  C_17
REMARK    6  A    between atoms: C_28  and  C_30
REMARK                            x       y       z     vdW  Elec       q    Type
REMARK                         _______ _______ _______ _____ _____    ______ ____
ROOT
ATOM      1  C   UNL     1      -5.592   3.967   3.091  0.00  0.00    +0.100 C 
ATOM      2  C   UNL     1      -7.053   3.565   2.785  0.00  0.00    +0.121 C 
ATOM      3  N   UNL     1      -7.858   4.274   3.808  0.00  0.00    -0.296 N 
ATOM      4  C   UNL     1      -7.210   5.602   3.932  0.00  0.00    +0.115 C 
ATOM      5  C   UNL     1      -5.700   5.304   3.843  0.00  0.00    -0.004 C 
ATOM      6  C   UNL     1      -4.991   6.407   3.063  0.00  0.00    -0.010 C 
ATOM      7  C   UNL     1      -5.061   7.714   3.858  0.00  0.00    -0.082 C 
ATOM      8  N   UNL     1      -4.425   7.527   5.168  0.00  0.00    +0.379 N 
ATOM      9  C   UNL     1      -5.169   6.531   5.948  0.00  0.00    -0.082 C 
ATOM     10  C   UNL     1      -5.104   5.174   5.241  0.00  0.00    -0.010 C 
ATOM     11  C   UNL     1      -8.935   3.815   4.474  0.00  0.00    +0.247 C 
ATOM     12  O   UNL     1      -9.273   2.653   4.357  0.00  0.00    -0.270 OA
ATOM     13  H   UNL     1      -3.476   7.210   5.038  0.00  0.00    -0.086 HD
ATOM     14  H   UNL     1      -4.418   8.405   5.665  0.00  0.00    -0.086 HD
ENDROOT
BRANCH  11  15
ATOM     15  C   UNL     1      -9.706   4.724   5.348  0.00  0.00    +0.038 A 
ATOM     16  C   UNL     1      -9.619   6.107   5.172  0.00  0.00    +0.014 A 
ATOM     17  C   UNL     1     -10.340   6.951   5.990  0.00  0.00    +0.022 A 
ATOM     18  C   UNL     1     -11.151   6.430   6.985  0.00  0.00    +0.059 A 
ATOM     19  C   UNL     1     -11.242   5.059   7.165  0.00  0.00    +0.060 A 
ATOM     20  C   UNL     1     -10.530   4.204   6.348  0.00  0.00    +0.034 A 
ATOM     21 CL   UNL     1     -12.261   4.415   8.414  0.00  0.00    -0.082 Cl
ATOM     22 CL   UNL     1     -12.055   7.499   8.011  0.00  0.00    -0.082 Cl
ENDBRANCH  11  15
BRANCH   1  24
ATOM     23  N   UNL     1      -3.493   3.898   1.784  0.00  0.00    -0.315 N 
ATOM     24  C   UNL     1      -4.818   4.146   1.811  0.00  0.00    +0.218 C 
ATOM     25  O   UNL     1      -5.387   4.512   0.804  0.00  0.00    -0.275 OA
ATOM     26  H   UNL     1      -3.038   3.605   2.589  0.00  0.00    +0.149 HD
BRANCH  23  27
ATOM     27  C   UNL     1      -2.741   4.072   0.539  0.00  0.00    +0.109 C 
BRANCH  27  28
ATOM     28  C   UNL     1      -1.270   3.727   0.780  0.00  0.00    +0.056 C 
BRANCH  28  32
ATOM     29  C   UNL     1       0.129   6.333  -0.162  0.00  0.00    +0.063 C 
ATOM     30  C   UNL     1       0.113   5.028  -0.916  0.00  0.00    +0.017 A 
ATOM     31  H   UNL     1       1.208   5.479  -2.629  0.00  0.00    +0.166 HD
ATOM     32  C   UNL     1      -0.495   3.906  -0.500  0.00  0.00    -0.018 A 
ATOM     33  C   UNL     1      -0.263   2.888  -1.527  0.00  0.00    +0.003 A 
ATOM     34  C   UNL     1      -0.633   1.549  -1.668  0.00  0.00    +0.010 A 
ATOM     35  C   UNL     1      -0.248   0.851  -2.778  0.00  0.00    +0.001 A 
ATOM     36  C   UNL     1       0.510   1.463  -3.767  0.00  0.00    +0.002 A 
ATOM     37  C   UNL     1       0.886   2.783  -3.648  0.00  0.00    +0.026 A 
ATOM     38  C   UNL     1       0.505   3.512  -2.527  0.00  0.00    +0.047 A 
ATOM     39  N   UNL     1       0.711   4.814  -2.128  0.00  0.00    -0.358 N 
ENDBRANCH  28  32
ENDBRANCH  27  28
ENDBRANCH  23  27
ENDBRANCH   1  24
TORSDOF 5
