REMARK  Name = ZINC40814640
REMARK  11 active torsions:
REMARK  status: ('A' for Active; 'I' for Inactive)
REMARK    1  A    between atoms: C_1  and  C_2
REMARK    2  A    between atoms: C_6  and  C_7
REMARK    3  A    between atoms: N_9  and  C_10
REMARK    4  A    between atoms: C_12  and  C_18
REMARK    5  A    between atoms: C_12  and  C_19
REMARK    6  A    between atoms: C_14  and  C_16
REMARK    7  A    between atoms: C_14  and  C_17
REMARK    8  A    between atoms: N_24  and  N_25
REMARK    9  A    between atoms: C_26  and  C_28
REMARK   10  A    between atoms: C_28  and  C_29
REMARK   11  A    between atoms: C_32  and  N_35
REMARK                            x       y       z     vdW  Elec       q    Type
REMARK                         _______ _______ _______ _____ _____    ______ ____
ROOT
ATOM      1  C   UNL     1       0.425   1.686   0.010  0.00  0.00    +0.048 C 
ATOM      2  C   UNL     1       0.339   0.181   0.012  0.00  0.00    +0.009 A 
ATOM      3  C   UNL     1       0.279  -0.659  -1.106  0.00  0.00    +0.042 A 
ATOM      4  C   UNL     1       0.209  -1.953  -0.647  0.00  0.00    +0.115 A 
ATOM      5  O   UNL     1       0.228  -1.919   0.683  0.00  0.00    -0.454 OA
ATOM      6  C   UNL     1       0.310  -0.637   1.107  0.00  0.00    +0.193 A 
ATOM      7  C   UNL     1       0.125  -3.146  -1.565  0.00  0.00    +0.075 C 
ATOM      8  C   UNL     1      -0.379  -2.695  -2.939  0.00  0.00    +0.014 C 
ATOM      9  C   UNL     1       0.472  -1.539  -3.474  0.00  0.00    +0.058 C 
ATOM     10  C   UNL     1       0.283  -0.343  -2.552  0.00  0.00    +0.070 C 
ATOM     11  N   UNL     1       0.137   0.866  -3.001  0.00  0.00    -0.184 NA
ENDROOT
BRANCH   6  12
ATOM     12  C   UNL     1       0.357  -0.198   2.506  0.00  0.00    +0.280 C 
ATOM     13  O   UNL     1       0.428   0.988   2.770  0.00  0.00    -0.267 OA
ATOM     14  N   UNL     1       0.321  -1.108   3.499  0.00  0.00    -0.306 N 
ATOM     15  H   UNL     1       0.265  -2.054   3.289  0.00  0.00    +0.149 HD
BRANCH  14  16
ATOM     16  C   UNL     1       0.368  -0.669   4.900  0.00  0.00    +0.071 C 
ATOM     17  C   UNL     1       1.828  -0.522   5.332  0.00  0.00    +0.009 C 
ATOM     18  C   UNL     1       1.894  -0.077   6.792  0.00  0.00    -0.072 C 
ATOM     19  N   UNL     1       1.139  -0.960   7.669  0.00  0.00    +0.386 N 
ATOM     20  C   UNL     1      -0.202  -1.338   7.254  0.00  0.00    -0.072 C 
ATOM     21  C   UNL     1      -0.289  -1.730   5.783  0.00  0.00    +0.009 C 
ATOM     22  C   UNL     1      -1.222  -0.239   7.563  0.00  0.00    -0.010 C 
ATOM     23  C   UNL     1      -0.612  -2.579   8.083  0.00  0.00    -0.010 C 
ATOM     24  C   UNL     1       1.450   1.380   6.921  0.00  0.00    -0.010 C 
ATOM     25  C   UNL     1       3.377  -0.145   7.226  0.00  0.00    -0.010 C 
ATOM     26  H   UNL     1       1.685  -1.814   7.811  0.00  0.00    -0.084 HD
ATOM     27  H   UNL     1       1.080  -0.522   8.592  0.00  0.00    -0.084 HD
ENDBRANCH  14  16
ENDBRANCH   6  12
BRANCH  11  28
ATOM     28  N   UNL     1       0.150   1.107  -4.381  0.00  0.00    -0.206 N 
ATOM     29  C   UNL     1      -0.002   2.362  -4.847  0.00  0.00    +0.237 C 
ATOM     30  O   UNL     1      -0.149   3.284  -4.072  0.00  0.00    -0.274 OA
ATOM     31  H   UNL     1       0.268   0.370  -5.001  0.00  0.00    +0.177 HD
BRANCH  29  32
ATOM     32  C   UNL     1       0.012   2.622  -6.331  0.00  0.00    +0.132 C 
BRANCH  32  33
ATOM     33  C   UNL     1      -0.176   4.095  -6.586  0.00  0.00    -0.038 A 
ATOM     34  C   UNL     1      -1.448   4.614  -6.735  0.00  0.00    +0.006 A 
ATOM     35  C   UNL     1      -1.620   5.966  -6.968  0.00  0.00    +0.033 A 
ATOM     36  C   UNL     1      -0.520   6.798  -7.052  0.00  0.00    +0.126 A 
ATOM     37  C   UNL     1       0.752   6.279  -6.901  0.00  0.00    +0.033 A 
ATOM     38  C   UNL     1       0.924   4.929  -6.664  0.00  0.00    +0.006 A 
BRANCH  36  39
ATOM     39  N   UNL     1      -0.704   8.246  -7.302  0.00  0.00    +0.056 N 
ATOM     40  O   UNL     1      -1.817   8.699  -7.434  0.00  0.00    -0.126 OA
ATOM     41  O   UNL     1       0.258   8.974  -7.375  0.00  0.00    -0.126 OA
ENDBRANCH  36  39
ENDBRANCH  32  33
ENDBRANCH  29  32
ENDBRANCH  11  28
TORSDOF 6
