REMARK  Name = ZINC48801972
REMARK  5 active torsions:
REMARK  status: ('A' for Active; 'I' for Inactive)
REMARK    1  A    between atoms: C_3  and  N_12
REMARK    2  A    between atoms: C_6  and  S_7
REMARK    3  A    between atoms: S_7  and  N_10
REMARK    4  A    between atoms: N_12  and  S_13
REMARK    5  A    between atoms: S_13  and  C_16
REMARK                            x       y       z     vdW  Elec       q    Type
REMARK                         _______ _______ _______ _____ _____    ______ ____
ROOT
ATOM      1  C   UNL     1      -0.017   1.378   0.010  0.00  0.00    +0.030 A 
ATOM      2  C   UNL     1       1.169   2.088   0.002  0.00  0.00    +0.031 A 
ATOM      3  C   UNL     1       2.381   1.411  -0.013  0.00  0.00    +0.109 A 
ATOM      4  C   UNL     1       2.398   0.020  -0.021  0.00  0.00    +0.150 A 
ATOM      5  C   UNL     1       1.207  -0.683  -0.013  0.00  0.00    +0.068 A 
ATOM      6  C   UNL     1       0.002  -0.004   0.002  0.00  0.00    +0.108 A 
ATOM      7  F   UNL     1       3.575  -0.642  -0.036  0.00  0.00    -0.203 F 
ENDROOT
BRANCH   6   8
ATOM      8  S   UNL     1      -1.513  -0.904   0.012  0.00  0.00    +0.056 S 
ATOM      9  O   UNL     1      -1.221  -2.185   0.553  0.00  0.00    -0.153 OA
ATOM     10  O   UNL     1      -2.493  -0.043   0.577  0.00  0.00    -0.153 OA
BRANCH   8  11
ATOM     11  N   UNL     1      -1.949  -1.145  -1.567  0.00  0.00    -0.204 NA
ATOM     12  H   UNL     1      -1.389  -0.805  -2.283  0.00  0.00    +0.144 HD
ATOM     13  H   UNL     1      -2.764  -1.627  -1.777  0.00  0.00    +0.144 HD
ENDBRANCH   8  11
ENDBRANCH   6   8
BRANCH   3  14
ATOM     14  N   UNL     1       3.583   2.127  -0.021  0.00  0.00    -0.094 NA
BRANCH  14  15
ATOM     15  S   UNL     1       5.028   1.318  -0.039  0.00  0.00    +0.099 S 
ATOM     16  O   UNL     1       5.125   0.632   1.202  0.00  0.00    -0.148 OA
ATOM     17  O   UNL     1       5.101   0.645  -1.289  0.00  0.00    -0.148 OA
BRANCH  15  18
ATOM     18  C   UNL     1       6.304   2.532  -0.046  0.00  0.00    +0.161 A 
ATOM     19  C   UNL     1       7.649   2.357  -0.065  0.00  0.00    +0.052 A 
ATOM     20  C   UNL     1       8.469   3.470  -0.067  0.00  0.00    +0.025 A 
ATOM     21  C   UNL     1       7.905   4.703  -0.049  0.00  0.00    +0.048 A 
ATOM     22  S   UNL     1       6.163   4.312  -0.036  0.00  0.00    -0.076 S 
ATOM     23 BR   UNL     1       8.390   0.618  -0.089  0.00  0.00    -0.048 Br
ENDBRANCH  15  18
ENDBRANCH  14  15
ENDBRANCH   3  14
TORSDOF 5
