REMARK  Name = ZINC04729460
REMARK  10 active torsions:
REMARK  status: ('A' for Active; 'I' for Inactive)
REMARK    1  A    between atoms: C_1  and  C_2
REMARK    2  A    between atoms: C_2  and  C_3
REMARK    3  A    between atoms: C_6  and  C_9
REMARK    4  A    between atoms: C_11  and  C_23
REMARK    5  A    between atoms: C_13  and  C_16
REMARK    6  A    between atoms: C_21  and  O_22
REMARK    7  A    between atoms: C_26  and  O_31
REMARK    8  A    between atoms: C_27  and  O_29
REMARK    9  A    between atoms: O_29  and  C_30
REMARK   10  A    between atoms: O_31  and  C_32
REMARK                            x       y       z     vdW  Elec       q    Type
REMARK                         _______ _______ _______ _____ _____    ______ ____
ROOT
ATOM      1  C   UNL     1       4.191  -4.237  -4.316  0.00  0.00    +0.040 C 
ATOM      2  N   UNL     1       3.045  -3.789  -3.966  0.00  0.00    -0.299 NA
ATOM      3  C   UNL     1       2.507  -2.501  -4.387  0.00  0.00    +0.081 C 
ATOM      4  C   UNL     1       4.377  -2.342  -5.902  0.00  0.00    -0.028 C 
ATOM      5  C   UNL     1       5.135  -3.475  -5.204  0.00  0.00    +0.044 C 
ATOM      6  N   UNL     1       3.578  -1.626  -4.887  0.00  0.00    +0.401 N 
ATOM      7  H   UNL     1       4.186  -1.352  -4.107  0.00  0.00    -0.081 HD
ATOM      8  H   UNL     1       3.164  -0.787  -5.310  0.00  0.00    -0.081 HD
ENDROOT
BRANCH   1  12
ATOM      9  C   UNL     1       5.385  -8.058  -2.902  0.00  0.00    -0.048 A 
ATOM     10  C   UNL     1       4.152  -7.545  -2.542  0.00  0.00    +0.004 A 
ATOM     11  C   UNL     1       3.757  -6.304  -2.998  0.00  0.00    +0.010 A 
ATOM     12  C   UNL     1       4.606  -5.566  -3.824  0.00  0.00    -0.004 A 
ATOM     13  C   UNL     1       5.847  -6.092  -4.189  0.00  0.00    +0.010 A 
ATOM     14  C   UNL     1       6.231  -7.332  -3.721  0.00  0.00    +0.004 A 
BRANCH   9  16
ATOM     15  C   UNL     1       5.358 -10.489  -3.390  0.00  0.00    +0.009 C 
ATOM     16  C   UNL     1       5.809  -9.414  -2.399  0.00  0.00    +0.032 C 
ENDBRANCH   9  16
ENDBRANCH   1  12
BRANCH   4  17
ATOM     17  C   UNL     1       5.357  -1.389  -6.536  0.00  0.00    -0.019 A 
ATOM     18  C   UNL     1       5.772  -0.265  -5.849  0.00  0.00    +0.005 A 
ATOM     19  C   UNL     1       6.675   0.608  -6.428  0.00  0.00    +0.000 A 
ATOM     20  C   UNL     1       7.156   0.363  -7.702  0.00  0.00    +0.004 A 
ATOM     21  C   UNL     1       6.740  -0.756  -8.395  0.00  0.00    +0.045 A 
ATOM     22  C   UNL     1       5.838  -1.636  -7.814  0.00  0.00    +0.118 A 
BRANCH  22  23
ATOM     23  O   UNL     1       5.426  -2.738  -8.494  0.00  0.00    -0.507 OA
ATOM     24  H   UNL     1       4.636  -2.595  -9.034  0.00  0.00    +0.292 HD
ENDBRANCH  22  23
ENDBRANCH   4  17
BRANCH   3  25
ATOM     25  C   UNL     1       1.837  -1.836  -3.212  0.00  0.00    -0.037 A 
ATOM     26  C   UNL     1       1.782  -0.456  -3.140  0.00  0.00    +0.007 A 
ATOM     27  C   UNL     1       1.163   0.159  -2.068  0.00  0.00    +0.049 A 
ATOM     28  C   UNL     1       0.606  -0.608  -1.056  0.00  0.00    +0.161 A 
ATOM     29  C   UNL     1       0.662  -1.996  -1.129  0.00  0.00    +0.162 A 
ATOM     30  C   UNL     1       1.278  -2.606  -2.209  0.00  0.00    +0.053 A 
BRANCH  29  31
ATOM     31  O   UNL     1       0.112  -2.753  -0.142  0.00  0.00    -0.491 OA
ATOM     32  C   UNL     1       0.206  -4.171  -0.283  0.00  0.00    +0.277 C 
ENDBRANCH  29  31
BRANCH  28  33
ATOM     33  O   UNL     1       0.002  -0.004   0.002  0.00  0.00    -0.491 OA
ATOM     34  C   UNL     1      -0.017   1.425   0.010  0.00  0.00    +0.277 C 
ENDBRANCH  28  33
ENDBRANCH   3  25
TORSDOF 7
