REMARK  Name = ZINC40376966
REMARK  9 active torsions:
REMARK  status: ('A' for Active; 'I' for Inactive)
REMARK    1  A    between atoms: C_1  and  C_2
REMARK    2  A    between atoms: C_2  and  C_3
REMARK    3  A    between atoms: C_3  and  C_4
REMARK    4  A    between atoms: C_3  and  C_6
REMARK    5  A    between atoms: C_3  and  N_10
REMARK    6  A    between atoms: C_4  and  C_5
REMARK    7  A    between atoms: N_7  and  O_8
REMARK    8  A    between atoms: N_10  and  S_11
REMARK    9  A    between atoms: S_11  and  C_14
REMARK                            x       y       z     vdW  Elec       q    Type
REMARK                         _______ _______ _______ _____ _____    ______ ____
ROOT
ATOM      1  N   UNL     1      -0.125  -0.184   2.420  0.00  0.00    -0.177 NA
ATOM      2  H   UNL     1       0.284   0.529   2.936  0.00  0.00    +0.149 HD
ENDROOT
BRANCH   1   3
ATOM      3  S   UNL     1      -1.713  -0.582   2.670  0.00  0.00    +0.060 S 
ATOM      4  O   UNL     1      -1.773  -2.001   2.720  0.00  0.00    -0.153 OA
ATOM      5  O   UNL     1      -2.174   0.239   3.735  0.00  0.00    -0.153 OA
BRANCH   3   6
ATOM      6  C   UNL     1      -2.605  -0.090   1.232  0.00  0.00    +0.120 A 
ATOM      7  C   UNL     1      -3.223  -1.043   0.443  0.00  0.00    +0.045 A 
ATOM      8  C   UNL     1      -3.923  -0.657  -0.685  0.00  0.00    +0.020 A 
ATOM      9  C   UNL     1      -4.006   0.682  -1.024  0.00  0.00    +0.016 A 
ATOM     10  C   UNL     1      -3.389   1.634  -0.235  0.00  0.00    +0.018 A 
ATOM     11  C   UNL     1      -2.693   1.248   0.896  0.00  0.00    +0.044 A 
ATOM     12 BR   UNL     1      -1.855   2.552   1.980  0.00  0.00    -0.048 Br
ATOM     13 BR   UNL     1      -4.768  -1.960  -1.765  0.00  0.00    -0.050 Br
ENDBRANCH   3   6
ENDBRANCH   1   3
BRANCH   1  14
ATOM     14  C   UNL     1       0.663  -0.908   1.420  0.00  0.00    +0.097 C 
BRANCH  14  15
ATOM     15  C   UNL     1       2.028  -0.280   1.304  0.00  0.00    +0.153 C 
ATOM     16  N   UNL     1       3.087  -1.004   1.452  0.00  0.00    -0.075 NA
ATOM     17  N   UNL     1       2.145   1.067   1.039  0.00  0.00    -0.342 N 
ATOM     18  H   UNL     1       1.353   1.625   1.005  0.00  0.00    +0.144 HD
ATOM     19  H   UNL     1       3.020   1.457   0.887  0.00  0.00    +0.144 HD
BRANCH  16  20
ATOM     20  O   UNL     1       4.370  -0.413   1.343  0.00  0.00    -0.408 OA
ATOM     21  H   UNL     1       5.101  -1.033   1.469  0.00  0.00    +0.328 HD
ENDBRANCH  16  20
ENDBRANCH  14  15
BRANCH  14  23
ATOM     22  C   UNL     1       0.845  -1.469  -1.008  0.00  0.00    +0.006 C 
ATOM     23  C   UNL     1      -0.046  -0.842   0.066  0.00  0.00    +0.028 C 
ENDBRANCH  14  23
BRANCH  14  24
ATOM     24  C   UNL     1       0.810  -2.370   1.848  0.00  0.00    +0.028 C 
ATOM     25  C   UNL     1       1.364  -2.431   3.273  0.00  0.00    +0.006 C 
ENDBRANCH  14  24
ENDBRANCH   1  14
TORSDOF 7
