REMARK  Name = ZINC08443639
REMARK  9 active torsions:
REMARK  status: ('A' for Active; 'I' for Inactive)
REMARK    1  A    between atoms: C_1  and  C_2
REMARK    2  A    between atoms: C_2  and  C_3
REMARK    3  A    between atoms: C_2  and  C_4
REMARK    4  A    between atoms: C_2  and  C_5
REMARK    5  A    between atoms: C_12  and  N_16
REMARK    6  A    between atoms: C_13  and  C_14
REMARK    7  A    between atoms: C_17  and  C_19
REMARK    8  A    between atoms: C_24  and  C_36
REMARK    9  A    between atoms: C_27  and  C_30
REMARK                            x       y       z     vdW  Elec       q    Type
REMARK                         _______ _______ _______ _____ _____    ______ ____
ROOT
ATOM      1  C   UNL     1       7.597  -0.529  -6.411  0.00  0.00    +0.149 A 
ATOM      2  C   UNL     1       8.982  -0.345  -6.194  0.00  0.00    +0.078 A 
ATOM      3  C   UNL     1       9.607  -0.539  -7.372  0.00  0.00    +0.119 A 
ATOM      4  N   UNL     1       8.662  -0.835  -8.312  0.00  0.00    -0.238 N 
ATOM      5  N   UNL     1       7.417  -0.829  -7.685  0.00  0.00    -0.164 NA
ATOM      6  C   UNL     1       8.971  -1.106  -9.719  0.00  0.00    +0.215 C 
ATOM      7  C   UNL     1      10.361  -0.542 -10.039  0.00  0.00    +0.063 C 
ATOM      8  C   UNL     1      11.370  -1.016  -8.988  0.00  0.00    +0.104 C 
ATOM      9  N   UNL     1      10.970  -0.473  -7.674  0.00  0.00    -0.322 N 
ATOM     10  H   UNL     1      11.616  -0.093  -7.058  0.00  0.00    +0.148 HD
ENDROOT
BRANCH   8  11
ATOM     11  C   UNL     1      11.378  -2.522  -8.936  0.00  0.00    -0.027 A 
ATOM     12  C   UNL     1      10.389  -3.195  -8.244  0.00  0.00    +0.005 A 
ATOM     13  C   UNL     1      10.396  -4.576  -8.196  0.00  0.00    +0.000 A 
ATOM     14  C   UNL     1      11.393  -5.285  -8.841  0.00  0.00    +0.000 A 
ATOM     15  C   UNL     1      12.382  -4.612  -9.534  0.00  0.00    +0.000 A 
ATOM     16  C   UNL     1      12.372  -3.230  -9.585  0.00  0.00    +0.005 A 
ENDBRANCH   8  11
BRANCH   1  18
ATOM     17  N   UNL     1       5.249  -0.620  -5.728  0.00  0.00    -0.274 N 
ATOM     18  C   UNL     1       6.537  -0.413  -5.389  0.00  0.00    +0.269 C 
ATOM     19  O   UNL     1       6.826  -0.131  -4.243  0.00  0.00    -0.268 OA
ATOM     20  H   UNL     1       5.019  -0.846  -6.643  0.00  0.00    +0.156 HD
BRANCH  17  27
ATOM     21  C   UNL     1       0.718  -0.497  -1.257  0.00  0.00    -0.000 C 
ATOM     22  C   UNL     1      -0.017   0.013  -2.499  0.00  0.00    +0.009 C 
ATOM     23  C   UNL     1       0.537  -0.670  -3.751  0.00  0.00    +0.037 C 
ATOM     24  C   UNL     1       2.051  -0.516  -3.760  0.00  0.00    -0.018 A 
ATOM     25  C   UNL     1       2.731  -0.199  -2.636  0.00  0.00    -0.004 A 
ATOM     26  S   UNL     1       4.425  -0.135  -3.141  0.00  0.00    -0.077 S 
ATOM     27  C   UNL     1       4.254  -0.511  -4.769  0.00  0.00    +0.090 A 
ATOM     28  C   UNL     1       2.889  -0.689  -4.933  0.00  0.00    +0.084 A 
ATOM     29  C   UNL     1       2.158   0.038  -1.273  0.00  0.00    +0.047 C 
BRANCH  21  31
ATOM     30  C   UNL     1      -0.019   1.526   0.010  0.00  0.00    +0.011 C 
ATOM     31  C   UNL     1       0.002  -0.004   0.002  0.00  0.00    -0.035 C 
ATOM     32  C   UNL     1       0.742  -0.511   1.242  0.00  0.00    +0.011 C 
ATOM     33  C   UNL     1      -1.433  -0.534   0.013  0.00  0.00    +0.011 C 
ENDBRANCH  21  31
BRANCH  28  34
ATOM     34  C   UNL     1       2.329  -1.028  -6.206  0.00  0.00    +0.102 C 
ATOM     35  N   UNL     1       1.885  -1.297  -7.217  0.00  0.00    -0.191 NA
ENDBRANCH  28  34
ENDBRANCH  17  27
ENDBRANCH   1  18
BRANCH   6  36
ATOM     36  C   UNL     1       7.926  -0.434 -10.612  0.00  0.00    +0.412 C 
ATOM     37  F   UNL     1       7.940   0.947 -10.390  0.00  0.00    -0.168 F 
ATOM     38  F   UNL     1       8.223  -0.694 -11.954  0.00  0.00    -0.168 F 
ATOM     39  F   UNL     1       6.658  -0.943 -10.309  0.00  0.00    -0.168 F 
ENDBRANCH   6  36
TORSDOF 6
