REMARK  Name = ZINC33416239
REMARK  11 active torsions:
REMARK  status: ('A' for Active; 'I' for Inactive)
REMARK    1  A    between atoms: C_1  and  C_2
REMARK    2  A    between atoms: C_2  and  C_3
REMARK    3  A    between atoms: C_3  and  C_4
REMARK    4  A    between atoms: C_3  and  C_5
REMARK    5  A    between atoms: C_3  and  C_6
REMARK    6  A    between atoms: N_12  and  C_17
REMARK    7  A    between atoms: C_17  and  C_18
REMARK    8  A    between atoms: C_21  and  C_23
REMARK    9  A    between atoms: N_25  and  C_26
REMARK   10  A    between atoms: N_29  and  C_32
REMARK   11  A    between atoms: C_32  and  C_33
REMARK                            x       y       z     vdW  Elec       q    Type
REMARK                         _______ _______ _______ _____ _____    ______ ____
ROOT
ATOM      1  C   UNL     1       1.241   1.807  -0.000  0.00  0.00    +0.124 A 
ATOM      2  C   UNL     1       2.090   0.755  -0.014  0.00  0.00    +0.047 A 
ATOM      3  C   UNL     1       1.306  -0.409  -0.013  0.00  0.00    +0.055 A 
ATOM      4  C   UNL     1       0.002  -0.004   0.002  0.00  0.00    +0.189 A 
ATOM      5  O   UNL     1      -0.016   1.345   0.009  0.00  0.00    -0.453 OA
ENDROOT
BRANCH   4   6
ATOM      6  C   UNL     1      -1.173  -0.882   0.008  0.00  0.00    +0.280 C 
ATOM      7  O   UNL     1      -1.029  -2.090  -0.000  0.00  0.00    -0.267 OA
ATOM      8  N   UNL     1      -2.411  -0.350   0.022  0.00  0.00    -0.306 N 
ATOM      9  H   UNL     1      -2.541   0.742   0.030  0.00  0.00    +0.149 HD
BRANCH   8  10
ATOM     10  C   UNL     1      -3.585  -1.227   0.028  0.00  0.00    +0.070 C 
ATOM     11  C   UNL     1      -3.937  -1.620  -1.409  0.00  0.00    +0.004 C 
ATOM     12  C   UNL     1      -5.199  -2.485  -1.402  0.00  0.00    -0.077 C 
ATOM     13  N   UNL     1      -6.306  -1.735  -0.795  0.00  0.00    +0.382 N 
ATOM     14  C   UNL     1      -6.010  -1.388   0.601  0.00  0.00    -0.077 C 
ATOM     15  C   UNL     1      -4.772  -0.489   0.653  0.00  0.00    +0.004 C 
ATOM     16  H   UNL     1      -6.422  -0.796  -1.356  0.00  0.00    -0.081 HD
BRANCH  13  17
ATOM     17  C   UNL     1      -7.566  -2.482  -0.895  0.00  0.00    -0.043 C 
BRANCH  17  18
ATOM     18  C   UNL     1      -7.963  -2.606  -2.344  0.00  0.00    -0.064 A 
ATOM     19  C   UNL     1      -8.762  -1.641  -2.927  0.00  0.00    +0.002 A 
ATOM     20  C   UNL     1      -9.121  -1.753  -4.258  0.00  0.00    +0.000 A 
ATOM     21  C   UNL     1      -8.689  -2.834  -5.002  0.00  0.00    +0.000 A 
ATOM     22  C   UNL     1      -7.894  -3.802  -4.417  0.00  0.00    +0.000 A 
ATOM     23  C   UNL     1      -7.530  -3.688  -3.088  0.00  0.00    +0.002 A 
ENDBRANCH  17  18
ENDBRANCH  13  17
ENDBRANCH   8  10
ENDBRANCH   4   6
BRANCH   1  24
ATOM     24  C   UNL     1       1.643   3.259   0.003  0.00  0.00    +0.188 C 
BRANCH  24  31
ATOM     25  C   UNL     1      -1.549   5.235  -1.990  0.00  0.00    -0.040 A 
ATOM     26  C   UNL     1      -1.517   5.379  -3.365  0.00  0.00    +0.008 A 
ATOM     27  C   UNL     1      -0.403   4.981  -4.081  0.00  0.00    +0.048 A 
ATOM     28  C   UNL     1       0.684   4.437  -3.420  0.00  0.00    +0.143 A 
ATOM     29  C   UNL     1       0.651   4.291  -2.034  0.00  0.00    +0.079 A 
ATOM     30  C   UNL     1      -0.467   4.691  -1.322  0.00  0.00    +0.031 A 
ATOM     31  N   UNL     1       1.759   3.737  -1.377  0.00  0.00    -0.258 N 
ATOM     32  C   UNL     1       2.937   3.656  -2.033  0.00  0.00    +0.258 C 
ATOM     33  O   UNL     1       3.902   3.157  -1.494  0.00  0.00    -0.271 OA
ATOM     34  C   UNL     1       3.046   4.182  -3.442  0.00  0.00    +0.325 C 
ATOM     35  O   UNL     1       1.788   4.042  -4.108  0.00  0.00    -0.481 OA
BRANCH  25  36
ATOM     36  C   UNL     1      -2.767   5.671  -1.217  0.00  0.00    -0.010 C 
ATOM     37  C   UNL     1      -3.355   4.472  -0.472  0.00  0.00    +0.016 C 
ATOM     38  C   UNL     1      -2.371   6.753  -0.210  0.00  0.00    +0.016 C 
BRANCH  36  40
ATOM     39  C   UNL     1      -5.047   6.676  -1.400  0.00  0.00    +0.005 C 
ATOM     40  C   UNL     1      -3.811   6.233  -2.185  0.00  0.00    +0.007 C 
ENDBRANCH  36  40
ENDBRANCH  25  36
ENDBRANCH  24  31
ENDBRANCH   1  24
TORSDOF 8
