REMARK  Name = ZINC37657426
REMARK  6 active torsions:
REMARK  status: ('A' for Active; 'I' for Inactive)
REMARK    1  A    between atoms: C_1  and  C_2
REMARK    2  A    between atoms: C_2  and  C_3
REMARK    3  A    between atoms: C_2  and  S_4
REMARK    4  A    between atoms: S_4  and  N_7
REMARK    5  A    between atoms: N_7  and  C_8
REMARK    6  A    between atoms: C_9  and  C_16
REMARK                            x       y       z     vdW  Elec       q    Type
REMARK                         _______ _______ _______ _____ _____    ______ ____
ROOT
ATOM      1  C   UNL     1      -2.676  -3.070   0.287  0.00  0.00    +0.106 A 
ATOM      2  C   UNL     1      -2.912  -4.130  -0.605  0.00  0.00    +0.090 A 
ATOM      3  C   UNL     1      -4.054  -4.922  -0.449  0.00  0.00    +0.037 A 
ATOM      4  C   UNL     1      -4.939  -4.659   0.574  0.00  0.00    +0.043 A 
ATOM      5  C   UNL     1      -4.703  -3.611   1.453  0.00  0.00    +0.042 A 
ATOM      6  C   UNL     1      -3.578  -2.824   1.316  0.00  0.00    +0.068 A 
ATOM      7 CL   UNL     1      -3.291  -1.521   2.427  0.00  0.00    -0.081 Cl
ATOM      8 CL   UNL     1      -6.356  -5.644   0.765  0.00  0.00    -0.083 Cl
ENDROOT
BRANCH   2   9
ATOM      9  C   UNL     1      -1.964  -4.404  -1.695  0.00  0.00    +0.389 C 
ATOM     10  O   UNL     1      -2.173  -5.328  -2.469  0.00  0.00    -0.241 OA
ATOM     11  O   UNL     1      -0.966  -3.708  -1.828  0.00  0.00    -0.241 OA
ENDBRANCH   2   9
BRANCH   1  12
ATOM     12  N   UNL     1      -1.546  -2.276   0.144  0.00  0.00    -0.100 NA
BRANCH  12  13
ATOM     13  S   UNL     1      -1.699  -0.693  -0.319  0.00  0.00    +0.065 S 
ATOM     14  O   UNL     1      -2.300  -0.046   0.795  0.00  0.00    -0.153 OA
ATOM     15  O   UNL     1      -2.365  -0.745  -1.573  0.00  0.00    -0.153 OA
BRANCH  13  17
ATOM     16  C   UNL     1      -0.011   1.393  -0.850  0.00  0.00    +0.033 C 
ATOM     17  C   UNL     1       0.003  -0.105  -0.539  0.00  0.00    +0.147 C 
ATOM     18  C   UNL     1       0.798  -0.353   0.744  0.00  0.00    +0.033 C 
ENDBRANCH  13  17
ENDBRANCH  12  13
ENDBRANCH   1  12
TORSDOF 4
