REMARK  Name = ZINC16610069
REMARK  14 active torsions:
REMARK  status: ('A' for Active; 'I' for Inactive)
REMARK    1  A    between atoms: C_1  and  C_2
REMARK    2  A    between atoms: C_3  and  C_30
REMARK    3  A    between atoms: C_4  and  C_11
REMARK    4  A    between atoms: N_9  and  C_10
REMARK    5  A    between atoms: C_14  and  N_17
REMARK    6  A    between atoms: N_20  and  C_21
REMARK    7  A    between atoms: C_24  and  C_27
REMARK    8  A    between atoms: C_27  and  C_28
REMARK    9  A    between atoms: C_27  and  C_29
REMARK   10  A    between atoms: C_30  and  O_32
REMARK   11  A    between atoms: O_32  and  C_33
REMARK   12  A    between atoms: C_33  and  C_34
REMARK   13  A    between atoms: C_34  and  O_35
REMARK   14  A    between atoms: O_35  and  C_36
REMARK                            x       y       z     vdW  Elec       q    Type
REMARK                         _______ _______ _______ _____ _____    ______ ____
ROOT
ATOM      1  C   UNL     1      -0.688   1.537  -1.261  0.00  0.00    -0.022 A 
ATOM      2  C   UNL     1      -0.469   2.823  -1.720  0.00  0.00    +0.007 A 
ATOM      3  C   UNL     1      -1.056   3.248  -2.896  0.00  0.00    +0.024 A 
ATOM      4  C   UNL     1      -1.877   2.386  -3.611  0.00  0.00    +0.035 A 
ATOM      5  C   UNL     1      -2.099   1.097  -3.144  0.00  0.00    +0.024 A 
ATOM      6  C   UNL     1      -1.504   0.676  -1.971  0.00  0.00    +0.007 A 
ENDROOT
BRANCH   1  10
ATOM      7  C   UNL     1      -1.160   2.819   3.271  0.00  0.00    +0.061 C 
ATOM      8  C   UNL     1      -0.336   2.334   2.106  0.00  0.00    +0.021 C 
ATOM      9  C   UNL     1      -0.906   1.540   1.173  0.00  0.00    +0.078 C 
ATOM     10  C   UNL     1      -0.041   1.075   0.019  0.00  0.00    +0.141 C 
ATOM     11  N   UNL     1       1.360   1.531   0.010  0.00  0.00    -0.315 N 
ATOM     12  C   UNL     1       1.783   2.323   1.014  0.00  0.00    +0.137 C 
ATOM     13  S   UNL     1       3.409   2.860   1.017  0.00  0.00    -0.018 S 
ATOM     14  N   UNL     1       0.974   2.704   2.011  0.00  0.00    -0.289 N 
ATOM     15  C   UNL     1       1.527   3.566   3.059  0.00  0.00    +0.137 C 
ATOM     16  H   UNL     1       1.963   1.267  -0.703  0.00  0.00    +0.149 HD
BRANCH   9  17
ATOM     17  C   UNL     1      -2.263   1.156   1.270  0.00  0.00    +0.339 C 
ATOM     18  O   UNL     1      -2.939   1.542   2.206  0.00  0.00    -0.245 OA
BRANCH  17  19
ATOM     19  O   UNL     1      -2.809   0.363   0.325  0.00  0.00    -0.459 OA
BRANCH  19  20
ATOM     20  C   UNL     1      -4.186   0.014   0.487  0.00  0.00    +0.260 C 
BRANCH  20  21
ATOM     21  C   UNL     1      -4.624  -0.883  -0.672  0.00  0.00    +0.200 C 
BRANCH  21  22
ATOM     22  O   UNL     1      -3.911  -2.120  -0.613  0.00  0.00    -0.380 OA
ATOM     23  C   UNL     1      -4.248  -3.036  -1.657  0.00  0.00    +0.194 C 
ENDBRANCH  21  22
ENDBRANCH  20  21
ENDBRANCH  19  20
ENDBRANCH  17  19
ENDBRANCH   9  17
ENDBRANCH   1  10
BRANCH   4  24
ATOM     24  N   UNL     1      -2.478   2.814  -4.800  0.00  0.00    -0.269 N 
ATOM     25  C   UNL     1      -2.651   1.949  -5.818  0.00  0.00    +0.308 C 
ATOM     26  O   UNL     1      -2.362   0.777  -5.675  0.00  0.00    -0.252 OA
ATOM     27  N   UNL     1      -3.144   2.383  -6.995  0.00  0.00    -0.269 N 
ATOM     28  H   UNL     1      -2.771   3.735  -4.890  0.00  0.00    +0.156 HD
ATOM     29  H   UNL     1      -3.312   3.328  -7.132  0.00  0.00    +0.156 HD
BRANCH  27  30
ATOM     30  C   UNL     1      -3.414   1.469  -8.020  0.00  0.00    +0.035 A 
ATOM     31  C   UNL     1      -2.597   0.360  -8.197  0.00  0.00    +0.023 A 
ATOM     32  C   UNL     1      -2.869  -0.542  -9.207  0.00  0.00    +0.006 A 
ATOM     33  C   UNL     1      -3.948  -0.337 -10.047  0.00  0.00    -0.045 A 
ATOM     34  C   UNL     1      -4.761   0.769  -9.876  0.00  0.00    +0.006 A 
ATOM     35  C   UNL     1      -4.497   1.672  -8.865  0.00  0.00    +0.023 A 
BRANCH  33  36
ATOM     36  C   UNL     1      -4.239  -1.321 -11.151  0.00  0.00    +0.013 C 
ATOM     37  C   UNL     1      -3.040  -1.393 -12.098  0.00  0.00    +0.012 C 
ATOM     38  C   UNL     1      -4.496  -2.703 -10.547  0.00  0.00    +0.012 C 
ENDBRANCH  33  36
ENDBRANCH  27  30
ENDBRANCH   4  24
TORSDOF 9
