REMARK  Name = ZINC39945218
REMARK  12 active torsions:
REMARK  status: ('A' for Active; 'I' for Inactive)
REMARK    1  A    between atoms: C_1  and  C_2
REMARK    2  A    between atoms: C_4  and  C_12
REMARK    3  A    between atoms: C_12  and  C_14
REMARK    4  A    between atoms: C_14  and  C_16
REMARK    5  A    between atoms: C_14  and  O_17
REMARK    6  A    between atoms: O_17  and  C_18
REMARK    7  A    between atoms: C_18  and  C_20
REMARK    8  A    between atoms: C_22  and  S_27
REMARK    9  A    between atoms: S_27  and  N_30
REMARK   10  A    between atoms: N_30  and  C_31
REMARK   11  A    between atoms: N_30  and  C_32
REMARK   12  A    between atoms: C_32  and  C_33
REMARK                            x       y       z     vdW  Elec       q    Type
REMARK                         _______ _______ _______ _____ _____    ______ ____
ROOT
ATOM      1  C   UNL     1      -0.179  -1.918  -7.130  0.00  0.00    +0.079 A 
ATOM      2  C   UNL     1      -1.054  -0.868  -7.418  0.00  0.00    +0.045 A 
ATOM      3  C   UNL     1      -1.706  -0.830  -8.632  0.00  0.00    +0.106 A 
ATOM      4  C   UNL     1      -1.496  -1.830  -9.566  0.00  0.00    +0.030 A 
ATOM      5  C   UNL     1      -0.631  -2.873  -9.290  0.00  0.00    +0.023 A 
ATOM      6  C   UNL     1       0.034  -2.921  -8.080  0.00  0.00    +0.055 A 
ATOM      7 CL   UNL     1       1.125  -4.227  -7.737  0.00  0.00    -0.083 Cl
ENDROOT
BRANCH   3   8
ATOM      8  S   UNL     1      -2.810   0.494  -8.996  0.00  0.00    +0.061 S 
ATOM      9  O   UNL     1      -3.638   0.051 -10.062  0.00  0.00    -0.153 OA
ATOM     10  O   UNL     1      -3.340   0.934  -7.753  0.00  0.00    -0.153 OA
BRANCH   8  11
ATOM     11  N   UNL     1      -1.899   1.742  -9.591  0.00  0.00    -0.175 NA
ATOM     12  C   UNL     1      -1.244   2.675  -8.671  0.00  0.00    +0.132 C 
BRANCH  11  13
ATOM     13  C   UNL     1      -1.748   1.913 -11.038  0.00  0.00    +0.144 C 
BRANCH  13  14
ATOM     14  C   UNL     1      -2.756   2.918 -11.533  0.00  0.00    -0.032 A 
ATOM     15  C   UNL     1      -3.972   2.490 -12.033  0.00  0.00    +0.005 A 
ATOM     16  C   UNL     1      -4.896   3.412 -12.486  0.00  0.00    +0.000 A 
ATOM     17  C   UNL     1      -4.605   4.763 -12.441  0.00  0.00    +0.000 A 
ATOM     18  C   UNL     1      -3.389   5.191 -11.940  0.00  0.00    +0.000 A 
ATOM     19  C   UNL     1      -2.467   4.269 -11.482  0.00  0.00    +0.005 A 
ENDBRANCH  13  14
ENDBRANCH  11  13
ENDBRANCH   8  11
ENDBRANCH   3   8
BRANCH   1  20
ATOM     20  C   UNL     1       0.523  -1.964  -5.832  0.00  0.00    +0.341 C 
ATOM     21  O   UNL     1       1.287  -2.876  -5.587  0.00  0.00    -0.245 OA
BRANCH  20  22
ATOM     22  O   UNL     1       0.316  -0.995  -4.920  0.00  0.00    -0.450 OA
BRANCH  22  23
ATOM     23  C   UNL     1       1.028  -1.103  -3.685  0.00  0.00    +0.244 C 
ATOM     24  C   UNL     1       2.372  -0.381  -3.806  0.00  0.00    +0.061 C 
BRANCH  23  25
ATOM     25  C   UNL     1       0.218  -0.476  -2.581  0.00  0.00    +0.202 C 
ATOM     26  O   UNL     1      -0.719   0.248  -2.851  0.00  0.00    -0.288 OA
BRANCH  25  29
ATOM     27  C   UNL     1      -0.074   1.339   0.016  0.00  0.00    +0.035 C 
ATOM     28  C   UNL     1      -0.149  -0.189  -0.003  0.00  0.00    +0.111 C 
ATOM     29  C   UNL     1       0.548  -0.729  -1.232  0.00  0.00    +0.030 C 
ATOM     30  C   UNL     1       1.575  -1.524  -0.757  0.00  0.00    +0.007 A 
ATOM     31  C   UNL     1       2.571  -2.295  -1.401  0.00  0.00    +0.010 A 
ATOM     32  C   UNL     1       3.471  -2.992  -0.671  0.00  0.00    +0.001 A 
ATOM     33  C   UNL     1       3.468  -2.988   0.733  0.00  0.00    +0.002 A 
ATOM     34  C   UNL     1       2.561  -2.284   1.443  0.00  0.00    +0.026 A 
ATOM     35  C   UNL     1       1.544  -1.498   0.726  0.00  0.00    +0.043 A 
ATOM     36  N   UNL     1       0.568  -0.744   1.149  0.00  0.00    -0.377 N 
ATOM     37  H   UNL     1       0.351  -0.576   2.079  0.00  0.00    +0.160 HD
ENDBRANCH  25  29
ENDBRANCH  23  25
ENDBRANCH  22  23
ENDBRANCH  20  22
ENDBRANCH   1  20
TORSDOF 9
