REMARK  Name = ZINC38688567
REMARK  9 active torsions:
REMARK  status: ('A' for Active; 'I' for Inactive)
REMARK    1  A    between atoms: C_2  and  C_3
REMARK    2  A    between atoms: C_3  and  O_4
REMARK    3  A    between atoms: O_4  and  C_5
REMARK    4  A    between atoms: C_8  and  C_11
REMARK    5  A    between atoms: C_16  and  O_25
REMARK    6  A    between atoms: C_20  and  N_24
REMARK    7  A    between atoms: C_21  and  C_22
REMARK    8  A    between atoms: O_25  and  C_26
REMARK    9  A    between atoms: C_26  and  C_28
REMARK                            x       y       z     vdW  Elec       q    Type
REMARK                         _______ _______ _______ _____ _____    ______ ____
ROOT
ATOM      1  C   UNL     1       5.871  -4.972   1.339  0.00  0.00    +0.098 C 
ATOM      2  C   UNL     1       5.540  -6.404   1.009  0.00  0.00    +0.008 A 
ATOM      3  C   UNL     1       5.282  -6.758  -0.303  0.00  0.00    +0.012 A 
ATOM      4  C   UNL     1       4.977  -8.066  -0.624  0.00  0.00    +0.047 A 
ATOM      5  C   UNL     1       4.928  -9.031   0.372  0.00  0.00    +0.135 A 
ATOM      6  C   UNL     1       5.185  -8.680   1.687  0.00  0.00    +0.093 A 
ATOM      7  C   UNL     1       5.492  -7.363   2.008  0.00  0.00    +0.138 A 
ATOM      8  O   UNL     1       5.741  -7.036   3.300  0.00  0.00    -0.441 OA
ATOM      9  C   UNL     1       6.402  -5.902   3.588  0.00  0.00    +0.199 C 
ATOM     10  C   UNL     1       6.499  -4.888   2.701  0.00  0.00    +0.098 C 
ENDROOT
BRANCH   1  14
ATOM     11  C   UNL     1       2.289  -2.642   1.284  0.00  0.00    +0.121 A 
ATOM     12  C   UNL     1       3.330  -2.336   0.420  0.00  0.00    +0.046 A 
ATOM     13  C   UNL     1       4.487  -3.091   0.440  0.00  0.00    +0.008 A 
ATOM     14  C   UNL     1       4.608  -4.150   1.320  0.00  0.00    -0.034 A 
ATOM     15  C   UNL     1       3.571  -4.458   2.182  0.00  0.00    +0.008 A 
ATOM     16  C   UNL     1       2.415  -3.703   2.170  0.00  0.00    +0.046 A 
BRANCH  11  17
ATOM     17  O   UNL     1       1.150  -1.901   1.267  0.00  0.00    -0.488 OA
BRANCH  17  18
ATOM     18  C   UNL     1       1.091  -0.825   0.329  0.00  0.00    +0.256 C 
BRANCH  18  20
ATOM     19  C   UNL     1      -0.286   1.187   0.475  0.00  0.00    +0.007 C 
ATOM     20  C   UNL     1      -0.237  -0.122   0.455  0.00  0.00    +0.006 C 
ENDBRANCH  18  20
ENDBRANCH  17  18
ENDBRANCH  11  17
ENDBRANCH   1  14
BRANCH   9  21
ATOM     21  N   UNL     1       6.995  -5.772   4.819  0.00  0.00    -0.328 N 
ATOM     22  H   UNL     1       6.933  -6.492   5.466  0.00  0.00    +0.145 HD
ATOM     23  H   UNL     1       7.476  -4.960   5.043  0.00  0.00    +0.145 HD
ENDBRANCH   9  21
BRANCH  10  24
ATOM     24  C   UNL     1       7.218  -3.705   3.071  0.00  0.00    +0.101 C 
ATOM     25  N   UNL     1       7.788  -2.768   3.364  0.00  0.00    -0.191 NA
ENDBRANCH  10  24
BRANCH   5  26
ATOM     26  O   UNL     1       4.628 -10.318   0.058  0.00  0.00    -0.422 OA
BRANCH  26  27
ATOM     27  C   UNL     1       5.533 -11.026  -0.649  0.00  0.00    +0.353 C 
ATOM     28  O   UNL     1       6.622 -10.544  -0.895  0.00  0.00    -0.244 OA
BRANCH  27  29
ATOM     29  C   UNL     1       5.204 -12.375  -1.120  0.00  0.00    +0.116 A 
ATOM     30  C   UNL     1       5.979 -13.237  -1.835  0.00  0.00    +0.070 A 
ATOM     31  C   UNL     1       5.474 -14.500  -2.193  0.00  0.00    +0.008 A 
ATOM     32  C   UNL     1       6.120 -15.527  -2.929  0.00  0.00    +0.010 A 
ATOM     33  C   UNL     1       5.484 -16.698  -3.192  0.00  0.00    +0.001 A 
ATOM     34  C   UNL     1       4.187 -16.937  -2.756  0.00  0.00    +0.001 A 
ATOM     35  C   UNL     1       3.522 -15.965  -2.036  0.00  0.00    +0.016 A 
ATOM     36  C   UNL     1       4.154 -14.771  -1.762  0.00  0.00    +0.022 A 
ATOM     37  S   UNL     1       3.692 -13.294  -0.892  0.00  0.00    -0.080 S 
ATOM     38 CL   UNL     1       7.587 -12.777  -2.302  0.00  0.00    -0.082 Cl
ENDBRANCH  27  29
ENDBRANCH  26  27
ENDBRANCH   5  26
TORSDOF 9
