REMARK  Name = ZINC21602478
REMARK  10 active torsions:
REMARK  status: ('A' for Active; 'I' for Inactive)
REMARK    1  A    between atoms: C_1  and  C_2
REMARK    2  A    between atoms: C_2  and  C_4
REMARK    3  A    between atoms: C_2  and  O_13
REMARK    4  A    between atoms: N_9  and  C_10
REMARK    5  A    between atoms: C_10  and  C_11
REMARK    6  A    between atoms: C_10  and  C_12
REMARK    7  A    between atoms: O_13  and  C_14
REMARK    8  A    between atoms: C_14  and  C_16
REMARK    9  A    between atoms: C_20  and  N_21
REMARK   10  A    between atoms: C_22  and  C_24
REMARK                            x       y       z     vdW  Elec       q    Type
REMARK                         _______ _______ _______ _____ _____    ______ ____
ROOT
ATOM      1  C   UNL     1       2.024  -0.663   1.045  0.00  0.00    +0.343 C 
ATOM      2  O   UNL     1       2.582  -0.429  -0.010  0.00  0.00    -0.245 OA
ENDROOT
BRANCH   1   3
ATOM      3  C   UNL     1       2.798  -1.146   2.191  0.00  0.00    +0.091 A 
ATOM      4  C   UNL     1       3.008  -2.566   2.418  0.00  0.00    -0.021 A 
ATOM      5  C   UNL     1       3.741  -2.847   3.516  0.00  0.00    -0.004 A 
ATOM      6  S   UNL     1       4.131  -1.268   4.213  0.00  0.00    -0.077 S 
ATOM      7  C   UNL     1       3.365  -0.268   3.102  0.00  0.00    +0.086 A 
ATOM      8  C   UNL     1       4.126  -4.205   4.018  0.00  0.00    +0.043 C 
ATOM      9  C   UNL     1       3.249  -5.247   3.309  0.00  0.00    +0.005 C 
ATOM     10  C   UNL     1       3.251  -4.957   1.805  0.00  0.00    +0.005 C 
ATOM     11  C   UNL     1       2.469  -3.672   1.522  0.00  0.00    +0.037 C 
BRANCH   7  12
ATOM     12  N   UNL     1       3.311   1.117   3.098  0.00  0.00    -0.280 N 
ATOM     13  C   UNL     1       3.926   1.818   4.071  0.00  0.00    +0.214 C 
ATOM     14  O   UNL     1       4.526   1.237   4.950  0.00  0.00    -0.276 OA
ATOM     15  C   UNL     1       3.868   3.324   4.067  0.00  0.00    +0.109 C 
ATOM     16  H   UNL     1       2.831   1.582   2.395  0.00  0.00    +0.155 HD
ENDBRANCH   7  12
ENDBRANCH   1   3
BRANCH   1  17
ATOM     17  O   UNL     1       0.693  -0.477   1.160  0.00  0.00    -0.449 OA
BRANCH  17  19
ATOM     18  C   UNL     1      -0.019   1.526   0.010  0.00  0.00    +0.062 C 
ATOM     19  C   UNL     1       0.002  -0.004   0.002  0.00  0.00    +0.259 C 
BRANCH  19  20
ATOM     20  C   UNL     1      -1.412  -0.526   0.013  0.00  0.00    +0.261 C 
ATOM     21  O   UNL     1      -1.818  -1.157   0.965  0.00  0.00    -0.271 OA
ATOM     22  N   UNL     1      -2.225  -0.290  -1.036  0.00  0.00    -0.237 N 
ATOM     23  C   UNL     1      -3.489  -0.757  -1.027  0.00  0.00    +0.306 C 
ATOM     24  O   UNL     1      -3.896  -1.390  -0.072  0.00  0.00    -0.252 OA
ATOM     25  N   UNL     1      -4.302  -0.522  -2.075  0.00  0.00    -0.297 N 
ATOM     26  H   UNL     1      -1.900   0.215  -1.798  0.00  0.00    +0.159 HD
ATOM     27  H   UNL     1      -3.977  -0.017  -2.837  0.00  0.00    +0.151 HD
BRANCH  25  28
ATOM     28  C   UNL     1      -5.677  -1.029  -2.065  0.00  0.00    +0.068 C 
ATOM     29  C   UNL     1      -6.580  -0.037  -1.330  0.00  0.00    +0.027 C 
ATOM     30  C   UNL     1      -6.169  -1.198  -3.504  0.00  0.00    +0.027 C 
ENDBRANCH  25  28
ENDBRANCH  19  20
ENDBRANCH  17  19
ENDBRANCH   1  17
TORSDOF 6
