REMARK  Name = ZINC09382082
REMARK  7 active torsions:
REMARK  status: ('A' for Active; 'I' for Inactive)
REMARK    1  A    between atoms: C_6  and  N_7
REMARK    2  A    between atoms: C_8  and  C_10
REMARK    3  A    between atoms: C_10  and  S_11
REMARK    4  A    between atoms: S_11  and  C_12
REMARK    5  A    between atoms: C_15  and  C_24
REMARK    6  A    between atoms: N_16  and  C_17
REMARK    7  A    between atoms: C_24  and  C_25
REMARK                            x       y       z     vdW  Elec       q    Type
REMARK                         _______ _______ _______ _____ _____    ______ ____
ROOT
ATOM      1  C   UNL     1      -3.688   4.338   3.496  0.00  0.00    +0.197 A 
ATOM      2  N   UNL     1      -2.998   5.439   3.304  0.00  0.00    -0.122 NA
ATOM      3  N   UNL     1      -2.519   5.453   2.112  0.00  0.00    -0.133 NA
ATOM      4  C   UNL     1      -2.870   4.372   1.474  0.00  0.00    +0.144 A 
ATOM      5  N   UNL     1      -3.633   3.624   2.330  0.00  0.00    -0.274 N 
ENDROOT
BRANCH   5   6
ATOM      6  C   UNL     1      -4.231   2.383   2.068  0.00  0.00    +0.050 A 
ATOM      7  C   UNL     1      -5.237   2.283   1.116  0.00  0.00    +0.028 A 
ATOM      8  C   UNL     1      -5.821   1.058   0.857  0.00  0.00    +0.022 A 
ATOM      9  C   UNL     1      -5.412  -0.066   1.552  0.00  0.00    +0.041 A 
ATOM     10  C   UNL     1      -4.413   0.032   2.505  0.00  0.00    +0.022 A 
ATOM     11  C   UNL     1      -3.823   1.253   2.764  0.00  0.00    +0.028 A 
ATOM     12 CL   UNL     1      -6.154  -1.602   1.229  0.00  0.00    -0.084 Cl
ENDBRANCH   5   6
BRANCH   1  13
ATOM     13  S   UNL     1      -4.530   3.873   4.972  0.00  0.00    -0.076 S 
BRANCH  13  14
ATOM     14  C   UNL     1      -4.146   5.300   6.016  0.00  0.00    +0.173 C 
BRANCH  14  16
ATOM     15  N   UNL     1      -4.629   6.063   8.319  0.00  0.00    -0.285 N 
ATOM     16  C   UNL     1      -4.782   5.118   7.370  0.00  0.00    +0.227 C 
ATOM     17  O   UNL     1      -5.431   4.121   7.606  0.00  0.00    -0.275 OA
ATOM     18  H   UNL     1      -4.056   6.827   8.154  0.00  0.00    +0.155 HD
BRANCH  15  24
ATOM     19  C   UNL     1      -5.764   7.073  10.197  0.00  0.00    +0.026 A 
ATOM     20  C   UNL     1      -6.430   6.950  11.401  0.00  0.00    +0.040 A 
ATOM     21  C   UNL     1      -6.622   5.698  11.961  0.00  0.00    +0.124 A 
ATOM     22  C   UNL     1      -6.154   4.568  11.313  0.00  0.00    +0.040 A 
ATOM     23  C   UNL     1      -5.494   4.686  10.107  0.00  0.00    +0.026 A 
ATOM     24  C   UNL     1      -5.299   5.940   9.543  0.00  0.00    +0.034 A 
ATOM     25  F   UNL     1      -7.269   5.580  13.142  0.00  0.00    -0.205 F 
ENDBRANCH  15  24
ENDBRANCH  14  16
ENDBRANCH  13  14
ENDBRANCH   1  13
BRANCH   4  26
ATOM     26  C   UNL     1      -2.509   4.015   0.055  0.00  0.00    +0.130 C 
BRANCH  26  27
ATOM     27  C   UNL     1      -1.216   3.241   0.045  0.00  0.00    +0.033 A 
ATOM     28  C   UNL     1      -1.234   1.891   0.034  0.00  0.00    +0.091 A 
ATOM     29  C   UNL     1      -0.006   1.186   0.029  0.00  0.00    +0.254 A 
ATOM     30  O   UNL     1       0.003  -0.032   0.023  0.00  0.00    -0.268 OA
ATOM     31  N   UNL     1       1.153   1.875   0.027  0.00  0.00    -0.275 N 
ATOM     32  H   UNL     1       2.024   1.385   0.020  0.00  0.00    +0.173 HD
ATOM     33  C   UNL     1       1.141   3.221   0.035  0.00  0.00    +0.327 A 
ATOM     34  O   UNL     1       2.194   3.829   0.033  0.00  0.00    -0.247 OA
ATOM     35  N   UNL     1      -0.018   3.903   0.043  0.00  0.00    -0.311 N 
ATOM     36  H   UNL     1      -0.005   4.903   0.048  0.00  0.00    +0.170 HD
ENDBRANCH  26  27
ENDBRANCH   4  26
TORSDOF 7
