REMARK  Name = ZINC09130544
REMARK  10 active torsions:
REMARK  status: ('A' for Active; 'I' for Inactive)
REMARK    1  A    between atoms: C_1  and  C_2
REMARK    2  A    between atoms: N_8  and  C_9
REMARK    3  A    between atoms: C_9  and  C_10
REMARK    4  A    between atoms: C_10  and  N_55
REMARK    5  A    between atoms: C_11  and  N_55
REMARK    6  A    between atoms: C_12  and  N_55
REMARK    7  A    between atoms: C_23  and  C_27
REMARK    8  A    between atoms: C_24  and  N_26
REMARK    9  A    between atoms: C_27  and  O_29
REMARK   10  A    between atoms: O_29  and  C_30
REMARK                            x       y       z     vdW  Elec       q    Type
REMARK                         _______ _______ _______ _____ _____    ______ ____
ROOT
ATOM      1  C   UNL     1       3.450  -3.457   4.501  0.00  0.00    +0.064 C 
ATOM      2  C   UNL     1       2.856  -2.692   3.346  0.00  0.00    +0.022 A 
ATOM      3  C   UNL     1       2.799  -3.267   2.126  0.00  0.00    +0.068 A 
ATOM      4  C   UNL     1       2.245  -2.556   1.042  0.00  0.00    +0.142 A 
ATOM      5  C   UNL     1       1.767  -1.279   1.255  0.00  0.00    +0.083 A 
ATOM      6  C   UNL     1       1.848  -0.724   2.538  0.00  0.00    +0.260 A 
ATOM      7  O   UNL     1       1.431   0.406   2.741  0.00  0.00    -0.267 OA
ATOM      8  N   UNL     1       2.386  -1.433   3.548  0.00  0.00    -0.314 N 
ATOM      9  C   UNL     1       1.169  -0.490   0.126  0.00  0.00    +0.143 C 
ATOM     10  C   UNL     1      -0.318  -0.393   0.270  0.00  0.00    -0.002 A 
ATOM     11  C   UNL     1      -1.299  -1.361   0.287  0.00  0.00    +0.007 A 
ATOM     12  C   UNL     1      -2.611  -0.927   0.439  0.00  0.00    +0.000 A 
ATOM     13  C   UNL     1      -2.915   0.413   0.568  0.00  0.00    +0.002 A 
ATOM     14  C   UNL     1      -1.934   1.393   0.548  0.00  0.00    +0.023 A 
ATOM     15  C   UNL     1      -0.612   0.970   0.400  0.00  0.00    +0.038 A 
ATOM     16  N   UNL     1       0.550   1.719   0.350  0.00  0.00    -0.284 N 
ATOM     17  C   UNL     1       1.644   0.947   0.190  0.00  0.00    +0.237 C 
ATOM     18  O   UNL     1       2.792   1.330   0.113  0.00  0.00    -0.274 OA
ATOM     19  C   UNL     1       1.540  -1.095  -1.197  0.00  0.00    +0.117 C 
ATOM     20  C   UNL     1       2.023  -2.363  -1.274  0.00  0.00    +0.196 C 
ATOM     21  O   UNL     1       2.189  -3.125  -0.181  0.00  0.00    -0.441 OA
ATOM     22  H   UNL     1       0.575   2.686   0.421  0.00  0.00    +0.155 HD
ENDROOT
BRANCH  20  23
ATOM     23  N   UNL     1       2.351  -2.877  -2.500  0.00  0.00    -0.329 N 
ATOM     24  H   UNL     1       2.198  -3.816  -2.688  0.00  0.00    +0.145 HD
ATOM     25  H   UNL     1       2.736  -2.302  -3.180  0.00  0.00    +0.145 HD
ENDBRANCH  20  23
BRANCH  19  26
ATOM     26  C   UNL     1       1.385  -0.342  -2.370  0.00  0.00    +0.341 C 
ATOM     27  O   UNL     1       1.579  -0.859  -3.456  0.00  0.00    -0.245 OA
BRANCH  26  28
ATOM     28  O   UNL     1       1.022   0.957  -2.296  0.00  0.00    -0.465 OA
ATOM     29  C   UNL     1       0.883   1.664  -3.530  0.00  0.00    +0.280 C 
ENDBRANCH  26  28
ENDBRANCH  19  26
BRANCH   8  30
ATOM     30  C   UNL     1       2.467  -0.839   4.884  0.00  0.00    +0.106 C 
BRANCH  30  31
ATOM     31  C   UNL     1       3.796  -0.096   5.033  0.00  0.00    -0.058 C 
BRANCH  31  34
ATOM     32  C   UNL     1       5.225   1.017   6.640  0.00  0.00    -0.097 C 
ATOM     33  C   UNL     1       2.866   1.553   6.543  0.00  0.00    -0.097 C 
ATOM     34  N   UNL     1       3.871   0.480   6.393  0.00  0.00    +0.377 N 
ATOM     35  H   UNL     1       3.675  -0.259   7.079  0.00  0.00    -0.083 HD
ENDBRANCH  31  34
ENDBRANCH  30  31
ENDBRANCH   8  30
TORSDOF 6
