REMARK  Name = ZINC12546284
REMARK  9 active torsions:
REMARK  status: ('A' for Active; 'I' for Inactive)
REMARK    1  A    between atoms: C_1  and  C_2
REMARK    2  A    between atoms: C_2  and  N_35
REMARK    3  A    between atoms: C_3  and  C_4
REMARK    4  A    between atoms: C_3  and  C_6
REMARK    5  A    between atoms: C_6  and  C_8
REMARK    6  A    between atoms: C_8  and  S_9
REMARK    7  A    between atoms: S_9  and  C_10
REMARK    8  A    between atoms: N_24  and  C_25
REMARK    9  A    between atoms: C_30  and  C_31
REMARK                            x       y       z     vdW  Elec       q    Type
REMARK                         _______ _______ _______ _____ _____    ______ ____
ROOT
ATOM      1  C   UNL     1       0.624  -0.596   6.513  0.00  0.00    +0.178 A 
ATOM      2  N   UNL     1       0.831  -1.888   6.355  0.00  0.00    -0.215 NA
ATOM      3  C   UNL     1       1.065  -2.671   7.402  0.00  0.00    +0.117 A 
ATOM      4  C   UNL     1       1.105  -2.173   8.714  0.00  0.00    +0.076 A 
ATOM      5  C   UNL     1       1.377  -3.156   9.769  0.00  0.00    -0.023 A 
ATOM      6  C   UNL     1       1.564  -4.432   9.376  0.00  0.00    -0.004 A 
ATOM      7  S   UNL     1       1.381  -4.405   7.611  0.00  0.00    -0.073 S 
ATOM      8  C   UNL     1       1.873  -5.621  10.231  0.00  0.00    +0.043 C 
ATOM      9  C   UNL     1       0.892  -5.665  11.410  0.00  0.00    +0.005 C 
ATOM     10  C   UNL     1       1.490  -4.867  12.564  0.00  0.00    +0.001 C 
ATOM     11  C   UNL     1       2.314  -3.701  12.021  0.00  0.00    +0.005 C 
ATOM     12  C   UNL     1       1.430  -2.740  11.236  0.00  0.00    +0.037 C 
ATOM     13  C   UNL     1       0.875  -0.768   8.857  0.00  0.00    +0.268 A 
ATOM     14  O   UNL     1       0.889  -0.249   9.959  0.00  0.00    -0.267 OA
ATOM     15  N   UNL     1       0.649  -0.028   7.756  0.00  0.00    -0.255 N 
ENDROOT
BRANCH  15  16
ATOM     16  C   UNL     1       0.430   1.349   7.887  0.00  0.00    +0.064 A 
ATOM     17  C   UNL     1      -0.858   1.835   8.072  0.00  0.00    +0.027 A 
ATOM     18  C   UNL     1      -1.071   3.193   8.201  0.00  0.00    +0.002 A 
ATOM     19  C   UNL     1      -0.003   4.070   8.146  0.00  0.00    +0.001 A 
ATOM     20  C   UNL     1       1.281   3.590   7.961  0.00  0.00    +0.014 A 
ATOM     21  C   UNL     1       1.501   2.232   7.837  0.00  0.00    +0.079 A 
BRANCH  21  22
ATOM     22  C   UNL     1       2.901   1.709   7.642  0.00  0.00    +0.419 C 
ATOM     23  F   UNL     1       3.800   2.780   7.626  0.00  0.00    -0.166 F 
ATOM     24  F   UNL     1       3.225   0.843   8.691  0.00  0.00    -0.166 F 
ATOM     25  F   UNL     1       2.975   1.019   6.427  0.00  0.00    -0.166 F 
ENDBRANCH  21  22
ENDBRANCH  15  16
BRANCH   1  26
ATOM     26  S   UNL     1       0.319   0.414   5.101  0.00  0.00    -0.079 S 
BRANCH  26  27
ATOM     27  C   UNL     1       0.379  -0.748   3.709  0.00  0.00    +0.157 C 
BRANCH  27  28
ATOM     28  C   UNL     1       0.130  -0.004   2.423  0.00  0.00    +0.185 C 
ATOM     29  O   UNL     1      -0.069   1.194   2.443  0.00  0.00    -0.290 OA
BRANCH  28  32
ATOM     30  C   UNL     1      -0.786   1.354   0.089  0.00  0.00    +0.061 C 
ATOM     31  C   UNL     1      -0.230  -0.045   0.026  0.00  0.00    +0.019 C 
ATOM     32  C   UNL     1       0.127  -0.701   1.191  0.00  0.00    +0.111 C 
BRANCH  31  33
ATOM     33  N   UNL     1      -0.081  -0.659  -1.166  0.00  0.00    -0.360 N 
ATOM     34  H   UNL     1      -0.331  -0.200  -1.983  0.00  0.00    +0.142 HD
ATOM     35  H   UNL     1       0.277  -1.560  -1.207  0.00  0.00    +0.142 HD
ENDBRANCH  31  33
BRANCH  32  36
ATOM     36  C   UNL     1       0.495  -2.084   1.150  0.00  0.00    +0.104 C 
ATOM     37  N   UNL     1       0.786  -3.182   1.118  0.00  0.00    -0.191 NA
ENDBRANCH  32  36
ENDBRANCH  28  32
ENDBRANCH  27  28
ENDBRANCH  26  27
ENDBRANCH   1  26
TORSDOF 8
