REMARK  Name = ZINC33058458
REMARK  12 active torsions:
REMARK  status: ('A' for Active; 'I' for Inactive)
REMARK    1  A    between atoms: C_1  and  C_2
REMARK    2  A    between atoms: C_5  and  C_8
REMARK    3  A    between atoms: C_8  and  C_10
REMARK    4  A    between atoms: C_11  and  N_35
REMARK    5  A    between atoms: C_12  and  S_24
REMARK    6  A    between atoms: C_13  and  N_15
REMARK    7  A    between atoms: N_15  and  C_16
REMARK    8  A    between atoms: C_19  and  C_23
REMARK    9  A    between atoms: C_21  and  C_22
REMARK   10  A    between atoms: S_24  and  C_27
REMARK   11  A    between atoms: C_30  and  O_33
REMARK   12  A    between atoms: O_33  and  C_34
REMARK                            x       y       z     vdW  Elec       q    Type
REMARK                         _______ _______ _______ _____ _____    ______ ____
ROOT
ATOM      1  C   UNL     1       4.937  -3.451  -0.045  0.00  0.00    +0.084 A 
ATOM      2  C   UNL     1       4.049  -4.464  -0.429  0.00  0.00    +0.070 A 
ATOM      3  C   UNL     1       2.703  -4.208  -0.355  0.00  0.00    +0.143 A 
ATOM      4  C   UNL     1       2.282  -2.970   0.093  0.00  0.00    +0.098 A 
ATOM      5  S   UNL     1       3.825  -2.133   0.415  0.00  0.00    -0.066 S 
ENDROOT
BRANCH   3   6
ATOM      6  S   UNL     1       1.530  -5.437  -0.823  0.00  0.00    +0.029 S 
ATOM      7  O   UNL     1       2.146  -6.696  -0.589  0.00  0.00    -0.164 OA
ATOM      8  O   UNL     1       0.296  -5.070  -0.222  0.00  0.00    -0.164 OA
BRANCH   6   9
ATOM      9  C   UNL     1       1.302  -5.303  -2.565  0.00  0.00    +0.094 A 
ATOM     10  C   UNL     1       0.318  -4.473  -3.070  0.00  0.00    +0.031 A 
ATOM     11  C   UNL     1       0.141  -4.362  -4.436  0.00  0.00    +0.047 A 
ATOM     12  C   UNL     1       0.943  -5.093  -5.300  0.00  0.00    +0.120 A 
ATOM     13  C   UNL     1       1.925  -5.930  -4.790  0.00  0.00    +0.047 A 
ATOM     14  C   UNL     1       2.102  -6.033  -3.424  0.00  0.00    +0.031 A 
BRANCH  12  15
ATOM     15  O   UNL     1       0.767  -4.990  -6.643  0.00  0.00    -0.495 OA
ATOM     16  C   UNL     1      -0.263  -4.110  -7.097  0.00  0.00    +0.277 C 
ENDBRANCH  12  15
ENDBRANCH   6   9
ENDBRANCH   3   6
BRANCH   2  17
ATOM     17  N   UNL     1       4.518  -5.695  -0.874  0.00  0.00    -0.355 N 
ATOM     18  H   UNL     1       3.807  -6.479  -1.172  0.00  0.00    +0.142 HD
ATOM     19  H   UNL     1       5.600  -5.884  -0.928  0.00  0.00    +0.142 HD
ENDBRANCH   2  17
BRANCH   1  20
ATOM     20  C   UNL     1       6.343  -3.467  -0.030  0.00  0.00    +0.202 C 
ATOM     21  O   UNL     1       6.943  -4.500  -0.275  0.00  0.00    -0.286 OA
BRANCH  20  26
ATOM     22  C   UNL     1       9.263   1.343   1.182  0.00  0.00    +0.044 C 
ATOM     23  C   UNL     1       8.498   0.084   0.864  0.00  0.00    -0.050 A 
ATOM     24  C   UNL     1       9.037  -1.149   1.187  0.00  0.00    +0.004 A 
ATOM     25  C   UNL     1       8.342  -2.306   0.899  0.00  0.00    +0.012 A 
ATOM     26  C   UNL     1       7.094  -2.230   0.281  0.00  0.00    +0.023 A 
ATOM     27  C   UNL     1       6.559  -0.984  -0.048  0.00  0.00    +0.012 A 
ATOM     28  C   UNL     1       7.261   0.165   0.251  0.00  0.00    +0.004 A 
ENDBRANCH  20  26
ENDBRANCH   1  20
BRANCH   4  29
ATOM     29  N   UNL     1       0.991  -2.498   0.246  0.00  0.00    -0.307 N 
ATOM     30  H   UNL     1       0.137  -3.175   0.101  0.00  0.00    +0.153 HD
BRANCH  29  31
ATOM     31  C   UNL     1       0.773  -1.160   0.586  0.00  0.00    +0.035 A 
ATOM     32  C   UNL     1       1.719  -0.196   0.261  0.00  0.00    +0.024 A 
ATOM     33  C   UNL     1       1.500   1.125   0.598  0.00  0.00    +0.005 A 
ATOM     34  C   UNL     1       0.340   1.489   1.258  0.00  0.00    -0.050 A 
ATOM     35  C   UNL     1      -0.603   0.532   1.583  0.00  0.00    +0.008 A 
ATOM     36  C   UNL     1      -0.391  -0.791   1.249  0.00  0.00    -0.029 A 
ATOM     37  C   UNL     1      -1.419  -1.834   1.604  0.00  0.00    +0.045 C 
ATOM     38  C   UNL     1       0.104   2.932   1.624  0.00  0.00    +0.044 C 
ENDBRANCH  29  31
ENDBRANCH   4  29
TORSDOF 8
