REMARK  Name = ZINC59023403
REMARK  12 active torsions:
REMARK  status: ('A' for Active; 'I' for Inactive)
REMARK    1  A    between atoms: C_1  and  C_2
REMARK    2  A    between atoms: C_2  and  O_3
REMARK    3  A    between atoms: O_3  and  C_4
REMARK    4  A    between atoms: C_4  and  C_6
REMARK    5  A    between atoms: C_10  and  N_11
REMARK    6  A    between atoms: C_12  and  C_14
REMARK    7  A    between atoms: C_14  and  S_15
REMARK    8  A    between atoms: S_15  and  C_16
REMARK    9  A    between atoms: N_21  and  N_22
REMARK   10  A    between atoms: C_23  and  C_24
REMARK   11  A    between atoms: C_23  and  C_25
REMARK   12  A    between atoms: C_26  and  C_27
REMARK                            x       y       z     vdW  Elec       q    Type
REMARK                         _______ _______ _______ _____ _____    ______ ____
ROOT
ATOM      1  S   UNL     1       7.662  -3.063   0.893  0.00  0.00    -0.075 S 
ENDROOT
BRANCH   1   2
ATOM      2  C   UNL     1       8.655  -2.745  -0.527  0.00  0.00    +0.211 A 
ATOM      3  N   UNL     1       9.971  -2.964  -0.620  0.00  0.00    -0.186 NA
ATOM      4  C   UNL     1      10.395  -2.618  -1.817  0.00  0.00    +0.232 A 
ATOM      5  N   UNL     1       9.334  -2.164  -2.519  0.00  0.00    -0.245 N 
ATOM      6  N   UNL     1       8.222  -2.261  -1.667  0.00  0.00    -0.144 NA
ATOM      7  N   UNL     1      11.696  -2.703  -2.275  0.00  0.00    -0.205 N 
ATOM      8  H   UNL     1      11.912  -2.421  -3.178  0.00  0.00    +0.177 HD
ATOM      9  H   UNL     1       9.339  -1.839  -3.433  0.00  0.00    +0.192 HD
BRANCH   7  10
ATOM     10  N   UNL     1      12.704  -3.195  -1.435  0.00  0.00    -0.185 NA
ATOM     11  C   UNL     1      13.910  -3.367  -1.896  0.00  0.00    +0.056 C 
ATOM     12  C   UNL     1      14.964  -4.006  -1.030  0.00  0.00    +0.067 C 
BRANCH  11  13
ATOM     13  C   UNL     1      14.231  -2.952  -3.213  0.00  0.00    +0.025 C 
ATOM     14  C   UNL     1      15.447  -3.228  -3.730  0.00  0.00    +0.010 C 
BRANCH  14  15
ATOM     15  C   UNL     1      15.742  -2.897  -5.133  0.00  0.00    -0.025 A 
ATOM     16  C   UNL     1      14.768  -2.289  -5.932  0.00  0.00    +0.008 A 
ATOM     17  C   UNL     1      15.054  -1.981  -7.245  0.00  0.00    +0.001 A 
ATOM     18  C   UNL     1      16.300  -2.271  -7.773  0.00  0.00    +0.000 A 
ATOM     19  C   UNL     1      17.269  -2.872  -6.989  0.00  0.00    +0.001 A 
ATOM     20  C   UNL     1      17.001  -3.181  -5.672  0.00  0.00    +0.008 A 
ENDBRANCH  14  15
ENDBRANCH  11  13
ENDBRANCH   7  10
ENDBRANCH   1   2
BRANCH   1  21
ATOM     21  C   UNL     1       5.993  -2.570   0.381  0.00  0.00    +0.173 C 
BRANCH  21  23
ATOM     22  N   UNL     1       3.726  -2.496   1.368  0.00  0.00    -0.279 N 
ATOM     23  C   UNL     1       5.032  -2.793   1.520  0.00  0.00    +0.228 C 
ATOM     24  O   UNL     1       5.433  -3.241   2.573  0.00  0.00    -0.275 OA
ATOM     25  H   UNL     1       3.405  -2.138   0.525  0.00  0.00    +0.155 HD
BRANCH  22  30
ATOM     26  C   UNL     1       1.480  -2.456   2.440  0.00  0.00    +0.091 A 
ATOM     27  C   UNL     1       0.766  -2.768   3.677  0.00  0.00    -0.021 A 
ATOM     28  C   UNL     1       1.550  -3.258   4.654  0.00  0.00    -0.004 A 
ATOM     29  S   UNL     1       3.176  -3.302   3.945  0.00  0.00    -0.077 S 
ATOM     30  C   UNL     1       2.842  -2.701   2.415  0.00  0.00    +0.086 A 
ATOM     31  C   UNL     1       0.768  -3.557   5.904  0.00  0.00    +0.043 C 
ATOM     32  C   UNL     1      -0.559  -2.785   5.728  0.00  0.00    +0.010 C 
ATOM     33  C   UNL     1      -0.669  -2.695   4.193  0.00  0.00    +0.037 C 
BRANCH  26  34
ATOM     34  C   UNL     1       0.782  -1.912   1.273  0.00  0.00    +0.342 C 
ATOM     35  O   UNL     1       0.310  -2.664   0.442  0.00  0.00    -0.245 OA
BRANCH  34  36
ATOM     36  O   UNL     1       0.663  -0.578   1.120  0.00  0.00    -0.461 OA
BRANCH  36  38
ATOM     37  C   UNL     1      -0.065   1.413  -0.042  0.00  0.00    +0.048 C 
ATOM     38  C   UNL     1      -0.031  -0.117  -0.042  0.00  0.00    +0.229 C 
ENDBRANCH  36  38
ENDBRANCH  34  36
ENDBRANCH  26  34
ENDBRANCH  22  30
ENDBRANCH  21  23
ENDBRANCH   1  21
TORSDOF 10
