REMARK  Name = ZINC63472823
REMARK  7 active torsions:
REMARK  status: ('A' for Active; 'I' for Inactive)
REMARK    1  A    between atoms: C_4  and  C_7
REMARK    2  A    between atoms: N_9  and  C_10
REMARK    3  A    between atoms: C_10  and  C_29
REMARK    4  A    between atoms: N_13  and  C_17
REMARK    5  A    between atoms: C_14  and  O_16
REMARK    6  A    between atoms: C_17  and  C_18
REMARK    7  A    between atoms: C_18  and  C_19
REMARK                            x       y       z     vdW  Elec       q    Type
REMARK                         _______ _______ _______ _____ _____    ______ ____
ROOT
ATOM      1  C   UNL     1       4.988  -2.751  -0.171  0.00  0.00    +0.304 C 
ATOM      2  C   UNL     1       5.677  -2.346  -1.460  0.00  0.00    +0.278 C 
ATOM      3  O   UNL     1       6.048  -1.238  -1.781  0.00  0.00    -0.270 OA
ATOM      4  N   UNL     1       5.787  -3.488  -2.171  0.00  0.00    -0.222 N 
ATOM      5  C   UNL     1       5.250  -4.543  -1.479  0.00  0.00    +0.287 C 
ATOM      6  N   UNL     1       4.774  -4.198  -0.325  0.00  0.00    -0.192 NA
ENDROOT
BRANCH   1   9
ATOM      7  C   UNL     1       3.656  -0.710  -0.134  0.00  0.00    +0.246 C 
ATOM      8  O   UNL     1       4.683  -0.070  -0.248  0.00  0.00    -0.270 OA
ATOM      9  N   UNL     1       3.707  -2.053  -0.032  0.00  0.00    -0.273 N 
ATOM     10  H   UNL     1       2.895  -2.558   0.133  0.00  0.00    +0.152 HD
BRANCH   7  14
ATOM     11  C   UNL     1      -0.092   1.286  -0.053  0.00  0.00    +0.000 A 
ATOM     12  C   UNL     1       1.075   2.017  -0.183  0.00  0.00    +0.001 A 
ATOM     13  C   UNL     1       2.296   1.375  -0.210  0.00  0.00    +0.013 A 
ATOM     14  C   UNL     1       2.352  -0.015  -0.105  0.00  0.00    +0.037 A 
ATOM     15  C   UNL     1       1.170  -0.747   0.026  0.00  0.00    +0.013 A 
ATOM     16  C   UNL     1      -0.044  -0.093   0.051  0.00  0.00    +0.001 A 
ENDBRANCH   7  14
ENDBRANCH   1   9
BRANCH   1  17
ATOM     17  C   UNL     1       5.886  -2.466   1.034  0.00  0.00    +0.440 C 
ATOM     18  F   UNL     1       5.286  -2.971   2.192  0.00  0.00    -0.166 F 
ATOM     19  F   UNL     1       7.128  -3.082   0.846  0.00  0.00    -0.166 F 
ATOM     20  F   UNL     1       6.066  -1.085   1.166  0.00  0.00    -0.166 F 
ENDBRANCH   1  17
BRANCH   5  21
ATOM     21  O   UNL     1       5.222  -5.809  -1.950  0.00  0.00    -0.481 OA
ATOM     22  H   UNL     1       4.811  -6.444  -1.348  0.00  0.00    +0.295 HD
ENDBRANCH   5  21
BRANCH   4  23
ATOM     23  C   UNL     1       6.394  -3.586  -3.501  0.00  0.00    +0.122 C 
BRANCH  23  24
ATOM     24  C   UNL     1       7.890  -3.874  -3.358  0.00  0.00    +0.052 C 
BRANCH  24  25
ATOM     25  C   UNL     1       8.515  -3.975  -4.725  0.00  0.00    -0.040 C 
ATOM     26  C   UNL     1       9.143  -2.991  -5.407  0.00  0.00    +0.002 A 
ATOM     27  C   UNL     1       9.421  -1.584  -5.091  0.00  0.00    +0.048 A 
ATOM     28  C   UNL     1      10.086  -0.827  -5.995  0.00  0.00    +0.124 A 
ATOM     29  C   UNL     1      10.515  -1.354  -7.224  0.00  0.00    +0.040 A 
ATOM     30  C   UNL     1      10.295  -2.636  -7.584  0.00  0.00    +0.029 A 
ATOM     31  C   UNL     1       9.606  -3.521  -6.710  0.00  0.00    +0.043 A 
ATOM     32  N   UNL     1       9.277  -4.784  -6.828  0.00  0.00    -0.380 N 
ATOM     33  C   UNL     1       8.572  -5.200  -5.610  0.00  0.00    +0.144 C 
ATOM     34  F   UNL     1      10.344   0.467  -5.708  0.00  0.00    -0.205 F 
ATOM     35  H   UNL     1       9.469  -5.349  -7.592  0.00  0.00    +0.160 HD
ENDBRANCH  24  25
ENDBRANCH  23  24
ENDBRANCH   4  23
TORSDOF 7
