REMARK  Name = ZINC08920846
REMARK  11 active torsions:
REMARK  status: ('A' for Active; 'I' for Inactive)
REMARK    1  A    between atoms: C_1  and  C_2
REMARK    2  A    between atoms: C_2  and  C_3
REMARK    3  A    between atoms: C_3  and  C_4
REMARK    4  A    between atoms: C_3  and  C_5
REMARK    5  A    between atoms: C_3  and  C_6
REMARK    6  A    between atoms: C_15  and  O_32
REMARK    7  A    between atoms: C_17  and  C_20
REMARK    8  A    between atoms: C_21  and  O_31
REMARK    9  A    between atoms: C_22  and  O_28
REMARK   10  A    between atoms: O_28  and  C_29
REMARK   11  A    between atoms: C_29  and  C_30
REMARK                            x       y       z     vdW  Elec       q    Type
REMARK                         _______ _______ _______ _____ _____    ______ ____
ROOT
ATOM      1  C   UNL     1       0.739  -2.027  -1.265  0.00  0.00    -0.000 C 
ATOM      2  C   UNL     1       1.450  -2.524  -2.527  0.00  0.00    +0.009 C 
ATOM      3  C   UNL     1       1.695  -4.031  -2.428  0.00  0.00    +0.037 C 
ATOM      4  C   UNL     1       0.379  -4.719  -2.093  0.00  0.00    -0.023 A 
ATOM      5  C   UNL     1      -0.661  -4.025  -1.577  0.00  0.00    -0.004 A 
ATOM      6  S   UNL     1      -1.944  -5.228  -1.358  0.00  0.00    -0.078 S 
ATOM      7  C   UNL     1      -1.156  -6.574  -1.921  0.00  0.00    +0.080 A 
ATOM      8  C   UNL     1       0.121  -6.134  -2.287  0.00  0.00    +0.068 A 
ATOM      9  C   UNL     1       1.068  -7.147  -2.821  0.00  0.00    +0.220 C 
ATOM     10  N   UNL     1       0.584  -8.315  -3.149  0.00  0.00    -0.223 NA
ATOM     11  C   UNL     1      -0.828  -8.670  -3.088  0.00  0.00    +0.229 C 
ATOM     12  N   UNL     1      -1.542  -7.887  -2.063  0.00  0.00    -0.313 N 
ATOM     13  C   UNL     1      -0.701  -2.561  -1.261  0.00  0.00    +0.046 C 
ATOM     14  H   UNL     1      -2.245  -8.276  -1.519  0.00  0.00    +0.149 HD
ENDROOT
BRANCH  11  15
ATOM     15  C   UNL     1      -1.460  -8.410  -4.431  0.00  0.00    +0.059 A 
ATOM     16  C   UNL     1      -0.703  -8.525  -5.587  0.00  0.00    +0.167 A 
ATOM     17  C   UNL     1      -1.288  -8.285  -6.826  0.00  0.00    +0.164 A 
ATOM     18  C   UNL     1      -2.626  -7.932  -6.901  0.00  0.00    +0.071 A 
ATOM     19  C   UNL     1      -3.377  -7.818  -5.745  0.00  0.00    +0.063 A 
ATOM     20  C   UNL     1      -2.796  -8.062  -4.512  0.00  0.00    +0.070 A 
ATOM     21 CL   UNL     1      -3.744  -7.925  -3.065  0.00  0.00    -0.082 Cl
ATOM     22 CL   UNL     1      -5.053  -7.375  -5.841  0.00  0.00    -0.082 Cl
BRANCH  16  23
ATOM     23  O   UNL     1       0.610  -8.872  -5.509  0.00  0.00    -0.503 OA
ATOM     24  H   UNL     1       0.768  -9.825  -5.547  0.00  0.00    +0.292 HD
ENDBRANCH  16  23
BRANCH  17  25
ATOM     25  O   UNL     1      -0.548  -8.397  -7.962  0.00  0.00    -0.489 OA
BRANCH  25  26
ATOM     26  C   UNL     1      -1.215  -8.136  -9.198  0.00  0.00    +0.226 C 
ATOM     27  C   UNL     1      -0.229  -8.310 -10.356  0.00  0.00    +0.048 C 
ENDBRANCH  25  26
ENDBRANCH  17  25
ENDBRANCH  11  15
BRANCH   1  28
ATOM     28  C   UNL     1       0.718  -0.497  -1.257  0.00  0.00    -0.032 C 
ATOM     29  C   UNL     1      -0.022   0.009  -2.496  0.00  0.00    +0.011 C 
ATOM     30  C   UNL     1       2.154   0.032  -1.268  0.00  0.00    +0.011 C 
BRANCH  28  32
ATOM     31  C   UNL     1      -0.019   1.526   0.010  0.00  0.00    +0.004 C 
ATOM     32  C   UNL     1       0.002  -0.004   0.002  0.00  0.00    +0.003 C 
ENDBRANCH  28  32
ENDBRANCH   1  28
BRANCH   9  33
ATOM     33  O   UNL     1       2.385  -6.870  -2.962  0.00  0.00    -0.492 OA
ATOM     34  H   UNL     1       2.905  -7.603  -3.318  0.00  0.00    +0.294 HD
ENDBRANCH   9  33
TORSDOF 7
