REMARK  Name = ZINC59384722
REMARK  8 active torsions:
REMARK  status: ('A' for Active; 'I' for Inactive)
REMARK    1  A    between atoms: C_1  and  C_2
REMARK    2  A    between atoms: C_3  and  C_19
REMARK    3  A    between atoms: C_4  and  C_10
REMARK    4  A    between atoms: C_13  and  N_16
REMARK    5  A    between atoms: N_16  and  C_17
REMARK    6  A    between atoms: N_16  and  C_18
REMARK    7  A    between atoms: N_21  and  N_22
REMARK    8  A    between atoms: C_23  and  C_24
REMARK                            x       y       z     vdW  Elec       q    Type
REMARK                         _______ _______ _______ _____ _____    ______ ____
ROOT
ATOM      1  C   UNL     1       0.658   1.367   0.082  0.00  0.00    +0.061 C 
ATOM      2  C   UNL     1       0.360  -0.110   0.046  0.00  0.00    +0.017 C 
ATOM      3  C   UNL     1      -0.922  -0.527  -0.024  0.00  0.00    +0.057 C 
ATOM      4  C   UNL     1      -1.177  -2.021  -0.058  0.00  0.00    +0.139 C 
ATOM      5  N   UNL     1       0.004  -2.900  -0.013  0.00  0.00    -0.315 N 
ATOM      6  C   UNL     1       1.224  -2.333   0.056  0.00  0.00    +0.135 C 
ATOM      7  S   UNL     1       2.605  -3.343   0.108  0.00  0.00    -0.019 S 
ATOM      8  N   UNL     1       1.392  -1.005   0.078  0.00  0.00    -0.300 N 
ATOM      9  H   UNL     1      -0.095  -3.865  -0.032  0.00  0.00    +0.149 HD
ATOM     10  H   UNL     1       2.297  -0.658   0.123  0.00  0.00    +0.154 HD
ENDROOT
BRANCH   4  11
ATOM     11  C   UNL     1      -1.940  -2.333  -1.320  0.00  0.00    -0.023 A 
ATOM     12  C   UNL     1      -1.290  -2.316  -2.541  0.00  0.00    +0.007 A 
ATOM     13  C   UNL     1      -1.987  -2.602  -3.699  0.00  0.00    +0.023 A 
ATOM     14  C   UNL     1      -3.341  -2.906  -3.636  0.00  0.00    +0.029 A 
ATOM     15  C   UNL     1      -3.990  -2.922  -2.408  0.00  0.00    +0.023 A 
ATOM     16  C   UNL     1      -3.286  -2.641  -1.253  0.00  0.00    +0.007 A 
BRANCH  14  17
ATOM     17  N   UNL     1      -4.048  -3.195  -4.805  0.00  0.00    -0.336 N 
ATOM     18  C   UNL     1      -3.362  -3.177  -6.099  0.00  0.00    +0.129 C 
ATOM     19  C   UNL     1      -5.476  -3.516  -4.737  0.00  0.00    +0.129 C 
ENDBRANCH  14  17
ENDBRANCH   4  11
BRANCH   3  20
ATOM     20  C   UNL     1      -1.992   0.399  -0.062  0.00  0.00    +0.263 C 
ATOM     21  O   UNL     1      -2.657   0.603   0.938  0.00  0.00    -0.269 OA
ATOM     22  N   UNL     1      -2.275   1.054  -1.205  0.00  0.00    -0.203 N 
ATOM     23  H   UNL     1      -1.795   0.839  -2.020  0.00  0.00    +0.178 HD
BRANCH  22  24
ATOM     24  N   UNL     1      -3.263   2.048  -1.217  0.00  0.00    -0.187 NA
ATOM     25  C   UNL     1      -3.535   2.679  -2.318  0.00  0.00    +0.141 C 
BRANCH  25  26
ATOM     26  C   UNL     1      -4.575   3.724  -2.330  0.00  0.00    +0.030 A 
ATOM     27  C   UNL     1      -4.875   4.402  -3.514  0.00  0.00    +0.012 A 
ATOM     28  C   UNL     1      -5.849   5.379  -3.519  0.00  0.00    +0.001 A 
ATOM     29  C   UNL     1      -6.529   5.689  -2.354  0.00  0.00    +0.003 A 
ATOM     30  C   UNL     1      -6.239   5.024  -1.177  0.00  0.00    +0.039 A 
ATOM     31  C   UNL     1      -5.270   4.038  -1.158  0.00  0.00    +0.132 A 
ATOM     32  F   UNL     1      -4.991   3.385  -0.009  0.00  0.00    -0.205 F 
ENDBRANCH  25  26
ENDBRANCH  22  24
ENDBRANCH   3  20
TORSDOF 5
