REMARK  Name = ZINC39673977
REMARK  6 active torsions:
REMARK  status: ('A' for Active; 'I' for Inactive)
REMARK    1  A    between atoms: C_1  and  C_2
REMARK    2  A    between atoms: C_4  and  C_12
REMARK    3  A    between atoms: C_12  and  C_13
REMARK    4  A    between atoms: C_13  and  N_14
REMARK    5  A    between atoms: C_15  and  C_17
REMARK    6  A    between atoms: C_28  and  C_30
REMARK                            x       y       z     vdW  Elec       q    Type
REMARK                         _______ _______ _______ _____ _____    ______ ____
ROOT
ATOM      1  C   UNL     1      -5.891   3.295   4.054  0.00  0.00    +0.100 C 
ATOM      2  C   UNL     1      -5.144   2.182   4.824  0.00  0.00    +0.121 C 
ATOM      3  N   UNL     1      -4.382   2.899   5.874  0.00  0.00    -0.296 N 
ATOM      4  C   UNL     1      -5.304   3.964   6.336  0.00  0.00    +0.115 C 
ATOM      5  C   UNL     1      -5.997   4.461   5.051  0.00  0.00    -0.004 C 
ATOM      6  C   UNL     1      -7.462   4.784   5.332  0.00  0.00    -0.010 C 
ATOM      7  C   UNL     1      -7.542   5.984   6.279  0.00  0.00    -0.082 C 
ATOM      8  N   UNL     1      -6.874   7.139   5.667  0.00  0.00    +0.379 N 
ATOM      9  C   UNL     1      -5.446   6.853   5.486  0.00  0.00    -0.082 C 
ATOM     10  C   UNL     1      -5.276   5.690   4.505  0.00  0.00    -0.010 C 
ATOM     11  C   UNL     1      -3.134   2.641   6.310  0.00  0.00    +0.247 C 
ATOM     12  O   UNL     1      -2.452   1.809   5.744  0.00  0.00    -0.270 OA
ATOM     13  H   UNL     1      -7.293   7.332   4.770  0.00  0.00    -0.086 HD
ATOM     14  H   UNL     1      -6.981   7.944   6.266  0.00  0.00    -0.086 HD
ENDROOT
BRANCH  11  15
ATOM     15  C   UNL     1      -2.593   3.370   7.477  0.00  0.00    +0.040 A 
ATOM     16  C   UNL     1      -3.460   3.982   8.384  0.00  0.00    +0.033 A 
ATOM     17  C   UNL     1      -2.949   4.662   9.472  0.00  0.00    +0.043 A 
ATOM     18  C   UNL     1      -1.580   4.737   9.664  0.00  0.00    +0.040 A 
ATOM     19  C   UNL     1      -0.715   4.132   8.768  0.00  0.00    +0.043 A 
ATOM     20  C   UNL     1      -1.214   3.445   7.680  0.00  0.00    +0.033 A 
ATOM     21 CL   UNL     1       1.000   4.233   9.017  0.00  0.00    -0.083 Cl
ATOM     22 CL   UNL     1      -4.025   5.424  10.601  0.00  0.00    -0.083 Cl
ENDBRANCH  11  15
BRANCH   1  24
ATOM     23  N   UNL     1      -5.729   4.286   1.794  0.00  0.00    -0.315 N 
ATOM     24  C   UNL     1      -5.102   3.712   2.840  0.00  0.00    +0.218 C 
ATOM     25  O   UNL     1      -3.903   3.532   2.804  0.00  0.00    -0.275 OA
ATOM     26  H   UNL     1      -6.688   4.430   1.823  0.00  0.00    +0.149 HD
BRANCH  23  27
ATOM     27  C   UNL     1      -4.962   4.692   0.614  0.00  0.00    +0.109 C 
BRANCH  27  28
ATOM     28  C   UNL     1      -5.906   5.311  -0.419  0.00  0.00    +0.056 C 
BRANCH  28  32
ATOM     29  C   UNL     1      -5.320   3.556  -2.911  0.00  0.00    +0.063 C 
ATOM     30  C   UNL     1      -4.859   4.977  -2.715  0.00  0.00    +0.017 A 
ATOM     31  H   UNL     1      -3.798   5.357  -4.467  0.00  0.00    +0.166 HD
ATOM     32  C   UNL     1      -5.117   5.729  -1.634  0.00  0.00    -0.018 A 
ATOM     33  C   UNL     1      -4.488   7.033  -1.858  0.00  0.00    +0.003 A 
ATOM     34  C   UNL     1      -4.405   8.211  -1.113  0.00  0.00    +0.010 A 
ATOM     35  C   UNL     1      -3.723   9.284  -1.616  0.00  0.00    +0.001 A 
ATOM     36  C   UNL     1      -3.113   9.212  -2.860  0.00  0.00    +0.002 A 
ATOM     37  C   UNL     1      -3.183   8.059  -3.612  0.00  0.00    +0.026 A 
ATOM     38  C   UNL     1      -3.871   6.955  -3.120  0.00  0.00    +0.047 A 
ATOM     39  N   UNL     1      -4.111   5.691  -3.612  0.00  0.00    -0.358 N 
ENDBRANCH  28  32
ENDBRANCH  27  28
ENDBRANCH  23  27
ENDBRANCH   1  24
TORSDOF 5
