REMARK  Name = ZINC01133283
REMARK  5 active torsions:
REMARK  status: ('A' for Active; 'I' for Inactive)
REMARK    1  A    between atoms: C_1  and  C_2
REMARK    2  A    between atoms: C_7  and  C_17
REMARK    3  A    between atoms: C_31  and  C_33
REMARK    4  A    between atoms: C_33  and  O_35
REMARK    5  A    between atoms: O_35  and  C_36
REMARK                            x       y       z     vdW  Elec       q    Type
REMARK                         _______ _______ _______ _____ _____    ______ ____
ROOT
ATOM      1  C   UNL     1       4.659   0.399  -1.962  0.00  0.00    +0.009 C 
ATOM      2  C   UNL     1       4.115   1.320  -3.056  0.00  0.00    +0.013 C 
ATOM      3  C   UNL     1       2.689   0.907  -3.418  0.00  0.00    +0.055 C 
ATOM      4  C   UNL     1       1.796   1.005  -2.192  0.00  0.00    +0.017 C 
ATOM      5  C   UNL     1       2.025   1.940  -1.254  0.00  0.00    +0.037 C 
ATOM      6  C   UNL     1       1.214   2.152   0.002  0.00  0.00    +0.143 C 
ATOM      7  N   UNL     1      -0.039   1.427   0.039  0.00  0.00    -0.331 N 
ATOM      8  C   UNL     1      -0.062   0.034   0.061  0.00  0.00    +0.049 A 
ATOM      9  C   UNL     1      -0.551  -0.666   1.152  0.00  0.00    +0.025 A 
ATOM     10  C   UNL     1      -0.510  -2.050   1.146  0.00  0.00    +0.002 A 
ATOM     11  C   UNL     1       0.018  -2.730   0.064  0.00  0.00    +0.002 A 
ATOM     12  C   UNL     1       0.492  -2.034  -1.035  0.00  0.00    +0.025 A 
ATOM     13  C   UNL     1       0.430  -0.651  -1.040  0.00  0.00    +0.052 A 
ATOM     14  N   UNL     1       0.782   0.103  -2.153  0.00  0.00    -0.316 N 
ATOM     15  C   UNL     1       3.115   2.832  -1.390  0.00  0.00    +0.177 C 
ATOM     16  O   UNL     1       3.284   3.683  -0.539  0.00  0.00    -0.291 OA
ATOM     17  C   UNL     1       4.068   2.765  -2.545  0.00  0.00    +0.171 C 
ATOM     18  H   UNL     1      -0.875   1.919   0.044  0.00  0.00    +0.147 HD
ATOM     19  H   UNL     1       0.264  -0.024  -2.963  0.00  0.00    +0.152 HD
ENDROOT
BRANCH   6  20
ATOM     20  C   UNL     1       2.046   1.726   1.184  0.00  0.00    +0.059 A 
ATOM     21  C   UNL     1       2.358   0.430   1.361  0.00  0.00    +0.205 A 
ATOM     22  O   UNL     1       3.097  -0.005   2.386  0.00  0.00    -0.462 OA
ATOM     23  C   UNL     1       3.579   0.825   3.334  0.00  0.00    +0.138 A 
ATOM     24  C   UNL     1       4.339   0.340   4.391  0.00  0.00    +0.048 A 
ATOM     25  C   UNL     1       4.821   1.208   5.347  0.00  0.00    +0.023 A 
ATOM     26  C   UNL     1       4.555   2.568   5.268  0.00  0.00    +0.042 A 
ATOM     27  C   UNL     1       3.803   3.070   4.227  0.00  0.00    +0.035 A 
ATOM     28  C   UNL     1       3.310   2.201   3.254  0.00  0.00    +0.066 A 
ATOM     29  C   UNL     1       2.501   2.691   2.122  0.00  0.00    +0.198 A 
ATOM     30  O   UNL     1       2.233   3.874   1.997  0.00  0.00    -0.287 OA
ATOM     31 CL   UNL     1       5.173   3.643   6.484  0.00  0.00    -0.084 Cl
ENDBRANCH   6  20
BRANCH  17  32
ATOM     32  C   UNL     1       3.596   3.676  -3.649  0.00  0.00    +0.318 C 
ATOM     33  O   UNL     1       3.325   3.221  -4.734  0.00  0.00    -0.250 OA
BRANCH  32  34
ATOM     34  O   UNL     1       3.478   4.995  -3.425  0.00  0.00    -0.467 OA
ATOM     35  C   UNL     1       3.019   5.812  -4.534  0.00  0.00    +0.280 C 
ENDBRANCH  32  34
ENDBRANCH  17  32
TORSDOF 3
