REMARK  Name = ZINC22402248
REMARK  14 active torsions:
REMARK  status: ('A' for Active; 'I' for Inactive)
REMARK    1  A    between atoms: C_1  and  C_2
REMARK    2  A    between atoms: C_5  and  C_36
REMARK    3  A    between atoms: C_6  and  N_8
REMARK    4  A    between atoms: C_13  and  C_15
REMARK    5  A    between atoms: N_17  and  C_18
REMARK    6  A    between atoms: N_17  and  C_22
REMARK    7  A    between atoms: C_18  and  C_19
REMARK    8  A    between atoms: C_19  and  C_20
REMARK    9  A    between atoms: C_19  and  C_21
REMARK   10  A    between atoms: C_23  and  N_35
REMARK   11  A    between atoms: N_24  and  C_31
REMARK   12  A    between atoms: C_31  and  C_32
REMARK   13  A    between atoms: C_32  and  C_33
REMARK   14  A    between atoms: C_32  and  C_34
REMARK                            x       y       z     vdW  Elec       q    Type
REMARK                         _______ _______ _______ _____ _____    ______ ____
ROOT
ATOM      1  C   UNL     1      -1.042  -0.922   0.325  0.00  0.00    +0.267 C 
ATOM      2  O   UNL     1      -1.031  -2.116   0.092  0.00  0.00    -0.268 OA
ATOM      3  N   UNL     1      -2.189  -0.317   0.692  0.00  0.00    -0.259 N 
ENDROOT
BRANCH   3   4
ATOM      4  C   UNL     1      -3.352  -1.084   0.906  0.00  0.00    +0.140 A 
ATOM      5  C   UNL     1      -4.505  -0.827   0.191  0.00  0.00    +0.127 A 
ATOM      6  N   UNL     1      -5.624  -1.592   0.424  0.00  0.00    -0.280 N 
ATOM      7  C   UNL     1      -5.596  -2.580   1.337  0.00  0.00    +0.331 A 
ATOM      8  O   UNL     1      -6.596  -3.245   1.527  0.00  0.00    -0.246 OA
ATOM      9  N   UNL     1      -4.482  -2.844   2.043  0.00  0.00    -0.273 N 
ATOM     10  H   UNL     1      -4.483  -3.653   2.789  0.00  0.00    +0.173 HD
ATOM     11  C   UNL     1      -3.357  -2.129   1.850  0.00  0.00    +0.277 A 
ATOM     12  O   UNL     1      -2.352  -2.381   2.492  0.00  0.00    -0.266 OA
BRANCH   5  13
ATOM     13  N   UNL     1      -4.534   0.182  -0.741  0.00  0.00    -0.343 N 
ATOM     14  H   UNL     1      -5.455   0.381  -1.307  0.00  0.00    +0.144 HD
ATOM     15  H   UNL     1      -3.635   0.791  -0.921  0.00  0.00    +0.144 HD
ENDBRANCH   5  13
BRANCH   6  16
ATOM     16  C   UNL     1      -6.853  -1.331  -0.329  0.00  0.00    +0.131 C 
BRANCH  16  17
ATOM     17  C   UNL     1      -6.857  -2.170  -1.608  0.00  0.00    +0.003 C 
ATOM     18  C   UNL     1      -6.913  -3.655  -1.244  0.00  0.00    +0.009 C 
ATOM     19  C   UNL     1      -8.079  -1.805  -2.454  0.00  0.00    +0.009 C 
ENDBRANCH  16  17
ENDBRANCH   6  16
ENDBRANCH   3   4
BRANCH   1  25
ATOM     20  N   UNL     1       1.309   1.927   0.240  0.00  0.00    -0.160 N 
ATOM     21  C   UNL     1       2.404   1.439  -0.376  0.00  0.00    +0.240 C 
ATOM     22  O   UNL     1       3.403   2.119  -0.471  0.00  0.00    -0.273 OA
ATOM     23  C   UNL     1       2.382   0.043  -0.947  0.00  0.00    +0.104 C 
ATOM     24  C   UNL     1       1.495  -0.845  -0.073  0.00  0.00    +0.072 C 
ATOM     25  C   UNL     1       0.194  -0.140   0.208  0.00  0.00    +0.122 C 
ATOM     26  N   UNL     1       0.152   1.149   0.347  0.00  0.00    -0.172 NA
BRANCH  20  32
ATOM     27  C   UNL     1       3.310   5.204   3.311  0.00  0.00    +0.044 C 
ATOM     28  C   UNL     1       2.290   4.836   2.265  0.00  0.00    -0.049 A 
ATOM     29  C   UNL     1       1.374   5.777   1.831  0.00  0.00    +0.004 A 
ATOM     30  C   UNL     1       0.437   5.443   0.870  0.00  0.00    +0.005 A 
ATOM     31  C   UNL     1       0.416   4.169   0.338  0.00  0.00    -0.027 A 
ATOM     32  C   UNL     1       1.331   3.220   0.774  0.00  0.00    +0.063 A 
ATOM     33  C   UNL     1       2.271   3.559   1.739  0.00  0.00    +0.029 A 
ATOM     34  C   UNL     1      -0.602   3.808  -0.714  0.00  0.00    +0.046 C 
ENDBRANCH  20  32
ENDBRANCH   1  25
BRANCH   3  35
ATOM     35  C   UNL     1      -2.227   1.137   0.867  0.00  0.00    +0.117 C 
BRANCH  35  36
ATOM     36  C   UNL     1      -1.735   1.495   2.270  0.00  0.00    +0.001 C 
ATOM     37  C   UNL     1      -1.770   3.014   2.451  0.00  0.00    +0.009 C 
ATOM     38  C   UNL     1      -2.642   0.836   3.312  0.00  0.00    +0.009 C 
ENDBRANCH  35  36
ENDBRANCH   3  35
TORSDOF 8
