REMARK  Name = ZINC59489286
REMARK  10 active torsions:
REMARK  status: ('A' for Active; 'I' for Inactive)
REMARK    1  A    between atoms: C_1  and  C_2
REMARK    2  A    between atoms: C_2  and  C_26
REMARK    3  A    between atoms: N_3  and  N_4
REMARK    4  A    between atoms: C_5  and  S_7
REMARK    5  A    between atoms: S_7  and  C_8
REMARK    6  A    between atoms: N_13  and  C_16
REMARK    7  A    between atoms: C_19  and  C_22
REMARK    8  A    between atoms: C_22  and  O_24
REMARK    9  A    between atoms: O_24  and  C_25
REMARK   10  A    between atoms: C_29  and  O_32
REMARK                            x       y       z     vdW  Elec       q    Type
REMARK                         _______ _______ _______ _____ _____    ______ ____
ROOT
ATOM      1  S   UNL     1      -0.062   0.568   5.294  0.00  0.00    -0.078 S 
ENDROOT
BRANCH   1   2
ATOM      2  C   UNL     1      -0.001  -0.957   6.274  0.00  0.00    +0.149 C 
ATOM      3  C   UNL     1       0.231  -0.635   7.765  0.00  0.00    +0.120 C 
ATOM      4  C   UNL     1      -1.008  -1.180   8.442  0.00  0.00    +0.228 C 
ATOM      5  O   UNL     1      -1.235  -1.135   9.632  0.00  0.00    -0.275 OA
ATOM      6  N   UNL     1      -1.813  -1.720   7.519  0.00  0.00    -0.209 N 
ATOM      7  C   UNL     1      -1.344  -1.652   6.263  0.00  0.00    +0.240 C 
ATOM      8  O   UNL     1      -1.906  -2.078   5.276  0.00  0.00    -0.274 OA
BRANCH   6   9
ATOM      9  C   UNL     1      -3.040  -2.309   7.837  0.00  0.00    +0.044 A 
ATOM     10  C   UNL     1      -4.086  -1.521   8.305  0.00  0.00    +0.025 A 
ATOM     11  C   UNL     1      -5.297  -2.097   8.619  0.00  0.00    +0.017 A 
ATOM     12  C   UNL     1      -5.474  -3.475   8.467  0.00  0.00    +0.059 A 
ATOM     13  C   UNL     1      -4.420  -4.263   7.995  0.00  0.00    +0.017 A 
ATOM     14  C   UNL     1      -3.214  -3.679   7.678  0.00  0.00    +0.025 A 
BRANCH  12  15
ATOM     15  C   UNL     1      -6.769  -4.096   8.803  0.00  0.00    +0.339 C 
ATOM     16  O   UNL     1      -7.683  -3.409   9.213  0.00  0.00    -0.245 OA
BRANCH  15  17
ATOM     17  O   UNL     1      -6.937  -5.425   8.655  0.00  0.00    -0.464 OA
ATOM     18  C   UNL     1      -8.217  -5.958   9.000  0.00  0.00    +0.280 C 
ENDBRANCH  15  17
ENDBRANCH  12  15
ENDBRANCH   6   9
ENDBRANCH   1   2
BRANCH   1  20
ATOM     19  N   UNL     1      -0.327   0.909   2.603  0.00  0.00    -0.217 N 
ATOM     20  C   UNL     1      -0.244   0.001   3.636  0.00  0.00    +0.146 C 
ATOM     21  N   UNL     1      -0.302  -1.278   3.386  0.00  0.00    -0.380 N 
ATOM     22  H   UNL     1      -0.284   1.860   2.789  0.00  0.00    +0.176 HD
ATOM     23  H   UNL     1      -0.244  -1.917   4.113  0.00  0.00    +0.158 HD
ATOM     24  H   UNL     1      -0.402  -1.590   2.473  0.00  0.00    +0.158 HD
BRANCH  19  27
ATOM     25  C   UNL     1      -0.483   2.791   0.600  0.00  0.00    +0.068 C 
ATOM     26  C   UNL     1      -0.549   1.313   0.312  0.00  0.00    +0.063 C 
ATOM     27  N   UNL     1      -0.472   0.458   1.285  0.00  0.00    -0.185 NA
BRANCH  26  28
ATOM     28  C   UNL     1      -0.702   0.839  -1.076  0.00  0.00    -0.002 A 
ATOM     29  C   UNL     1      -0.780   1.758  -2.126  0.00  0.00    +0.013 A 
ATOM     30  C   UNL     1      -0.922   1.311  -3.421  0.00  0.00    +0.046 A 
ATOM     31  C   UNL     1      -0.989  -0.051  -3.684  0.00  0.00    +0.117 A 
ATOM     32  C   UNL     1      -0.912  -0.969  -2.644  0.00  0.00    +0.046 A 
ATOM     33  C   UNL     1      -0.763  -0.530  -1.346  0.00  0.00    +0.013 A 
BRANCH  31  34
ATOM     34  O   UNL     1      -1.130  -0.488  -4.963  0.00  0.00    -0.507 OA
ATOM     35  H   UNL     1      -0.292  -0.641  -5.421  0.00  0.00    +0.292 HD
ENDBRANCH  31  34
ENDBRANCH  26  28
ENDBRANCH  19  27
ENDBRANCH   1  20
TORSDOF 8
