REMARK  Name = ZINC59377355
REMARK  6 active torsions:
REMARK  status: ('A' for Active; 'I' for Inactive)
REMARK    1  A    between atoms: C_1  and  C_2
REMARK    2  A    between atoms: C_5  and  N_9
REMARK    3  A    between atoms: C_7  and  C_8
REMARK    4  A    between atoms: N_9  and  C_10
REMARK    5  A    between atoms: C_10  and  N_11
REMARK    6  A    between atoms: C_15  and  C_16
REMARK                            x       y       z     vdW  Elec       q    Type
REMARK                         _______ _______ _______ _____ _____    ______ ____
ROOT
ATOM      1  N   UNL     1       1.283  -5.326  -1.718  0.00  0.00    -0.239 N 
ATOM      2  C   UNL     1       2.047  -4.488  -2.397  0.00  0.00    +0.260 C 
ATOM      3  O   UNL     1       1.671  -3.364  -2.676  0.00  0.00    -0.269 OA
ATOM      4  C   UNL     1       3.377  -4.981  -2.800  0.00  0.00    +0.077 C 
ATOM      5  C   UNL     1       4.364  -4.349  -3.498  0.00  0.00    +0.029 C 
ATOM      6  S   UNL     1       3.340  -6.635  -2.123  0.00  0.00    -0.061 S 
ATOM      7  C   UNL     1       1.706  -6.569  -1.406  0.00  0.00    +0.122 C 
ATOM      8  S   UNL     1       0.876  -7.787  -0.536  0.00  0.00    -0.027 S 
ENDROOT
BRANCH   5   9
ATOM      9  C   UNL     1       5.576  -5.023  -3.776  0.00  0.00    -0.008 A 
ATOM     10  C   UNL     1       6.280  -5.684  -2.744  0.00  0.00    -0.010 A 
ATOM     11  C   UNL     1       5.797  -5.691  -1.426  0.00  0.00    +0.009 A 
ATOM     12  C   UNL     1       6.499  -6.338  -0.456  0.00  0.00    +0.001 A 
ATOM     13  C   UNL     1       7.693  -6.999  -0.735  0.00  0.00    +0.001 A 
ATOM     14  C   UNL     1       8.213  -7.030  -1.990  0.00  0.00    +0.008 A 
ATOM     15  C   UNL     1       7.534  -6.379  -3.041  0.00  0.00    -0.017 A 
ATOM     16  C   UNL     1       8.042  -6.392  -4.341  0.00  0.00    +0.017 A 
ATOM     17  C   UNL     1       7.356  -5.740  -5.367  0.00  0.00    -0.017 A 
ATOM     18  C   UNL     1       6.096  -5.048  -5.090  0.00  0.00    -0.010 A 
ATOM     19  C   UNL     1       5.426  -4.409  -6.147  0.00  0.00    +0.009 A 
ATOM     20  C   UNL     1       5.953  -4.453  -7.401  0.00  0.00    +0.001 A 
ATOM     21  C   UNL     1       7.147  -5.118  -7.669  0.00  0.00    +0.001 A 
ATOM     22  C   UNL     1       7.852  -5.740  -6.688  0.00  0.00    +0.008 A 
ENDBRANCH   5   9
BRANCH   1  23
ATOM     23  C   UNL     1      -0.049  -4.894  -1.288  0.00  0.00    +0.219 C 
BRANCH  23  24
ATOM     24  N   UNL     1      -0.029  -4.602   0.147  0.00  0.00    -0.328 N 
ATOM     25  H   UNL     1      -0.147  -5.319   0.790  0.00  0.00    +0.148 HD
BRANCH  24  30
ATOM     26  C   UNL     1       0.739   0.721   1.946  0.00  0.00    +0.044 C 
ATOM     27  C   UNL     1       0.535  -0.694   1.468  0.00  0.00    -0.047 A 
ATOM     28  C   UNL     1       0.340  -0.946   0.122  0.00  0.00    +0.005 A 
ATOM     29  C   UNL     1       0.153  -2.241  -0.320  0.00  0.00    +0.023 A 
ATOM     30  C   UNL     1       0.161  -3.291   0.590  0.00  0.00    +0.029 A 
ATOM     31  C   UNL     1       0.357  -3.034   1.941  0.00  0.00    +0.026 A 
ATOM     32  C   UNL     1       0.549  -1.737   2.375  0.00  0.00    -0.046 A 
ATOM     33  C   UNL     1       0.768  -1.458   3.839  0.00  0.00    +0.044 C 
ENDBRANCH  24  30
ENDBRANCH  23  24
ENDBRANCH   1  23
TORSDOF 4
