REMARK  Name = ZINC05561733
REMARK  10 active torsions:
REMARK  status: ('A' for Active; 'I' for Inactive)
REMARK    1  A    between atoms: C_1  and  C_2
REMARK    2  A    between atoms: C_3  and  C_13
REMARK    3  A    between atoms: C_4  and  C_12
REMARK    4  A    between atoms: C_13  and  C_14
REMARK    5  A    between atoms: C_14  and  C_15
REMARK    6  A    between atoms: C_15  and  O_17
REMARK    7  A    between atoms: O_17  and  C_18
REMARK    8  A    between atoms: C_18  and  C_19
REMARK    9  A    between atoms: N_21  and  C_22
REMARK   10  A    between atoms: C_28  and  C_30
REMARK                            x       y       z     vdW  Elec       q    Type
REMARK                         _______ _______ _______ _____ _____    ______ ____
ROOT
ATOM      1  C   UNL     1      -2.174   5.037  -1.396  0.00  0.00    +0.125 C 
ENDROOT
BRANCH   1   2
ATOM      2  C   UNL     1      -3.262   6.080  -1.381  0.00  0.00    +0.308 C 
ATOM      3  O   UNL     1      -3.688   6.493  -0.329  0.00  0.00    -0.251 OA
BRANCH   2   4
ATOM      4  O   UNL     1      -3.757   6.550  -2.537  0.00  0.00    -0.455 OA
BRANCH   4   5
ATOM      5  C   UNL     1      -4.803   7.553  -2.447  0.00  0.00    +0.327 C 
BRANCH   5   6
ATOM      6  C   UNL     1      -5.231   7.957  -3.834  0.00  0.00    +0.251 C 
ATOM      7  O   UNL     1      -4.707   7.451  -4.803  0.00  0.00    -0.272 OA
ATOM      8  N   UNL     1      -6.197   8.883  -3.998  0.00  0.00    -0.309 N 
ATOM      9  H   UNL     1      -6.617   9.288  -3.223  0.00  0.00    +0.149 HD
BRANCH   8  10
ATOM     10  C   UNL     1      -6.614   9.276  -5.346  0.00  0.00    +0.076 C 
ATOM     11  C   UNL     1      -7.670   8.296  -5.861  0.00  0.00    +0.022 C 
ATOM     12  C   UNL     1      -8.105   8.707  -7.269  0.00  0.00    +0.002 C 
ATOM     13  C   UNL     1      -8.695  10.117  -7.229  0.00  0.00    +0.000 C 
ATOM     14  C   UNL     1      -7.640  11.098  -6.714  0.00  0.00    +0.005 C 
ATOM     15  C   UNL     1      -7.205  10.687  -5.306  0.00  0.00    +0.006 C 
ATOM     16  C   UNL     1      -6.149  11.668  -4.792  0.00  0.00    +0.009 C 
ENDBRANCH   8  10
ENDBRANCH   5   6
ENDBRANCH   4   5
ENDBRANCH   2   4
ENDBRANCH   1   2
BRANCH   1  17
ATOM     17  C   UNL     1      -1.793   4.678   0.042  0.00  0.00    +0.050 C 
BRANCH  17  20
ATOM     18  C   UNL     1       1.007   5.479   0.021  0.00  0.00    +0.066 C 
ATOM     19  C   UNL     1       0.642   4.017   0.017  0.00  0.00    +0.047 A 
ATOM     20  C   UNL     1      -0.705   3.635   0.027  0.00  0.00    -0.005 A 
ATOM     21  C   UNL     1      -1.019   2.313   0.029  0.00  0.00    +0.048 A 
ATOM     22  N   UNL     1      -0.017   1.397   0.010  0.00  0.00    -0.199 N 
ATOM     23  C   UNL     1       1.288   1.803  -0.001  0.00  0.00    +0.255 A 
ATOM     24  N   UNL     1       1.589   3.106   0.003  0.00  0.00    -0.216 NA
ATOM     25  N   UNL     1       2.043   0.709  -0.014  0.00  0.00    -0.176 NA
ATOM     26  C   UNL     1       1.267  -0.372  -0.012  0.00  0.00    +0.234 A 
ATOM     27  N   UNL     1       0.002  -0.004   0.002  0.00  0.00    -0.128 NA
ATOM     28  N   UNL     1       1.722  -1.688  -0.024  0.00  0.00    -0.326 N 
ATOM     29  C   UNL     1      -2.460   1.871   0.047  0.00  0.00    +0.066 C 
ATOM     30  H   UNL     1       1.086  -2.421  -0.022  0.00  0.00    +0.145 HD
ATOM     31  H   UNL     1       2.674  -1.872  -0.034  0.00  0.00    +0.145 HD
ENDBRANCH  17  20
ENDBRANCH   1  17
TORSDOF 7
