REMARK  Name = ZINC39659168
REMARK  7 active torsions:
REMARK  status: ('A' for Active; 'I' for Inactive)
REMARK    1  A    between atoms: C_1  and  C_2
REMARK    2  A    between atoms: C_2  and  C_36
REMARK    3  A    between atoms: C_5  and  C_8
REMARK    4  A    between atoms: C_8  and  N_9
REMARK    5  A    between atoms: C_10  and  C_12
REMARK    6  A    between atoms: C_23  and  C_25
REMARK    7  A    between atoms: C_28  and  C_32
REMARK                            x       y       z     vdW  Elec       q    Type
REMARK                         _______ _______ _______ _____ _____    ______ ____
ROOT
ATOM      1  C   UNL     1       3.356  -2.244   5.752  0.00  0.00    +0.100 C 
ATOM      2  C   UNL     1       2.283  -1.678   6.709  0.00  0.00    +0.121 C 
ATOM      3  N   UNL     1       1.970  -2.800   7.625  0.00  0.00    -0.296 N 
ATOM      4  C   UNL     1       3.282  -3.439   7.888  0.00  0.00    +0.115 C 
ATOM      5  C   UNL     1       4.011  -3.397   6.530  0.00  0.00    -0.004 C 
ATOM      6  C   UNL     1       5.497  -3.117   6.738  0.00  0.00    -0.010 C 
ATOM      7  C   UNL     1       6.139  -4.303   7.463  0.00  0.00    -0.082 C 
ATOM      8  N   UNL     1       5.957  -5.523   6.666  0.00  0.00    +0.379 N 
ATOM      9  C   UNL     1       4.527  -5.836   6.550  0.00  0.00    -0.082 C 
ATOM     10  C   UNL     1       3.817  -4.715   5.786  0.00  0.00    -0.010 C 
ATOM     11  C   UNL     1       0.764  -3.158   8.111  0.00  0.00    +0.247 C 
ATOM     12  O   UNL     1      -0.242  -2.611   7.703  0.00  0.00    -0.270 OA
ATOM     13  H   UNL     1       6.345  -5.382   5.745  0.00  0.00    -0.086 HD
ATOM     14  H   UNL     1       6.433  -6.290   7.115  0.00  0.00    -0.086 HD
ENDROOT
BRANCH  11  15
ATOM     15  C   UNL     1       0.666  -4.216   9.139  0.00  0.00    +0.040 A 
ATOM     16  C   UNL     1       1.778  -4.541   9.918  0.00  0.00    +0.014 A 
ATOM     17  C   UNL     1       1.681  -5.528  10.877  0.00  0.00    +0.016 A 
ATOM     18  C   UNL     1       0.485  -6.198  11.067  0.00  0.00    +0.090 A 
ATOM     19  C   UNL     1      -0.622  -5.882  10.296  0.00  0.00    +0.136 A 
ATOM     20  C   UNL     1      -0.539  -4.891   9.337  0.00  0.00    +0.052 A 
ATOM     21  F   UNL     1      -1.786  -6.541  10.487  0.00  0.00    -0.205 F 
BRANCH  18  22
ATOM     22  C   UNL     1       0.387  -7.276  12.115  0.00  0.00    +0.420 C 
ATOM     23  F   UNL     1       1.622  -7.415  12.758  0.00  0.00    -0.166 F 
ATOM     24  F   UNL     1      -0.590  -6.926  13.053  0.00  0.00    -0.166 F 
ATOM     25  F   UNL     1       0.039  -8.487  11.508  0.00  0.00    -0.166 F 
ENDBRANCH  18  22
ENDBRANCH  11  15
BRANCH   1  27
ATOM     26  N   UNL     1       3.434  -2.852   3.355  0.00  0.00    -0.312 N 
ATOM     27  C   UNL     1       2.713  -2.761   4.490  0.00  0.00    +0.218 C 
ATOM     28  O   UNL     1       1.548  -3.096   4.497  0.00  0.00    -0.275 OA
ATOM     29  H   UNL     1       4.367  -2.584   3.350  0.00  0.00    +0.149 HD
BRANCH  26  30
ATOM     30  C   UNL     1       2.810  -3.355   2.129  0.00  0.00    +0.138 C 
BRANCH  30  35
ATOM     31  C   UNL     1       6.582  -4.812  -0.414  0.00  0.00    +0.074 C 
ATOM     32  C   UNL     1       5.098  -4.975  -0.079  0.00  0.00    +0.165 C 
ATOM     33  O   UNL     1       4.302  -4.308  -1.074  0.00  0.00    -0.347 OA
ATOM     34  C   UNL     1       3.177  -3.764  -0.344  0.00  0.00    +0.196 C 
ATOM     35  C   UNL     1       3.838  -3.356   0.996  0.00  0.00    +0.164 C 
ATOM     36  O   UNL     1       4.825  -4.387   1.200  0.00  0.00    -0.342 OA
ATOM     37  C   UNL     1       4.737  -6.462  -0.048  0.00  0.00    +0.074 C 
ENDBRANCH  30  35
ENDBRANCH  26  30
ENDBRANCH   1  27
TORSDOF 5
