REMARK  Name = ZINC39914596
REMARK  9 active torsions:
REMARK  status: ('A' for Active; 'I' for Inactive)
REMARK    1  A    between atoms: C_1  and  C_2
REMARK    2  A    between atoms: C_2  and  O_3
REMARK    3  A    between atoms: O_3  and  C_4
REMARK    4  A    between atoms: C_7  and  C_10
REMARK    5  A    between atoms: C_13  and  C_27
REMARK    6  A    between atoms: N_20  and  C_21
REMARK    7  A    between atoms: C_21  and  C_22
REMARK    8  A    between atoms: C_30  and  C_34
REMARK    9  A    between atoms: C_32  and  O_33
REMARK                            x       y       z     vdW  Elec       q    Type
REMARK                         _______ _______ _______ _____ _____    ______ ____
ROOT
ATOM      1  C   UNL     1       1.125  -5.999  -1.861  0.00  0.00    +0.142 C 
ATOM      2  C   UNL     1       2.525  -6.468  -1.575  0.00  0.00    +0.035 A 
ATOM      3  C   UNL     1       3.567  -6.577  -0.647  0.00  0.00    +0.102 A 
ATOM      4  N   UNL     1       4.570  -7.183  -1.249  0.00  0.00    -0.173 NA
ATOM      5  N   UNL     1       4.266  -7.468  -2.465  0.00  0.00    -0.272 N 
ATOM      6  H   UNL     1       4.852  -7.915  -3.096  0.00  0.00    +0.189 HD
ATOM      7  C   UNL     1       2.996  -7.047  -2.738  0.00  0.00    +0.126 A 
ATOM      8  C   UNL     1       1.945  -6.965  -3.758  0.00  0.00    +0.266 C 
ATOM      9  O   UNL     1       2.046  -7.387  -4.895  0.00  0.00    -0.268 OA
ATOM     10  N   UNL     1       0.852  -6.358  -3.259  0.00  0.00    -0.278 N 
ENDROOT
BRANCH   3  11
ATOM     11  C   UNL     1       3.545  -6.097   0.757  0.00  0.00    +0.045 A 
ATOM     12  C   UNL     1       2.370  -5.587   1.304  0.00  0.00    +0.034 A 
ATOM     13  C   UNL     1       2.355  -5.142   2.612  0.00  0.00    +0.045 A 
ATOM     14  C   UNL     1       3.506  -5.200   3.381  0.00  0.00    -0.029 A 
ATOM     15  C   UNL     1       4.676  -5.703   2.846  0.00  0.00    +0.050 A 
ATOM     16  C   UNL     1       4.703  -6.159   1.538  0.00  0.00    +0.126 A 
ATOM     17  C   UNL     1       3.481  -4.712   4.806  0.00  0.00    +0.045 C 
ATOM     18 CL   UNL     1       0.890  -4.507   3.293  0.00  0.00    -0.083 Cl
BRANCH  16  19
ATOM     19  O   UNL     1       5.852  -6.660   1.014  0.00  0.00    -0.506 OA
ATOM     20  H   UNL     1       6.412  -5.996   0.589  0.00  0.00    +0.292 HD
ENDBRANCH  16  19
ENDBRANCH   3  11
BRANCH   1  24
ATOM     21  C   UNL     1       0.859  -1.765  -1.350  0.00  0.00    +0.121 A 
ATOM     22  C   UNL     1       0.180  -2.613  -0.487  0.00  0.00    +0.046 A 
ATOM     23  C   UNL     1       0.267  -3.981  -0.655  0.00  0.00    +0.009 A 
ATOM     24  C   UNL     1       1.031  -4.506  -1.681  0.00  0.00    -0.022 A 
ATOM     25  C   UNL     1       1.709  -3.663  -2.542  0.00  0.00    +0.009 A 
ATOM     26  C   UNL     1       1.620  -2.294  -2.383  0.00  0.00    +0.046 A 
BRANCH  21  27
ATOM     27  O   UNL     1       0.775  -0.418  -1.188  0.00  0.00    -0.492 OA
BRANCH  27  29
ATOM     28  C   UNL     1      -0.002   1.585  -0.081  0.00  0.00    +0.048 C 
ATOM     29  C   UNL     1      -0.027   0.056  -0.104  0.00  0.00    +0.225 C 
ENDBRANCH  27  29
ENDBRANCH  21  27
ENDBRANCH   1  24
BRANCH  10  30
ATOM     30  C   UNL     1      -0.395  -6.100  -3.983  0.00  0.00    +0.183 C 
BRANCH  30  31
ATOM     31  C   UNL     1      -0.317  -4.752  -4.653  0.00  0.00    +0.122 A 
ATOM     32  C   UNL     1       0.140  -4.518  -5.897  0.00  0.00    +0.046 A 
ATOM     33  C   UNL     1       0.035  -3.125  -6.116  0.00  0.00    +0.041 A 
ATOM     34  C   UNL     1      -0.480  -2.592  -4.993  0.00  0.00    +0.195 A 
ATOM     35  O   UNL     1      -0.696  -3.583  -4.113  0.00  0.00    -0.466 OA
ENDBRANCH  30  31
ENDBRANCH  10  30
TORSDOF 7
