REMARK  Name = ZINC27981351
REMARK  7 active torsions:
REMARK  status: ('A' for Active; 'I' for Inactive)
REMARK    1  A    between atoms: C_3  and  C_6
REMARK    2  A    between atoms: N_8  and  C_9
REMARK    3  A    between atoms: C_12  and  C_14
REMARK    4  A    between atoms: N_16  and  C_17
REMARK    5  A    between atoms: C_20  and  N_23
REMARK    6  A    between atoms: N_26  and  C_27
REMARK    7  A    between atoms: C_27  and  C_28
REMARK                            x       y       z     vdW  Elec       q    Type
REMARK                         _______ _______ _______ _____ _____    ______ ____
ROOT
ATOM      1  C   UNL     1      -7.832   5.290   8.764  0.00  0.00    +0.255 C 
ATOM      2  O   UNL     1      -8.230   5.166   7.619  0.00  0.00    -0.269 OA
ATOM      3  N   UNL     1      -6.595   4.872   9.096  0.00  0.00    -0.281 N 
ATOM      4  H   UNL     1      -6.207   5.052  10.109  0.00  0.00    +0.155 HD
ENDROOT
BRANCH   3   5
ATOM      5  C   UNL     1      -5.803   4.208   8.151  0.00  0.00    +0.034 A 
ATOM      6  C   UNL     1      -4.948   3.190   8.553  0.00  0.00    +0.025 A 
ATOM      7  C   UNL     1      -4.167   2.536   7.621  0.00  0.00    +0.025 A 
ATOM      8  C   UNL     1      -4.235   2.897   6.282  0.00  0.00    +0.035 A 
ATOM      9  C   UNL     1      -5.086   3.918   5.881  0.00  0.00    +0.025 A 
ATOM     10  C   UNL     1      -5.871   4.569   6.811  0.00  0.00    +0.025 A 
BRANCH   8  11
ATOM     11  N   UNL     1      -3.442   2.233   5.337  0.00  0.00    -0.269 N 
ATOM     12  C   UNL     1      -3.184   0.918   5.478  0.00  0.00    +0.304 C 
ATOM     13  O   UNL     1      -3.568   0.325   6.467  0.00  0.00    -0.253 OA
ATOM     14  N   UNL     1      -2.499   0.259   4.521  0.00  0.00    -0.297 N 
ATOM     15  H   UNL     1      -3.030   2.786   4.479  0.00  0.00    +0.156 HD
ATOM     16  H   UNL     1      -2.152   0.795   3.626  0.00  0.00    +0.150 HD
BRANCH  14  17
ATOM     17  C   UNL     1      -2.219  -1.170   4.674  0.00  0.00    +0.137 C 
BRANCH  17  18
ATOM     18  C   UNL     1      -1.435  -1.669   3.459  0.00  0.00    +0.135 C 
ATOM     19  C   UNL     1      -1.127  -3.177   3.599  0.00  0.00    +0.035 C 
ATOM     20  C   UNL     1      -1.266  -3.723   2.160  0.00  0.00    +0.031 C 
ATOM     21  C   UNL     1      -1.641  -2.482   1.321  0.00  0.00    +0.160 C 
ATOM     22  O   UNL     1      -2.242  -1.565   2.262  0.00  0.00    -0.375 OA
ENDBRANCH  17  18
ENDBRANCH  14  17
ENDBRANCH   8  11
ENDBRANCH   3   5
BRANCH   1  26
ATOM     23  C   UNL     1      -9.851   6.889  11.915  0.00  0.00    +0.073 A 
ATOM     24  C   UNL     1     -10.558   6.881  10.731  0.00  0.00    +0.032 A 
ATOM     25  C   UNL     1      -9.963   6.363   9.612  0.00  0.00    +0.022 A 
ATOM     26  C   UNL     1      -8.671   5.874   9.747  0.00  0.00    +0.076 A 
ATOM     27  S   UNL     1      -8.340   6.161  11.476  0.00  0.00    -0.069 S 
BRANCH  23  30
ATOM     28  C   UNL     1      -9.417   7.282  14.211  0.00  0.00    +0.284 C 
ATOM     29  O   UNL     1      -8.308   6.800  14.073  0.00  0.00    -0.266 OA
ATOM     30  N   UNL     1     -10.254   7.359  13.157  0.00  0.00    -0.273 N 
ATOM     31  H   UNL     1     -11.256   7.795  13.282  0.00  0.00    +0.156 HD
BRANCH  28  34
ATOM     32  C   UNL     1      -9.891   8.333  17.674  0.00  0.00    +0.042 A 
ATOM     33  C   UNL     1      -9.097   7.762  16.667  0.00  0.00    +0.054 A 
ATOM     34  C   UNL     1      -9.842   7.779  15.523  0.00  0.00    +0.189 A 
ATOM     35  O   UNL     1     -11.035   8.339  15.810  0.00  0.00    -0.458 OA
ATOM     36  C   UNL     1     -11.071   8.670  17.107  0.00  0.00    +0.196 A 
ENDBRANCH  28  34
ENDBRANCH  23  30
ENDBRANCH   1  26
TORSDOF 7
