REMARK  Name = ZINC13699414
REMARK  13 active torsions:
REMARK  status: ('A' for Active; 'I' for Inactive)
REMARK    1  A    between atoms: C_1  and  C_2
REMARK    2  A    between atoms: C_2  and  N_3
REMARK    3  A    between atoms: C_4  and  C_9
REMARK    4  A    between atoms: C_6  and  C_8
REMARK    5  A    between atoms: N_11  and  C_12
REMARK    6  A    between atoms: C_13  and  C_24
REMARK    7  A    between atoms: C_17  and  C_22
REMARK    8  A    between atoms: C_17  and  C_23
REMARK    9  A    between atoms: C_18  and  C_20
REMARK   10  A    between atoms: C_18  and  C_21
REMARK   11  A    between atoms: C_24  and  O_26
REMARK   12  A    between atoms: O_26  and  C_27
REMARK   13  A    between atoms: C_27  and  C_28
REMARK                            x       y       z     vdW  Elec       q    Type
REMARK                         _______ _______ _______ _____ _____    ______ ____
ROOT
ATOM      1  C   UNL     1       1.181   1.674  -0.093  0.00  0.00    +0.087 A 
ATOM      2  C   UNL     1       2.481   1.177  -0.130  0.00  0.00    +0.091 A 
ATOM      3  C   UNL     1       3.559   2.142  -0.161  0.00  0.00    -0.024 A 
ATOM      4  C   UNL     1       3.182   3.441  -0.138  0.00  0.00    -0.016 A 
ATOM      5  S   UNL     1       1.414   3.391  -0.086  0.00  0.00    -0.079 S 
ATOM      6  C   UNL     1       4.085   4.631  -0.146  0.00  0.00    -0.041 C 
ATOM      7  C   UNL     1       5.731   2.955  -0.993  0.00  0.00    -0.069 C 
ATOM      8  C   UNL     1       5.046   1.819  -0.224  0.00  0.00    +0.024 C 
ATOM      9  C   UNL     1       5.271   2.925  -2.454  0.00  0.00    -0.010 C 
ATOM     10  C   UNL     1       7.248   2.693  -0.970  0.00  0.00    -0.010 C 
ATOM     11  C   UNL     1       3.608   5.626  -1.213  0.00  0.00    -0.005 C 
ATOM     12  C   UNL     1       3.989   5.323   1.226  0.00  0.00    -0.005 C 
ATOM     13  N   UNL     1       5.519   4.290  -0.376  0.00  0.00    +0.389 N 
ATOM     14  H   UNL     1       6.004   4.308   0.529  0.00  0.00    -0.084 HD
ATOM     15  H   UNL     1       5.925   5.000  -0.996  0.00  0.00    -0.084 HD
ENDROOT
BRANCH   1  18
ATOM     16  C   UNL     1      -1.184   1.624  -0.036  0.00  0.00    +0.267 C 
ATOM     17  O   UNL     1      -1.200   2.837   0.057  0.00  0.00    -0.268 OA
ATOM     18  N   UNL     1      -0.008   0.966  -0.065  0.00  0.00    -0.274 N 
ATOM     19  H   UNL     1       0.005  -0.004  -0.071  0.00  0.00    +0.156 HD
BRANCH  16  21
ATOM     20  N   UNL     1      -3.707   1.400  -0.187  0.00  0.00    -0.259 N 
ATOM     21  C   UNL     1      -2.448   0.876  -0.116  0.00  0.00    +0.124 A 
ATOM     22  C   UNL     1      -2.599  -0.500  -0.128  0.00  0.00    +0.057 A 
ATOM     23  C   UNL     1      -3.976  -0.719  -0.214  0.00  0.00    +0.061 A 
ATOM     24  N   UNL     1      -4.567   0.448  -0.248  0.00  0.00    -0.176 NA
ATOM     25  C   UNL     1      -4.659  -2.062  -0.259  0.00  0.00    +0.067 C 
BRANCH  20  27
ATOM     26  C   UNL     1      -4.148   3.316  -1.641  0.00  0.00    +0.029 C 
ATOM     27  C   UNL     1      -4.028   2.829  -0.196  0.00  0.00    +0.141 C 
ENDBRANCH  20  27
ENDBRANCH  16  21
ENDBRANCH   1  18
BRANCH   2  28
ATOM     28  C   UNL     1       2.733  -0.265  -0.134  0.00  0.00    +0.342 C 
ATOM     29  O   UNL     1       2.807  -0.867  -1.188  0.00  0.00    -0.245 OA
BRANCH  28  30
ATOM     30  O   UNL     1       2.884  -0.926   1.032  0.00  0.00    -0.461 OA
BRANCH  30  31
ATOM     31  C   UNL     1       3.131  -2.355   0.953  0.00  0.00    +0.229 C 
ATOM     32  C   UNL     1       3.274  -2.927   2.365  0.00  0.00    +0.048 C 
ENDBRANCH  30  31
ENDBRANCH  28  30
ENDBRANCH   2  28
TORSDOF 6
