REMARK  Name = ZINC63295966
REMARK  5 active torsions:
REMARK  status: ('A' for Active; 'I' for Inactive)
REMARK    1  A    between atoms: C_3  and  O_29
REMARK    2  A    between atoms: C_6  and  N_7
REMARK    3  A    between atoms: C_8  and  C_10
REMARK    4  A    between atoms: C_10  and  N_11
REMARK    5  A    between atoms: O_29  and  C_30
REMARK                            x       y       z     vdW  Elec       q    Type
REMARK                         _______ _______ _______ _____ _____    ______ ____
ROOT
ATOM      1  N   UNL     1      -2.198  -4.260  -0.309  0.00  0.00    -0.291 N 
ATOM      2  C   UNL     1      -3.212  -5.142  -0.417  0.00  0.00    +0.303 C 
ATOM      3  O   UNL     1      -4.356  -4.744  -0.516  0.00  0.00    -0.253 OA
ATOM      4  N   UNL     1      -2.957  -6.465  -0.414  0.00  0.00    -0.283 N 
ATOM      5  C   UNL     1      -1.568  -6.936  -0.401  0.00  0.00    +0.114 C 
ATOM      6  C   UNL     1      -1.343  -7.837   0.827  0.00  0.00    +0.052 C 
ATOM      7  C   UNL     1      -2.520  -8.779   0.894  0.00  0.00    -0.035 C 
ATOM      8  C   UNL     1      -2.581 -10.102   0.988  0.00  0.00    +0.001 A 
ATOM      9  C   UNL     1      -1.534 -11.120   1.171  0.00  0.00    +0.030 A 
ATOM     10  C   UNL     1      -1.954 -12.413   1.206  0.00  0.00    +0.042 A 
ATOM     11  C   UNL     1      -3.296 -12.790   1.077  0.00  0.00    +0.022 A 
ATOM     12  C   UNL     1      -4.324 -11.919   0.914  0.00  0.00    +0.027 A 
ATOM     13  C   UNL     1      -4.008 -10.530   0.871  0.00  0.00    +0.043 A 
ATOM     14  N   UNL     1      -4.785  -9.494   0.749  0.00  0.00    -0.376 N 
ATOM     15  C   UNL     1      -3.961  -8.288   0.835  0.00  0.00    +0.124 C 
ATOM     16  C   UNL     1      -4.075  -7.422  -0.418  0.00  0.00    +0.138 C 
ATOM     17 CL   UNL     1      -0.766 -13.660   1.420  0.00  0.00    -0.084 Cl
ATOM     18  H   UNL     1      -1.280  -4.574  -0.303  0.00  0.00    +0.151 HD
ATOM     19  H   UNL     1      -5.746  -9.518   0.622  0.00  0.00    +0.160 HD
ENDROOT
BRANCH   1  20
ATOM     20  C   UNL     1      -2.482  -2.827  -0.200  0.00  0.00    +0.202 C 
BRANCH  20  22
ATOM     21  N   UNL     1      -1.202  -0.722   0.018  0.00  0.00    -0.284 N 
ATOM     22  C   UNL     1      -1.187  -2.065  -0.092  0.00  0.00    +0.234 C 
ATOM     23  O   UNL     1      -0.130  -2.660  -0.105  0.00  0.00    -0.274 OA
ATOM     24  H   UNL     1      -2.047  -0.252   0.104  0.00  0.00    +0.155 HD
BRANCH  21  30
ATOM     25  C   UNL     1       1.074  -0.456  -0.747  0.00  0.00    +0.027 A 
ATOM     26  C   UNL     1       2.259   0.252  -0.754  0.00  0.00    +0.048 A 
ATOM     27  C   UNL     1       2.378   1.415  -0.006  0.00  0.00    +0.130 A 
ATOM     28  C   UNL     1       1.307   1.866   0.750  0.00  0.00    +0.048 A 
ATOM     29  C   UNL     1       0.121   1.159   0.759  0.00  0.00    +0.027 A 
ATOM     30  C   UNL     1       0.001  -0.004   0.010  0.00  0.00    +0.034 A 
BRANCH  27  31
ATOM     31  O   UNL     1       3.546   2.111  -0.014  0.00  0.00    -0.406 OA
BRANCH  31  32
ATOM     32  C   UNL     1       3.599   3.298   0.779  0.00  0.00    +0.575 C 
ATOM     33  F   UNL     1       3.363   2.974   2.120  0.00  0.00    -0.133 F 
ATOM     34  F   UNL     1       4.863   3.886   0.657  0.00  0.00    -0.133 F 
ATOM     35  F   UNL     1       2.622   4.197   0.338  0.00  0.00    -0.133 F 
ENDBRANCH  31  32
ENDBRANCH  27  31
ENDBRANCH  21  30
ENDBRANCH  20  22
ENDBRANCH   1  20
TORSDOF 5
