REMARK  Name = ZINC36303393
REMARK  17 active torsions:
REMARK  status: ('A' for Active; 'I' for Inactive)
REMARK    1  A    between atoms: C_1  and  C_2
REMARK    2  A    between atoms: C_2  and  C_3
REMARK    3  A    between atoms: C_4  and  C_22
REMARK    4  A    between atoms: C_5  and  O_15
REMARK    5  A    between atoms: N_6  and  C_8
REMARK    6  A    between atoms: O_15  and  C_16
REMARK    7  A    between atoms: C_22  and  N_23
REMARK    8  A    between atoms: N_23  and  C_24
REMARK    9  A    between atoms: N_23  and  C_30
REMARK   10  A    between atoms: C_24  and  C_25
REMARK   11  A    between atoms: C_30  and  C_31
REMARK   12  A    between atoms: C_31  and  C_33
REMARK   13  A    between atoms: C_31  and  O_38
REMARK   14  A    between atoms: C_33  and  O_34
REMARK   15  A    between atoms: O_34  and  C_35
REMARK   16  A    between atoms: C_35  and  C_36
REMARK   17  A    between atoms: C_35  and  C_37
REMARK                            x       y       z     vdW  Elec       q    Type
REMARK                         _______ _______ _______ _____ _____    ______ ____
ROOT
ATOM      1  C   UNL     1       0.685   0.778   0.708  0.00  0.00    +0.068 A 
ATOM      2  C   UNL     1       1.967   0.309   1.007  0.00  0.00    +0.021 A 
ATOM      3  C   UNL     1       2.028   0.086   2.347  0.00  0.00    +0.225 A 
ATOM      4  N   UNL     1       0.815   0.408   2.871  0.00  0.00    -0.200 N 
ATOM      5  N   UNL     1      -0.003   0.843   1.820  0.00  0.00    -0.168 NA
ENDROOT
BRANCH   4   6
ATOM      6  C   UNL     1       0.450   0.324   4.222  0.00  0.00    +0.069 A 
ATOM      7  C   UNL     1       0.834  -0.775   4.979  0.00  0.00    +0.031 A 
ATOM      8  C   UNL     1       0.473  -0.856   6.309  0.00  0.00    +0.040 A 
ATOM      9  C   UNL     1      -0.272   0.158   6.889  0.00  0.00    +0.124 A 
ATOM     10  C   UNL     1      -0.657   1.254   6.135  0.00  0.00    +0.040 A 
ATOM     11  C   UNL     1      -0.292   1.342   4.806  0.00  0.00    +0.031 A 
ATOM     12  F   UNL     1      -0.625   0.077   8.190  0.00  0.00    -0.205 F 
ENDBRANCH   4   6
BRANCH   1  14
ATOM     13  C   UNL     1       0.465   2.633  -0.923  0.00  0.00    +0.010 C 
ATOM     14  C   UNL     1       0.181   1.153  -0.662  0.00  0.00    +0.054 C 
ENDBRANCH   1  14
BRANCH   3  15
ATOM     15  O   UNL     1       3.103  -0.374   3.036  0.00  0.00    -0.438 OA
BRANCH  15  16
ATOM     16  C   UNL     1       3.284  -1.719   3.114  0.00  0.00    +0.130 A 
ATOM     17  C   UNL     1       2.447  -2.574   2.410  0.00  0.00    +0.046 A 
ATOM     18  C   UNL     1       2.632  -3.940   2.491  0.00  0.00    +0.004 A 
ATOM     19  C   UNL     1       3.650  -4.456   3.272  0.00  0.00    +0.000 A 
ATOM     20  C   UNL     1       4.484  -3.607   3.975  0.00  0.00    +0.004 A 
ATOM     21  C   UNL     1       4.308  -2.239   3.892  0.00  0.00    +0.046 A 
ENDBRANCH  15  16
ENDBRANCH   3  15
BRANCH   2  22
ATOM     22  C   UNL     1       3.084   0.089   0.020  0.00  0.00    -0.035 C 
BRANCH  22  23
ATOM     23  N   UNL     1       3.877   1.320  -0.104  0.00  0.00    +0.389 N 
ATOM     24  H   UNL     1       3.270   2.088  -0.347  0.00  0.00    -0.081 HD
BRANCH  23  25
ATOM     25  C   UNL     1       4.540   1.606   1.175  0.00  0.00    -0.003 C 
BRANCH  25  26
ATOM     26  C   UNL     1       5.237   2.939   1.093  0.00  0.00    +0.089 A 
ATOM     27  C   UNL     1       4.721   4.122   1.473  0.00  0.00    +0.042 A 
ATOM     28  C   UNL     1       5.710   5.100   1.222  0.00  0.00    +0.041 A 
ATOM     29  C   UNL     1       6.771   4.457   0.703  0.00  0.00    +0.195 A 
ATOM     30  O   UNL     1       6.482   3.148   0.632  0.00  0.00    -0.470 OA
ENDBRANCH  25  26
ENDBRANCH  23  25
BRANCH  23  31
ATOM     31  C   UNL     1       4.891   1.145  -1.153  0.00  0.00    -0.044 C 
BRANCH  31  32
ATOM     32  C   UNL     1       4.201   0.998  -2.510  0.00  0.00    +0.124 C 
BRANCH  32  33
ATOM     33  O   UNL     1       3.452   2.182  -2.794  0.00  0.00    -0.391 OA
ATOM     34  H   UNL     1       3.995   2.974  -2.906  0.00  0.00    +0.210 HD
ENDBRANCH  32  33
BRANCH  32  35
ATOM     35  C   UNL     1       5.255   0.789  -3.599  0.00  0.00    +0.189 C 
BRANCH  35  36
ATOM     36  O   UNL     1       4.607   0.536  -4.847  0.00  0.00    -0.375 OA
BRANCH  36  37
ATOM     37  C   UNL     1       5.508   0.325  -5.937  0.00  0.00    +0.112 C 
ATOM     38  C   UNL     1       5.839  -1.165  -6.044  0.00  0.00    +0.037 C 
ATOM     39  C   UNL     1       4.854   0.797  -7.237  0.00  0.00    +0.037 C 
ENDBRANCH  36  37
ENDBRANCH  35  36
ENDBRANCH  32  35
ENDBRANCH  31  32
ENDBRANCH  23  31
ENDBRANCH  22  23
ENDBRANCH   2  22
TORSDOF 14
