REMARK  Name = ZINC08928002
REMARK  7 active torsions:
REMARK  status: ('A' for Active; 'I' for Inactive)
REMARK    1  A    between atoms: C_1  and  C_2
REMARK    2  A    between atoms: C_2  and  N_54
REMARK    3  A    between atoms: C_10  and  O_31
REMARK    4  A    between atoms: C_12  and  C_15
REMARK    5  A    between atoms: C_18  and  O_21
REMARK    6  A    between atoms: O_21  and  C_22
REMARK    7  A    between atoms: C_22  and  C_24
REMARK                            x       y       z     vdW  Elec       q    Type
REMARK                         _______ _______ _______ _____ _____    ______ ____
ROOT
ATOM      1  C   UNL     1      -2.752   7.115   0.289  0.00  0.00    -0.074 C 
ATOM      2  C   UNL     1      -2.653   5.692   0.845  0.00  0.00    +0.018 C 
ATOM      3  C   UNL     1      -2.170   4.776  -0.274  0.00  0.00    -0.027 A 
ATOM      4  C   UNL     1      -2.255   5.182  -1.563  0.00  0.00    -0.021 A 
ATOM      5  S   UNL     1      -1.595   3.835  -2.508  0.00  0.00    -0.080 S 
ATOM      6  C   UNL     1      -1.227   2.765  -1.224  0.00  0.00    +0.080 A 
ATOM      7  C   UNL     1      -1.604   3.457  -0.065  0.00  0.00    +0.067 A 
ATOM      8  C   UNL     1      -1.401   2.766   1.234  0.00  0.00    +0.220 C 
ATOM      9  N   UNL     1      -0.700   1.666   1.235  0.00  0.00    -0.223 NA
ATOM     10  C   UNL     1      -0.021   1.113   0.070  0.00  0.00    +0.224 C 
ATOM     11  N   UNL     1      -0.694   1.500  -1.185  0.00  0.00    -0.313 N 
ATOM     12  C   UNL     1      -2.795   6.489  -2.051  0.00  0.00    -0.035 C 
ATOM     13  H   UNL     1      -0.755   0.895  -1.940  0.00  0.00    +0.149 HD
ATOM     14  N   UNL     1      -3.566   7.104  -0.944  0.00  0.00    +0.383 N 
ATOM     15  H   UNL     1      -4.414   6.549  -0.779  0.00  0.00    -0.081 HD
ENDROOT
BRANCH  10  16
ATOM     16  C   UNL     1       1.399   1.616   0.042  0.00  0.00    -0.005 A 
ATOM     17  C   UNL     1       2.058   1.757  -1.165  0.00  0.00    +0.011 A 
ATOM     18  C   UNL     1       3.358   2.224  -1.193  0.00  0.00    +0.047 A 
ATOM     19  C   UNL     1       4.006   2.541  -0.008  0.00  0.00    +0.132 A 
ATOM     20  C   UNL     1       3.344   2.393   1.203  0.00  0.00    +0.047 A 
ATOM     21  C   UNL     1       2.042   1.931   1.225  0.00  0.00    +0.011 A 
BRANCH  19  22
ATOM     22  O   UNL     1       5.287   2.994  -0.032  0.00  0.00    -0.422 OA
BRANCH  22  23
ATOM     23  C   UNL     1       6.235   2.174   0.461  0.00  0.00    +0.346 C 
ATOM     24  O   UNL     1       5.944   1.046   0.804  0.00  0.00    -0.244 OA
BRANCH  23  25
ATOM     25  C   UNL     1       7.628   2.647   0.585  0.00  0.00    +0.078 A 
ATOM     26  C   UNL     1       7.966   3.944   0.192  0.00  0.00    +0.016 A 
ATOM     27  C   UNL     1       9.269   4.380   0.310  0.00  0.00    +0.001 A 
ATOM     28  C   UNL     1      10.242   3.536   0.819  0.00  0.00    +0.001 A 
ATOM     29  C   UNL     1       9.916   2.251   1.210  0.00  0.00    +0.021 A 
ATOM     30  C   UNL     1       8.614   1.802   1.102  0.00  0.00    +0.055 A 
ATOM     31 CL   UNL     1       8.204   0.191   1.601  0.00  0.00    -0.083 Cl
ENDBRANCH  23  25
ENDBRANCH  22  23
ENDBRANCH  19  22
ENDBRANCH  10  16
BRANCH  14  33
ATOM     32  C   UNL     1      -2.719   9.368  -1.454  0.00  0.00    -0.017 C 
ATOM     33  C   UNL     1      -3.958   8.483  -1.305  0.00  0.00    -0.082 C 
ENDBRANCH  14  33
BRANCH   8  34
ATOM     34  O   UNL     1      -1.925   3.261   2.379  0.00  0.00    -0.492 OA
ATOM     35  H   UNL     1      -1.730   2.731   3.163  0.00  0.00    +0.294 HD
ENDBRANCH   8  34
TORSDOF 6
