REMARK  Name = ZINC24212154
REMARK  13 active torsions:
REMARK  status: ('A' for Active; 'I' for Inactive)
REMARK    1  A    between atoms: C_1  and  C_2
REMARK    2  A    between atoms: C_2  and  C_3
REMARK    3  A    between atoms: C_3  and  C_31
REMARK    4  A    between atoms: N_6  and  N_10
REMARK    5  A    between atoms: C_11  and  C_13
REMARK    6  A    between atoms: C_13  and  N_14
REMARK    7  A    between atoms: N_14  and  C_15
REMARK    8  A    between atoms: N_14  and  C_17
REMARK    9  A    between atoms: C_15  and  C_16
REMARK   10  A    between atoms: C_17  and  C_18
REMARK   11  A    between atoms: N_20  and  C_21
REMARK   12  A    between atoms: C_24  and  N_27
REMARK   13  A    between atoms: C_28  and  C_30
REMARK                            x       y       z     vdW  Elec       q    Type
REMARK                         _______ _______ _______ _____ _____    ______ ____
ROOT
ATOM      1  C   UNL     1      -7.021   8.225   1.141  0.00  0.00    +0.021 C 
ENDROOT
BRANCH   1   3
ATOM      2  N   UNL     1      -7.787  10.443   1.923  0.00  0.00    -0.225 N 
ATOM      3  C   UNL     1      -6.796   9.692   1.403  0.00  0.00    +0.213 C 
ATOM      4  O   UNL     1      -5.724  10.197   1.147  0.00  0.00    -0.276 OA
ATOM      5  H   UNL     1      -8.760   9.986   2.156  0.00  0.00    +0.173 HD
BRANCH   2   9
ATOM      6  C   UNL     1      -7.209  13.826   3.170  0.00  0.00    +0.139 C 
ATOM      7  C   UNL     1      -7.394  12.338   3.392  0.00  0.00    +0.268 C 
ATOM      8  O   UNL     1      -7.379  11.748   4.451  0.00  0.00    -0.271 OA
ATOM      9  N   UNL     1      -7.578  11.807   2.167  0.00  0.00    -0.137 N 
ATOM     10  C   UNL     1      -7.543  12.744   1.212  0.00  0.00    +0.327 C 
ATOM     11  O   UNL     1      -7.688  12.509   0.029  0.00  0.00    -0.251 OA
ATOM     12  N   UNL     1      -7.328  13.976   1.709  0.00  0.00    -0.280 N 
ATOM     13  H   UNL     1      -7.237  14.971   1.249  0.00  0.00    +0.152 HD
BRANCH   6  14
ATOM     14  C   UNL     1      -8.293  14.602   3.873  0.00  0.00    -0.015 A 
ATOM     15  C   UNL     1      -8.070  15.107   5.140  0.00  0.00    +0.006 A 
ATOM     16  C   UNL     1      -9.062  15.823   5.783  0.00  0.00    +0.000 A 
ATOM     17  C   UNL     1     -10.281  16.025   5.163  0.00  0.00    +0.000 A 
ATOM     18  C   UNL     1     -10.506  15.515   3.898  0.00  0.00    +0.000 A 
ATOM     19  C   UNL     1      -9.511  14.803   3.253  0.00  0.00    +0.006 A 
ENDBRANCH   6  14
BRANCH   6  21
ATOM     20  C   UNL     1      -4.746  13.529   2.867  0.00  0.00    +0.007 C 
ATOM     21  C   UNL     1      -5.828  14.281   3.647  0.00  0.00    +0.037 C 
ENDBRANCH   6  21
ENDBRANCH   2   9
ENDBRANCH   1   3
BRANCH   1  22
ATOM     22  N   UNL     1      -5.813   7.644   0.540  0.00  0.00    +0.391 N 
ATOM     23  H   UNL     1      -4.945   8.003   1.112  0.00  0.00    -0.080 HD
BRANCH  22  24
ATOM     24  C   UNL     1      -5.652   8.088  -0.851  0.00  0.00    -0.081 C 
ATOM     25  C   UNL     1      -6.865   7.646  -1.671  0.00  0.00    -0.017 C 
ENDBRANCH  22  24
BRANCH  22  26
ATOM     26  C   UNL     1      -5.836   6.178   0.626  0.00  0.00    +0.020 C 
BRANCH  26  27
ATOM     27  C   UNL     1      -4.489   5.631   0.229  0.00  0.00    +0.201 C 
ATOM     28  O   UNL     1      -3.598   6.388  -0.093  0.00  0.00    -0.278 OA
ATOM     29  N   UNL     1      -4.274   4.301   0.232  0.00  0.00    -0.287 N 
ATOM     30  H   UNL     1      -5.058   3.618   0.591  0.00  0.00    +0.155 HD
BRANCH  29  31
ATOM     31  C   UNL     1      -3.052   3.787  -0.220  0.00  0.00    +0.033 A 
ATOM     32  C   UNL     1      -3.017   2.583  -0.910  0.00  0.00    +0.025 A 
ATOM     33  C   UNL     1      -1.813   2.077  -1.357  0.00  0.00    +0.025 A 
ATOM     34  C   UNL     1      -0.635   2.773  -1.116  0.00  0.00    +0.033 A 
ATOM     35  C   UNL     1      -0.669   3.975  -0.420  0.00  0.00    +0.025 A 
ATOM     36  C   UNL     1      -1.874   4.483   0.021  0.00  0.00    +0.025 A 
BRANCH  34  37
ATOM     37  N   UNL     1       0.587   2.260  -1.569  0.00  0.00    -0.286 N 
ATOM     38  C   UNL     1       0.646   1.598  -2.741  0.00  0.00    +0.214 C 
ATOM     39  O   UNL     1      -0.369   1.384  -3.369  0.00  0.00    -0.276 OA
ATOM     40  C   UNL     1       1.974   1.123  -3.272  0.00  0.00    +0.109 C 
ATOM     41  H   UNL     1       1.498   2.398  -0.968  0.00  0.00    +0.155 HD
ENDBRANCH  34  37
ENDBRANCH  29  31
ENDBRANCH  26  27
ENDBRANCH  22  26
ENDBRANCH   1  22
TORSDOF 10
