REMARK  Name = ZINC37254470
REMARK  6 active torsions:
REMARK  status: ('A' for Active; 'I' for Inactive)
REMARK    1  A    between atoms: C_1  and  C_2
REMARK    2  A    between atoms: C_7  and  N_10
REMARK    3  A    between atoms: N_10  and  S_11
REMARK    4  A    between atoms: S_11  and  C_14
REMARK    5  A    between atoms: C_17  and  N_22
REMARK    6  A    between atoms: C_19  and  C_20
REMARK                            x       y       z     vdW  Elec       q    Type
REMARK                         _______ _______ _______ _____ _____    ______ ____
ROOT
ATOM      1  S   UNL     1      -0.952  -4.003   1.956  0.00  0.00    +0.060 S 
ATOM      2  O   UNL     1      -2.303  -4.385   1.738  0.00  0.00    -0.153 OA
ATOM      3  O   UNL     1       0.144  -4.799   1.524  0.00  0.00    -0.153 OA
ENDROOT
BRANCH   1   4
ATOM      4  C   UNL     1      -0.764  -3.789   3.695  0.00  0.00    +0.123 A 
ATOM      5  C   UNL     1       0.290  -4.389   4.354  0.00  0.00    +0.031 A 
ATOM      6  C   UNL     1       0.442  -4.223   5.718  0.00  0.00    +0.025 A 
ATOM      7  C   UNL     1      -0.466  -3.453   6.435  0.00  0.00    +0.026 A 
ATOM      8  C   UNL     1      -1.528  -2.846   5.783  0.00  0.00    +0.043 A 
ATOM      9  C   UNL     1      -1.678  -3.007   4.405  0.00  0.00    +0.080 A 
BRANCH   7  10
ATOM     10  N   UNL     1      -0.309  -3.290   7.814  0.00  0.00    -0.358 N 
ATOM     11  H   UNL     1       0.434  -3.715   8.271  0.00  0.00    +0.142 HD
ATOM     12  H   UNL     1      -0.942  -2.752   8.314  0.00  0.00    +0.142 HD
ENDBRANCH   7  10
BRANCH   9  13
ATOM     13  C   UNL     1      -2.769  -2.379   3.722  0.00  0.00    +0.101 C 
ATOM     14  N   UNL     1      -3.634  -1.881   3.180  0.00  0.00    -0.191 NA
ENDBRANCH   9  13
ENDBRANCH   1   4
BRANCH   1  15
ATOM     15  N   UNL     1      -0.761  -2.515   1.256  0.00  0.00    -0.187 NA
ATOM     16  H   UNL     1      -1.504  -2.100   0.789  0.00  0.00    +0.148 HD
BRANCH  15  22
ATOM     17  C   UNL     1      -0.711   1.694   0.390  0.00  0.00    +0.007 C 
ATOM     18  C   UNL     1      -0.477   0.188   0.255  0.00  0.00    -0.013 C 
ATOM     19  C   UNL     1       0.334  -0.090  -1.013  0.00  0.00    +0.003 C 
ATOM     20  C   UNL     1       0.569  -1.596  -1.148  0.00  0.00    +0.002 C 
ATOM     21  C   UNL     1       1.340  -2.104   0.073  0.00  0.00    +0.020 C 
ATOM     22  C   UNL     1       0.529  -1.825   1.340  0.00  0.00    +0.077 C 
ATOM     23  C   UNL     1       0.294  -0.320   1.475  0.00  0.00    +0.023 C 
ENDBRANCH  15  22
ENDBRANCH   1  15
TORSDOF 5
