REMARK  Name = ZINC21124242
REMARK  9 active torsions:
REMARK  status: ('A' for Active; 'I' for Inactive)
REMARK    1  A    between atoms: C_3  and  C_6
REMARK    2  A    between atoms: C_6  and  C_7
REMARK    3  A    between atoms: C_7  and  N_8
REMARK    4  A    between atoms: N_8  and  C_9
REMARK    5  A    between atoms: C_9  and  N_11
REMARK    6  A    between atoms: N_11  and  N_12
REMARK    7  A    between atoms: C_13  and  C_15
REMARK    8  A    between atoms: C_15  and  N_16
REMARK    9  A    between atoms: C_17  and  C_19
REMARK                            x       y       z     vdW  Elec       q    Type
REMARK                         _______ _______ _______ _____ _____    ______ ____
ROOT
ATOM      1  N   UNL     1       6.974  -0.304  -1.461  0.00  0.00    -0.234 N 
ATOM      2  C   UNL     1       8.243  -0.758  -1.475  0.00  0.00    +0.246 C 
ATOM      3  O   UNL     1       8.804  -0.957  -2.532  0.00  0.00    -0.273 OA
ATOM      4  H   UNL     1       6.465  -0.124  -0.503  0.00  0.00    +0.173 HD
ENDROOT
BRANCH   1   5
ATOM      5  N   UNL     1       6.303  -0.062  -2.667  0.00  0.00    -0.246 N 
ATOM      6  H   UNL     1       6.812  -0.242  -3.625  0.00  0.00    +0.172 HD
BRANCH   5   7
ATOM      7  C   UNL     1       5.034   0.392  -2.653  0.00  0.00    +0.147 C 
ATOM      8  S   UNL     1       4.214   0.688  -4.126  0.00  0.00    -0.017 S 
BRANCH   7   9
ATOM      9  N   UNL     1       4.410   0.614  -1.478  0.00  0.00    -0.325 N 
ATOM     10  H   UNL     1       4.937   0.423  -0.532  0.00  0.00    +0.148 HD
BRANCH   9  11
ATOM     11  C   UNL     1       3.031   1.107  -1.463  0.00  0.00    +0.108 C 
BRANCH  11  12
ATOM     12  C   UNL     1       2.565   1.272  -0.015  0.00  0.00    +0.061 C 
BRANCH  12  15
ATOM     13  C   UNL     1      -1.213   1.761   0.017  0.00  0.00    +0.008 A 
ATOM     14  C   UNL     1      -0.013   1.076   0.008  0.00  0.00    +0.011 A 
ATOM     15  C   UNL     1       1.146   1.780   0.001  0.00  0.00    -0.009 A 
ATOM     16  S   UNL     1       0.555   3.464   0.015  0.00  0.00    -0.102 S 
ATOM     17  C   UNL     1      -1.196   3.116   0.030  0.00  0.00    +0.045 A 
ENDBRANCH  12  15
ENDBRANCH  11  12
ENDBRANCH   9  11
ENDBRANCH   7   9
ENDBRANCH   5   7
ENDBRANCH   1   5
BRANCH   2  18
ATOM     18  C   UNL     1       8.964  -1.019  -0.178  0.00  0.00    +0.202 C 
BRANCH  18  19
ATOM     19  N   UNL     1      10.318  -1.503  -0.461  0.00  0.00    -0.300 N 
ATOM     20  C   UNL     1      11.152  -1.803   0.554  0.00  0.00    +0.280 C 
ATOM     21  O   UNL     1      10.781  -1.672   1.706  0.00  0.00    -0.267 OA
ATOM     22  H   UNL     1      10.653  -1.621  -1.502  0.00  0.00    +0.150 HD
BRANCH  20  23
ATOM     23  C   UNL     1      12.506  -2.287   0.271  0.00  0.00    +0.191 A 
ATOM     24  C   UNL     1      13.448  -2.626   1.201  0.00  0.00    +0.056 A 
ATOM     25  C   UNL     1      14.587  -3.033   0.491  0.00  0.00    +0.058 A 
ATOM     26  C   UNL     1      14.296  -2.926  -0.826  0.00  0.00    +0.171 A 
ATOM     27  O   UNL     1      13.039  -2.482  -0.954  0.00  0.00    -0.444 OA
ATOM     28 BR   UNL     1      15.467  -3.343  -2.251  0.00  0.00    -0.008 Br
ENDBRANCH  20  23
ENDBRANCH  18  19
ENDBRANCH   2  18
TORSDOF 9
