REMARK  Name = ZINC63295006
REMARK  4 active torsions:
REMARK  status: ('A' for Active; 'I' for Inactive)
REMARK    1  A    between atoms: C_3  and  C_6
REMARK    2  A    between atoms: C_6  and  N_7
REMARK    3  A    between atoms: C_8  and  C_10
REMARK    4  A    between atoms: C_10  and  N_11
REMARK                            x       y       z     vdW  Elec       q    Type
REMARK                         _______ _______ _______ _____ _____    ______ ____
ROOT
ATOM      1  N   UNL     1       7.408   0.516   2.981  0.00  0.00    -0.291 N 
ATOM      2  C   UNL     1       8.094   0.500   4.141  0.00  0.00    +0.303 C 
ATOM      3  O   UNL     1       7.502   0.605   5.199  0.00  0.00    -0.253 OA
ATOM      4  N   UNL     1       9.435   0.367   4.130  0.00  0.00    -0.283 N 
ATOM      5  C   UNL     1      10.152   0.363   2.851  0.00  0.00    +0.114 C 
ATOM      6  C   UNL     1      11.198   1.494   2.846  0.00  0.00    +0.052 C 
ATOM      7  C   UNL     1      11.909   1.430   4.175  0.00  0.00    -0.035 C 
ATOM      8  C   UNL     1      13.201   1.381   4.478  0.00  0.00    +0.001 A 
ATOM      9  C   UNL     1      14.407   1.480   3.640  0.00  0.00    +0.030 A 
ATOM     10  C   UNL     1      15.598   1.365   4.288  0.00  0.00    +0.042 A 
ATOM     11  C   UNL     1      15.706   1.165   5.669  0.00  0.00    +0.022 A 
ATOM     12  C   UNL     1      14.650   1.070   6.515  0.00  0.00    +0.027 A 
ATOM     13  C   UNL     1      13.345   1.183   5.952  0.00  0.00    +0.043 A 
ATOM     14  N   UNL     1      12.177   1.154   6.523  0.00  0.00    -0.376 N 
ATOM     15  C   UNL     1      11.158   1.389   5.500  0.00  0.00    +0.124 C 
ATOM     16  C   UNL     1      10.164   0.233   5.401  0.00  0.00    +0.138 C 
ATOM     17 CL   UNL     1      17.057   1.474   3.355  0.00  0.00    -0.084 Cl
ATOM     18  H   UNL     1       7.884   0.505   2.136  0.00  0.00    +0.151 HD
ATOM     19  H   UNL     1      12.010   1.002   7.466  0.00  0.00    +0.160 HD
ENDROOT
BRANCH   1  20
ATOM     20  C   UNL     1       5.943   0.550   2.996  0.00  0.00    +0.201 C 
BRANCH  20  22
ATOM     21  N   UNL     1       4.099   0.594   1.348  0.00  0.00    -0.307 N 
ATOM     22  C   UNL     1       5.427   0.563   1.581  0.00  0.00    +0.231 C 
ATOM     23  O   UNL     1       6.205   0.545   0.651  0.00  0.00    -0.274 OA
ATOM     24  H   UNL     1       3.477   0.608   2.092  0.00  0.00    +0.149 HD
BRANCH  21  25
ATOM     25  C   UNL     1       3.597   0.606  -0.028  0.00  0.00    +0.178 C 
BRANCH  25  28
ATOM     26  C   UNL     1      -0.018   1.322   0.009  0.00  0.00    +0.041 A 
ATOM     27  C   UNL     1       1.329   1.750  -0.004  0.00  0.00    +0.046 A 
ATOM     28  C   UNL     1       2.091   0.641  -0.012  0.00  0.00    +0.122 A 
ATOM     29  O   UNL     1       1.280  -0.430  -0.005  0.00  0.00    -0.466 OA
ATOM     30  C   UNL     1       0.000  -0.023   0.008  0.00  0.00    +0.195 A 
ENDBRANCH  25  28
ENDBRANCH  21  25
ENDBRANCH  20  22
ENDBRANCH   1  20
TORSDOF 4
