REMARK  Name = ZINC06193294
REMARK  20 active torsions:
REMARK  status: ('A' for Active; 'I' for Inactive)
REMARK    1  A    between atoms: C_1  and  C_2
REMARK    2  A    between atoms: C_2  and  N_77
REMARK    3  A    between atoms: C_3  and  C_4
REMARK    4  A    between atoms: C_3  and  N_77
REMARK    5  A    between atoms: C_5  and  C_6
REMARK    6  A    between atoms: C_5  and  N_77
REMARK    7  A    between atoms: C_6  and  N_7
REMARK    8  A    between atoms: N_7  and  C_8
REMARK    9  A    between atoms: N_7  and  C_23
REMARK   10  A    between atoms: C_8  and  C_9
REMARK   11  A    between atoms: C_13  and  C_22
REMARK   12  A    between atoms: C_14  and  C_21
REMARK   13  A    between atoms: C_23  and  N_25
REMARK   14  A    between atoms: N_25  and  C_26
REMARK   15  A    between atoms: C_26  and  C_27
REMARK   16  A    between atoms: C_27  and  C_28
REMARK   17  A    between atoms: C_31  and  O_36
REMARK   18  A    between atoms: C_32  and  O_34
REMARK   19  A    between atoms: O_34  and  C_35
REMARK   20  A    between atoms: O_36  and  C_37
REMARK                            x       y       z     vdW  Elec       q    Type
REMARK                         _______ _______ _______ _____ _____    ______ ____
ROOT
ATOM      1  N   UNL     1      -5.561   4.292  -2.423  0.00  0.00    -0.310 N 
ENDROOT
BRANCH   1   2
ATOM      2  C   UNL     1      -5.486   5.232  -3.386  0.00  0.00    +0.133 C 
ATOM      3  S   UNL     1      -4.506   6.616  -3.156  0.00  0.00    -0.019 S 
BRANCH   2   4
ATOM      4  N   UNL     1      -6.183   5.082  -4.530  0.00  0.00    -0.326 N 
ATOM      5  H   UNL     1      -6.739   4.298  -4.660  0.00  0.00    +0.148 HD
BRANCH   4   6
ATOM      6  C   UNL     1      -6.102   6.104  -5.576  0.00  0.00    +0.108 C 
BRANCH   6   7
ATOM      7  C   UNL     1      -6.981   5.694  -6.759  0.00  0.00    +0.054 C 
BRANCH   7   8
ATOM      8  C   UNL     1      -6.897   6.746  -7.835  0.00  0.00    -0.042 A 
ATOM      9  C   UNL     1      -7.791   7.800  -7.841  0.00  0.00    +0.007 A 
ATOM     10  C   UNL     1      -7.715   8.770  -8.823  0.00  0.00    +0.049 A 
ATOM     11  C   UNL     1      -6.748   8.681  -9.811  0.00  0.00    +0.161 A 
ATOM     12  C   UNL     1      -5.852   7.616  -9.809  0.00  0.00    +0.162 A 
ATOM     13  C   UNL     1      -5.930   6.650  -8.819  0.00  0.00    +0.053 A 
BRANCH  12  14
ATOM     14  O   UNL     1      -4.901   7.524 -10.777  0.00  0.00    -0.491 OA
ATOM     15  C   UNL     1      -4.015   6.405 -10.711  0.00  0.00    +0.277 C 
ENDBRANCH  12  14
BRANCH  11  16
ATOM     16  O   UNL     1      -6.675   9.631 -10.781  0.00  0.00    -0.491 OA
ATOM     17  C   UNL     1      -7.627  10.695 -10.720  0.00  0.00    +0.277 C 
ENDBRANCH  11  16
ENDBRANCH   7   8
ENDBRANCH   6   7
ENDBRANCH   4   6
ENDBRANCH   2   4
ENDBRANCH   1   2
BRANCH   1  18
ATOM     18  C   UNL     1      -6.401   3.107  -2.620  0.00  0.00    +0.088 C 
BRANCH  18  19
ATOM     19  C   UNL     1      -7.811   3.389  -2.098  0.00  0.00    -0.060 C 
BRANCH  19  20
ATOM     20  N   UNL     1      -8.650   2.193  -2.323  0.00  0.00    +0.380 N 
ATOM     21  H   UNL     1      -8.569   1.909  -3.306  0.00  0.00    -0.082 HD
BRANCH  20  23
ATOM     22  C   UNL     1      -8.271   1.477   0.013  0.00  0.00    -0.017 C 
ATOM     23  C   UNL     1      -8.188   1.083  -1.463  0.00  0.00    -0.082 C 
ENDBRANCH  20  23
BRANCH  20  24
ATOM     24  C   UNL     1     -10.064   2.506  -2.028  0.00  0.00    -0.082 C 
ATOM     25  C   UNL     1     -10.944   1.396  -2.607  0.00  0.00    -0.017 C 
ENDBRANCH  20  24
ENDBRANCH  19  20
ENDBRANCH  18  19
ENDBRANCH   1  18
BRANCH   1  26
ATOM     26  C   UNL     1      -4.804   4.454  -1.180  0.00  0.00    +0.147 C 
BRANCH  26  27
ATOM     27  C   UNL     1      -3.443   3.826  -1.335  0.00  0.00    +0.035 A 
ATOM     28  C   UNL     1      -2.382   4.592  -1.691  0.00  0.00    +0.020 A 
ATOM     29  C   UNL     1      -1.074   3.951  -1.839  0.00  0.00    -0.001 A 
ATOM     30  C   UNL     1       0.053   4.686  -2.220  0.00  0.00    +0.013 A 
ATOM     31  C   UNL     1       1.259   4.058  -2.350  0.00  0.00    -0.047 A 
ATOM     32  C   UNL     1       1.376   2.696  -2.107  0.00  0.00    -0.046 A 
ATOM     33  C   UNL     1       0.279   1.952  -1.731  0.00  0.00    +0.030 A 
ATOM     34  C   UNL     1      -0.961   2.569  -1.597  0.00  0.00    +0.049 A 
ATOM     35  N   UNL     1      -2.076   1.848  -1.228  0.00  0.00    -0.322 N 
ATOM     36  H   UNL     1      -1.996   0.896  -1.058  0.00  0.00    +0.169 HD
ATOM     37  C   UNL     1      -3.274   2.445  -1.100  0.00  0.00    +0.254 A 
ATOM     38  O   UNL     1      -4.239   1.776  -0.771  0.00  0.00    -0.268 OA
ATOM     39  C   UNL     1       2.717   2.024  -2.256  0.00  0.00    +0.044 C 
ATOM     40  C   UNL     1       2.474   4.850  -2.760  0.00  0.00    +0.044 C 
ENDBRANCH  26  27
ENDBRANCH   1  26
TORSDOF 14
