REMARK  Name = ZINC12250145
REMARK  13 active torsions:
REMARK  status: ('A' for Active; 'I' for Inactive)
REMARK    1  A    between atoms: C_1  and  C_2
REMARK    2  A    between atoms: C_2  and  C_3
REMARK    3  A    between atoms: C_7  and  C_39
REMARK    4  A    between atoms: C_8  and  N_9
REMARK    5  A    between atoms: C_10  and  C_12
REMARK    6  A    between atoms: C_13  and  C_38
REMARK    7  A    between atoms: C_15  and  S_26
REMARK    8  A    between atoms: C_16  and  C_24
REMARK    9  A    between atoms: C_17  and  C_19
REMARK   10  A    between atoms: S_26  and  C_27
REMARK   11  A    between atoms: C_27  and  C_28
REMARK   12  A    between atoms: N_30  and  C_31
REMARK   13  A    between atoms: C_31  and  C_32
REMARK                            x       y       z     vdW  Elec       q    Type
REMARK                         _______ _______ _______ _____ _____    ______ ____
ROOT
ATOM      1  C   UNL     1      -0.134   1.252  -1.407  0.00  0.00    +0.047 C 
ATOM      2  C   UNL     1      -1.385   1.658  -1.140  0.00  0.00    +0.015 C 
ATOM      3  N   UNL     1      -2.107   1.093  -0.125  0.00  0.00    -0.312 N 
ATOM      4  C   UNL     1      -1.471   0.372   0.860  0.00  0.00    +0.080 C 
ATOM      5  C   UNL     1      -0.206  -0.090   0.669  0.00  0.00    +0.072 C 
ATOM      6  C   UNL     1       0.529   0.160  -0.617  0.00  0.00    +0.134 C 
ATOM      7  C   UNL     1      -2.003   2.753  -1.971  0.00  0.00    +0.061 C 
ATOM      8  H   UNL     1      -3.200   1.214  -0.095  0.00  0.00    +0.152 HD
ENDROOT
BRANCH   6   9
ATOM      9  C   UNL     1       1.948   0.563  -0.307  0.00  0.00    +0.118 A 
ATOM     10  C   UNL     1       3.028  -0.233  -0.393  0.00  0.00    +0.045 A 
ATOM     11  C   UNL     1       4.144   0.549  -0.016  0.00  0.00    +0.041 A 
ATOM     12  C   UNL     1       3.678   1.774   0.286  0.00  0.00    +0.195 A 
ATOM     13  O   UNL     1       2.346   1.777   0.107  0.00  0.00    -0.467 OA
ENDBRANCH   6   9
BRANCH   1  15
ATOM     14  N   UNL     1       1.568   1.204  -3.088  0.00  0.00    -0.281 N 
ATOM     15  C   UNL     1       0.580   1.872  -2.461  0.00  0.00    +0.247 C 
ATOM     16  O   UNL     1       0.302   3.007  -2.800  0.00  0.00    -0.270 OA
ATOM     17  H   UNL     1       1.817   0.176  -2.785  0.00  0.00    +0.155 HD
BRANCH  14  23
ATOM     18  C   UNL     1       3.665   1.860  -4.090  0.00  0.00    -0.026 A 
ATOM     19  C   UNL     1       4.363   2.466  -5.117  0.00  0.00    +0.005 A 
ATOM     20  C   UNL     1       3.681   3.031  -6.179  0.00  0.00    +0.001 A 
ATOM     21  C   UNL     1       2.299   2.990  -6.218  0.00  0.00    +0.005 A 
ATOM     22  C   UNL     1       1.596   2.381  -5.197  0.00  0.00    -0.029 A 
ATOM     23  C   UNL     1       2.278   1.817  -4.126  0.00  0.00    +0.040 A 
ATOM     24  C   UNL     1       0.090   2.332  -5.243  0.00  0.00    +0.045 C 
BRANCH  18  26
ATOM     25  C   UNL     1       4.486  -0.272  -3.125  0.00  0.00    +0.009 C 
ATOM     26  C   UNL     1       4.409   1.244  -2.933  0.00  0.00    +0.033 C 
ENDBRANCH  18  26
ENDBRANCH  14  23
ENDBRANCH   1  15
BRANCH   5  27
ATOM     27  C   UNL     1       0.437  -0.829   1.713  0.00  0.00    +0.098 C 
ATOM     28  N   UNL     1       0.947  -1.416   2.542  0.00  0.00    -0.191 NA
ENDBRANCH   5  27
BRANCH   4  29
ATOM     29  S   UNL     1      -2.300   0.046   2.380  0.00  0.00    -0.100 S 
BRANCH  29  30
ATOM     30  C   UNL     1      -3.878   0.875   2.061  0.00  0.00    +0.171 C 
BRANCH  30  31
ATOM     31  C   UNL     1      -4.777   0.723   3.261  0.00  0.00    +0.224 C 
ATOM     32  O   UNL     1      -4.389   0.114   4.236  0.00  0.00    -0.275 OA
ATOM     33  N   UNL     1      -6.011   1.263   3.251  0.00  0.00    -0.311 N 
ATOM     34  H   UNL     1      -6.363   1.815   2.367  0.00  0.00    +0.149 HD
BRANCH  33  35
ATOM     35  C   UNL     1      -6.885   1.116   4.418  0.00  0.00    +0.139 C 
BRANCH  35  36
ATOM     36  C   UNL     1      -8.198   1.806   4.152  0.00  0.00    -0.030 A 
ATOM     37  C   UNL     1      -8.362   3.135   4.494  0.00  0.00    +0.005 A 
ATOM     38  C   UNL     1      -9.565   3.769   4.246  0.00  0.00    +0.000 A 
ATOM     39  C   UNL     1     -10.607   3.071   3.665  0.00  0.00    +0.000 A 
ATOM     40  C   UNL     1     -10.445   1.740   3.328  0.00  0.00    +0.000 A 
ATOM     41  C   UNL     1      -9.241   1.107   3.572  0.00  0.00    +0.005 A 
ENDBRANCH  35  36
ENDBRANCH  33  35
ENDBRANCH  30  31
ENDBRANCH  29  30
ENDBRANCH   4  29
TORSDOF 10
