REMARK  Name = ZINC36017142
REMARK  15 active torsions:
REMARK  status: ('A' for Active; 'I' for Inactive)
REMARK    1  A    between atoms: C_1  and  C_2
REMARK    2  A    between atoms: C_2  and  N_3
REMARK    3  A    between atoms: N_10  and  C_13
REMARK    4  A    between atoms: C_13  and  C_14
REMARK    5  A    between atoms: C_15  and  C_34
REMARK    6  A    between atoms: C_16  and  C_24
REMARK    7  A    between atoms: N_21  and  C_22
REMARK    8  A    between atoms: C_22  and  C_23
REMARK    9  A    between atoms: C_26  and  O_32
REMARK   10  A    between atoms: C_28  and  O_30
REMARK   11  A    between atoms: O_30  and  C_31
REMARK   12  A    between atoms: O_32  and  C_33
REMARK   13  A    between atoms: C_34  and  O_36
REMARK   14  A    between atoms: O_36  and  C_37
REMARK   15  A    between atoms: C_37  and  C_38
REMARK                            x       y       z     vdW  Elec       q    Type
REMARK                         _______ _______ _______ _____ _____    ______ ____
ROOT
ATOM      1  C   UNL     1       5.144  -5.814  -2.707  0.00  0.00    +0.010 C 
ATOM      2  C   UNL     1       5.969  -6.630  -3.398  0.00  0.00    +0.076 C 
ATOM      3  C   UNL     1       5.729  -8.123  -3.299  0.00  0.00    +0.144 C 
ATOM      4  N   UNL     1       4.608  -8.564  -2.452  0.00  0.00    -0.288 N 
ATOM      5  C   UNL     1       3.872  -7.626  -1.823  0.00  0.00    +0.307 C 
ATOM      6  O   UNL     1       2.944  -7.980  -1.121  0.00  0.00    -0.252 OA
ATOM      7  N   UNL     1       4.132  -6.318  -1.941  0.00  0.00    -0.261 N 
ATOM      8  H   UNL     1       4.404  -9.506  -2.349  0.00  0.00    +0.151 HD
ENDROOT
BRANCH   3   9
ATOM      9  C   UNL     1       5.492  -8.648  -4.692  0.00  0.00    -0.016 A 
ATOM     10  C   UNL     1       4.253  -8.498  -5.285  0.00  0.00    +0.051 A 
ATOM     11  C   UNL     1       4.033  -8.980  -6.567  0.00  0.00    +0.124 A 
ATOM     12  C   UNL     1       5.057  -9.614  -7.253  0.00  0.00    +0.091 A 
ATOM     13  C   UNL     1       6.299  -9.764  -6.656  0.00  0.00    +0.124 A 
ATOM     14  C   UNL     1       6.516  -9.275  -5.376  0.00  0.00    +0.051 A 
BRANCH  13  15
ATOM     15  O   UNL     1       7.305 -10.386  -7.326  0.00  0.00    -0.495 OA
ATOM     16  C   UNL     1       7.013 -10.860  -8.642  0.00  0.00    +0.277 C 
ENDBRANCH  13  15
BRANCH  11  17
ATOM     17  O   UNL     1       2.814  -8.832  -7.149  0.00  0.00    -0.495 OA
ATOM     18  C   UNL     1       2.659  -9.354  -8.471  0.00  0.00    +0.277 C 
ENDBRANCH  11  17
ENDBRANCH   3   9
BRANCH   7  19
ATOM     19  C   UNL     1       3.280  -5.375  -1.213  0.00  0.00    +0.111 C 
ATOM     20  C   UNL     1       2.031  -5.071  -2.044  0.00  0.00    +0.025 C 
ENDBRANCH   7  19
BRANCH   2  21
ATOM     21  C   UNL     1       7.021  -6.109  -4.187  0.00  0.00    +0.339 C 
ATOM     22  O   UNL     1       7.274  -4.919  -4.155  0.00  0.00    -0.245 OA
BRANCH  21  23
ATOM     23  O   UNL     1       7.744  -6.932  -4.976  0.00  0.00    -0.462 OA
BRANCH  23  24
ATOM     24  C   UNL     1       8.791  -6.338  -5.746  0.00  0.00    +0.229 C 
ATOM     25  C   UNL     1       9.493  -7.418  -6.571  0.00  0.00    +0.048 C 
ENDBRANCH  23  24
ENDBRANCH  21  23
ENDBRANCH   2  21
BRANCH   1  26
ATOM     26  C   UNL     1       5.348  -4.322  -2.777  0.00  0.00    -0.026 C 
BRANCH  26  34
ATOM     27  N   UNL     1      10.492  -3.485  -1.411  0.00  0.00    -0.300 N 
ATOM     28  C   UNL     1       9.756  -2.515  -0.834  0.00  0.00    +0.302 C 
ATOM     29  O   UNL     1      10.182  -1.378  -0.781  0.00  0.00    -0.253 OA
ATOM     30  N   UNL     1       8.546  -2.806  -0.314  0.00  0.00    -0.287 N 
ATOM     31  C   UNL     1       7.710  -1.704   0.202  0.00  0.00    +0.107 C 
ATOM     32  C   UNL     1       6.235  -1.895  -0.198  0.00  0.00    +0.000 C 
ATOM     33  C   UNL     1       6.161  -2.414  -1.617  0.00  0.00    -0.077 C 
ATOM     34  N   UNL     1       6.094  -3.874  -1.593  0.00  0.00    +0.384 N 
ATOM     35  C   UNL     1       7.346  -4.527  -1.582  0.00  0.00    -0.059 C 
ATOM     36  C   UNL     1       8.112  -4.188  -0.288  0.00  0.00    +0.091 C 
ATOM     37  H   UNL     1      10.185  -4.405  -1.389  0.00  0.00    +0.150 HD
ATOM     38  H   UNL     1       5.580  -4.156  -0.772  0.00  0.00    -0.081 HD
BRANCH  27  40
ATOM     39  C   UNL     1      12.388  -4.423  -2.639  0.00  0.00    +0.024 C 
ATOM     40  C   UNL     1      11.756  -3.150  -2.071  0.00  0.00    +0.102 C 
ENDBRANCH  27  40
ENDBRANCH  26  34
ENDBRANCH   1  26
TORSDOF 10
