REMARK  Name = ZINC36519272
REMARK  17 active torsions:
REMARK  status: ('A' for Active; 'I' for Inactive)
REMARK    1  A    between atoms: C_1  and  C_2
REMARK    2  A    between atoms: C_2  and  C_3
REMARK    3  A    between atoms: C_3  and  C_4
REMARK    4  A    between atoms: C_4  and  C_5
REMARK    5  A    between atoms: C_5  and  C_6
REMARK    6  A    between atoms: C_6  and  N_7
REMARK    7  A    between atoms: N_7  and  C_8
REMARK    8  A    between atoms: C_8  and  C_10
REMARK    9  A    between atoms: C_8  and  C_19
REMARK   10  A    between atoms: C_11  and  O_18
REMARK   11  A    between atoms: C_13  and  O_17
REMARK   12  A    between atoms: C_15  and  O_16
REMARK   13  A    between atoms: N_21  and  C_22
REMARK   14  A    between atoms: C_22  and  C_23
REMARK   15  A    between atoms: C_23  and  C_24
REMARK   16  A    between atoms: C_24  and  C_25
REMARK   17  A    between atoms: C_26  and  C_28
REMARK                            x       y       z     vdW  Elec       q    Type
REMARK                         _______ _______ _______ _____ _____    ______ ____
ROOT
ATOM      1  C   UNL     1       1.599  -5.575   4.592  0.00  0.00    +0.199 C 
ENDROOT
BRANCH   1   2
ATOM      2  C   UNL     1       2.405  -4.387   5.051  0.00  0.00    +0.065 A 
ATOM      3  C   UNL     1       3.437  -4.559   5.962  0.00  0.00    +0.129 A 
ATOM      4  C   UNL     1       4.178  -3.466   6.384  0.00  0.00    +0.091 A 
ATOM      5  C   UNL     1       3.889  -2.201   5.895  0.00  0.00    +0.124 A 
ATOM      6  C   UNL     1       2.858  -2.029   4.984  0.00  0.00    +0.091 A 
ATOM      7  C   UNL     1       2.119  -3.123   4.558  0.00  0.00    +0.129 A 
BRANCH   7   8
ATOM      8  O   UNL     1       1.112  -2.955   3.661  0.00  0.00    -0.506 OA
ATOM      9  H   UNL     1       0.272  -2.688   4.058  0.00  0.00    +0.292 HD
ENDBRANCH   7   8
BRANCH   5  10
ATOM     10  O   UNL     1       4.615  -1.129   6.310  0.00  0.00    -0.507 OA
ATOM     11  H   UNL     1       5.392  -0.947   5.765  0.00  0.00    +0.292 HD
ENDBRANCH   5  10
BRANCH   3  12
ATOM     12  O   UNL     1       3.720  -5.798   6.442  0.00  0.00    -0.506 OA
ATOM     13  H   UNL     1       4.433  -6.249   5.969  0.00  0.00    +0.292 HD
ENDBRANCH   3  12
ENDBRANCH   1   2
BRANCH   1  14
ATOM     14  C   UNL     1       2.351  -6.843   4.906  0.00  0.00    +0.238 C 
ATOM     15  O   UNL     1       3.157  -7.282   4.114  0.00  0.00    -0.273 OA
ATOM     16  N   UNL     1       2.127  -7.489   6.067  0.00  0.00    -0.313 N 
ATOM     17  H   UNL     1       1.432  -7.179   6.669  0.00  0.00    +0.149 HD
BRANCH  16  18
ATOM     18  C   UNL     1       2.931  -8.662   6.420  0.00  0.00    +0.104 C 
BRANCH  18  19
ATOM     19  C   UNL     1       2.477  -9.203   7.777  0.00  0.00    +0.018 C 
BRANCH  19  20
ATOM     20  C   UNL     1       3.317 -10.427   8.145  0.00  0.00    -0.002 C 
ATOM     21  C   UNL     1       2.862 -10.968   9.502  0.00  0.00    +0.004 C 
ENDBRANCH  19  20
ENDBRANCH  18  19
ENDBRANCH  16  18
ENDBRANCH   1  14
BRANCH   1  22
ATOM     22  N   UNL     1       1.376  -5.484   3.147  0.00  0.00    -0.284 N 
ATOM     23  C   UNL     1       2.414  -5.265   2.317  0.00  0.00    +0.237 C 
ATOM     24  O   UNL     1       3.519  -5.054   2.770  0.00  0.00    -0.274 OA
BRANCH  23  25
ATOM     25  C   UNL     1       2.203  -5.283   0.825  0.00  0.00    +0.159 C 
ATOM     26  C   UNL     1       2.191  -6.737   0.304  0.00  0.00    +0.041 C 
ATOM     27  C   UNL     1       3.670  -6.938  -0.103  0.00  0.00    +0.098 C 
ATOM     28  C   UNL     1       4.171  -5.538  -0.381  0.00  0.00    +0.214 C 
ATOM     29  O   UNL     1       5.186  -5.272  -0.990  0.00  0.00    -0.276 OA
ATOM     30  N   UNL     1       3.328  -4.631   0.145  0.00  0.00    -0.304 N 
ATOM     31  H   UNL     1       3.447  -3.670   0.083  0.00  0.00    +0.149 HD
ENDBRANCH  23  25
BRANCH  22  32
ATOM     32  C   UNL     1       0.023  -5.632   2.605  0.00  0.00    +0.109 C 
BRANCH  32  33
ATOM     33  C   UNL     1      -0.602  -4.249   2.410  0.00  0.00    +0.019 C 
BRANCH  33  34
ATOM     34  C   UNL     1      -1.943  -4.393   1.687  0.00  0.00    +0.002 C 
BRANCH  34  35
ATOM     35  C   UNL     1      -2.567  -3.010   1.491  0.00  0.00    -0.000 C 
BRANCH  35  37
ATOM     36  C   UNL     1      -4.533  -1.770   0.573  0.00  0.00    +0.004 C 
ATOM     37  C   UNL     1      -3.908  -3.153   0.768  0.00  0.00    -0.003 C 
ENDBRANCH  35  37
ENDBRANCH  34  35
ENDBRANCH  33  34
ENDBRANCH  32  33
ENDBRANCH  22  32
ENDBRANCH   1  22
TORSDOF 15
