REMARK  Name = ZINC63254452
REMARK  8 active torsions:
REMARK  status: ('A' for Active; 'I' for Inactive)
REMARK    1  A    between atoms: C_1  and  C_2
REMARK    2  A    between atoms: C_9  and  N_12
REMARK    3  A    between atoms: C_13  and  C_15
REMARK    4  A    between atoms: C_15  and  C_17
REMARK    5  A    between atoms: C_15  and  N_27
REMARK    6  A    between atoms: C_17  and  C_18
REMARK    7  A    between atoms: C_28  and  O_30
REMARK    8  A    between atoms: O_30  and  C_31
REMARK                            x       y       z     vdW  Elec       q    Type
REMARK                         _______ _______ _______ _____ _____    ______ ____
ROOT
ATOM      1  C   UNL     1      -2.158  -7.464   2.817  0.00  0.00    +0.166 C 
ENDROOT
BRANCH   1   3
ATOM      2  N   UNL     1      -0.656  -6.147   1.358  0.00  0.00    -0.287 N 
ATOM      3  C   UNL     1      -0.826  -6.830   2.507  0.00  0.00    +0.236 C 
ATOM      4  O   UNL     1       0.092  -6.934   3.293  0.00  0.00    -0.274 OA
ATOM      5  H   UNL     1      -1.391  -6.064   0.730  0.00  0.00    +0.151 HD
BRANCH   2  14
ATOM      6  C   UNL     1       1.433   0.644  -0.693  0.00  0.00    +0.044 C 
ATOM      7  C   UNL     1       1.231  -0.847  -0.616  0.00  0.00    -0.049 A 
ATOM      8  C   UNL     1       1.095  -1.598  -1.769  0.00  0.00    +0.005 A 
ATOM      9  C   UNL     1       0.910  -2.960  -1.712  0.00  0.00    +0.024 A 
ATOM     10  C   UNL     1       0.853  -3.637  -0.480  0.00  0.00    +0.043 A 
ATOM     11  C   UNL     1       0.995  -2.850   0.667  0.00  0.00    +0.032 A 
ATOM     12  C   UNL     1       1.186  -1.488   0.612  0.00  0.00    +0.020 A 
ATOM     13  S   UNL     1       0.878  -3.989   2.028  0.00  0.00    -0.082 S 
ATOM     14  C   UNL     1       0.638  -5.530   1.057  0.00  0.00    +0.224 C 
ATOM     15  N   UNL     1       0.670  -5.009  -0.316  0.00  0.00    -0.316 N 
ATOM     16  H   UNL     1       0.566  -5.597  -1.080  0.00  0.00    +0.149 HD
ENDBRANCH   2  14
ENDBRANCH   1   3
BRANCH   1  17
ATOM     17  N   UNL     1      -2.086  -8.142   4.114  0.00  0.00    -0.269 N 
ATOM     18  C   UNL     1      -2.918  -9.167   4.385  0.00  0.00    +0.406 C 
ATOM     19  O   UNL     1      -3.727  -9.529   3.554  0.00  0.00    -0.226 OA
ATOM     20  H   UNL     1      -1.440  -7.853   4.777  0.00  0.00    +0.153 HD
BRANCH  18  21
ATOM     21  O   UNL     1      -2.852  -9.790   5.577  0.00  0.00    -0.412 OA
BRANCH  21  22
ATOM     22  C   UNL     1      -3.629 -10.889   5.767  0.00  0.00    +0.133 A 
ATOM     23  C   UNL     1      -3.330 -12.074   5.111  0.00  0.00    +0.046 A 
ATOM     24  C   UNL     1      -4.122 -13.189   5.305  0.00  0.00    +0.004 A 
ATOM     25  C   UNL     1      -5.212 -13.125   6.153  0.00  0.00    +0.000 A 
ATOM     26  C   UNL     1      -5.513 -11.945   6.808  0.00  0.00    +0.004 A 
ATOM     27  C   UNL     1      -4.720 -10.829   6.622  0.00  0.00    +0.046 A 
ENDBRANCH  21  22
ENDBRANCH  18  21
ENDBRANCH   1  17
BRANCH   1  28
ATOM     28  C   UNL     1      -3.239  -6.382   2.866  0.00  0.00    +0.065 C 
BRANCH  28  29
ATOM     29  C   UNL     1      -4.588  -7.028   3.054  0.00  0.00    -0.039 C 
ATOM     30  C   UNL     1      -5.242  -7.219   4.222  0.00  0.00    -0.001 A 
ATOM     31  C   UNL     1      -4.907  -6.896   5.614  0.00  0.00    +0.010 A 
ATOM     32  C   UNL     1      -5.784  -7.219   6.592  0.00  0.00    +0.001 A 
ATOM     33  C   UNL     1      -7.002  -7.854   6.309  0.00  0.00    +0.002 A 
ATOM     34  C   UNL     1      -7.380  -8.182   5.056  0.00  0.00    +0.026 A 
ATOM     35  C   UNL     1      -6.535  -7.888   3.950  0.00  0.00    +0.043 A 
ATOM     36  N   UNL     1      -6.673  -8.103   2.664  0.00  0.00    -0.380 N 
ATOM     37  C   UNL     1      -5.486  -7.588   1.974  0.00  0.00    +0.144 C 
ATOM     38  H   UNL     1      -7.435  -8.527   2.240  0.00  0.00    +0.160 HD
ENDBRANCH  28  29
ENDBRANCH   1  28
TORSDOF 7
