REMARK  Name = ZINC13523639
REMARK  13 active torsions:
REMARK  status: ('A' for Active; 'I' for Inactive)
REMARK    1  A    between atoms: C_1  and  C_2
REMARK    2  A    between atoms: C_2  and  O_3
REMARK    3  A    between atoms: O_3  and  C_4
REMARK    4  A    between atoms: C_4  and  C_6
REMARK    5  A    between atoms: C_7  and  C_29
REMARK    6  A    between atoms: C_8  and  C_23
REMARK    7  A    between atoms: C_10  and  N_11
REMARK    8  A    between atoms: C_12  and  C_14
REMARK    9  A    between atoms: C_14  and  N_57
REMARK   10  A    between atoms: C_17  and  C_20
REMARK   11  A    between atoms: C_23  and  O_25
REMARK   12  A    between atoms: O_25  and  C_26
REMARK   13  A    between atoms: C_26  and  C_27
REMARK                            x       y       z     vdW  Elec       q    Type
REMARK                         _______ _______ _______ _____ _____    ______ ____
ROOT
ATOM      1  C   UNL     1      -1.880  -2.119  -0.027  0.00  0.00    +0.091 A 
ATOM      2  C   UNL     1      -2.167  -2.833   1.126  0.00  0.00    -0.014 A 
ATOM      3  C   UNL     1      -2.411  -4.174   0.999  0.00  0.00    +0.102 A 
ATOM      4  S   UNL     1      -2.225  -4.442  -0.753  0.00  0.00    -0.066 S 
ATOM      5  C   UNL     1      -1.850  -2.821  -1.237  0.00  0.00    +0.087 A 
ATOM      6  C   UNL     1      -2.213  -2.155   2.472  0.00  0.00    +0.046 C 
ENDROOT
BRANCH   5   7
ATOM      7  N   UNL     1      -1.587  -2.340  -2.504  0.00  0.00    -0.281 N 
ATOM      8  C   UNL     1      -1.604  -3.178  -3.560  0.00  0.00    +0.201 C 
ATOM      9  O   UNL     1      -1.851  -4.354  -3.397  0.00  0.00    -0.278 OA
ATOM     10  H   UNL     1      -1.389  -1.399  -2.635  0.00  0.00    +0.155 HD
BRANCH   8  11
ATOM     11  C   UNL     1      -1.316  -2.653  -4.943  0.00  0.00    +0.019 C 
BRANCH  11  17
ATOM     12  C   UNL     1      -1.220  -3.294  -7.276  0.00  0.00    -0.077 C 
ATOM     13  C   UNL     1      -1.296  -4.487  -8.232  0.00  0.00    -0.006 C 
ATOM     14  C   UNL     1      -0.109  -5.419  -7.971  0.00  0.00    +0.071 C 
ATOM     15  C   UNL     1      -0.134  -5.867  -6.508  0.00  0.00    -0.006 C 
ATOM     16  C   UNL     1      -0.092  -4.635  -5.601  0.00  0.00    -0.077 C 
ATOM     17  N   UNL     1      -1.273  -3.791  -5.884  0.00  0.00    +0.385 N 
ATOM     18  H   UNL     1      -2.122  -4.356  -5.764  0.00  0.00    -0.081 HD
BRANCH  14  19
ATOM     19  C   UNL     1      -0.211  -6.626  -8.869  0.00  0.00    +0.213 C 
ATOM     20  O   UNL     1      -0.294  -7.735  -8.387  0.00  0.00    -0.276 OA
ATOM     21  N   UNL     1      -0.208  -6.471 -10.208  0.00  0.00    -0.329 N 
ATOM     22  H   UNL     1      -0.141  -5.584 -10.594  0.00  0.00    +0.145 HD
ATOM     23  H   UNL     1      -0.274  -7.248 -10.786  0.00  0.00    +0.145 HD
ENDBRANCH  14  19
ENDBRANCH  11  17
ENDBRANCH   8  11
ENDBRANCH   5   7
BRANCH   1  24
ATOM     24  C   UNL     1      -1.610  -0.677   0.021  0.00  0.00    +0.342 C 
ATOM     25  O   UNL     1      -2.524   0.117  -0.098  0.00  0.00    -0.245 OA
BRANCH  24  26
ATOM     26  O   UNL     1      -0.349  -0.232   0.196  0.00  0.00    -0.461 OA
BRANCH  26  28
ATOM     27  C   UNL     1       1.327   1.517   0.439  0.00  0.00    +0.048 C 
ATOM     28  C   UNL     1      -0.157   1.206   0.234  0.00  0.00    +0.229 C 
ENDBRANCH  26  28
ENDBRANCH  24  26
ENDBRANCH   1  24
BRANCH   3  29
ATOM     29  C   UNL     1      -2.738  -5.145   2.042  0.00  0.00    +0.346 C 
ATOM     30  O   UNL     1      -2.826  -4.787   3.201  0.00  0.00    -0.244 OA
BRANCH  29  31
ATOM     31  O   UNL     1      -2.942  -6.439   1.719  0.00  0.00    -0.457 OA
BRANCH  31  32
ATOM     32  C   UNL     1      -3.258  -7.333   2.788  0.00  0.00    +0.259 C 
BRANCH  32  33
ATOM     33  C   UNL     1      -3.450  -8.724   2.240  0.00  0.00    +0.006 C 
ATOM     34  C   UNL     1      -2.905  -9.748   2.847  0.00  0.00    +0.007 C 
ENDBRANCH  32  33
ENDBRANCH  31  32
ENDBRANCH  29  31
ENDBRANCH   3  29
TORSDOF 11
