REMARK  Name = ZINC33058327
REMARK  11 active torsions:
REMARK  status: ('A' for Active; 'I' for Inactive)
REMARK    1  A    between atoms: C_1  and  C_2
REMARK    2  A    between atoms: C_5  and  S_8
REMARK    3  A    between atoms: S_8  and  C_11
REMARK    4  A    between atoms: C_12  and  N_34
REMARK    5  A    between atoms: C_13  and  C_24
REMARK    6  A    between atoms: C_15  and  N_16
REMARK    7  A    between atoms: N_16  and  C_17
REMARK    8  A    between atoms: C_22  and  C_23
REMARK    9  A    between atoms: C_24  and  C_26
REMARK   10  A    between atoms: C_29  and  O_32
REMARK   11  A    between atoms: O_32  and  C_33
REMARK                            x       y       z     vdW  Elec       q    Type
REMARK                         _______ _______ _______ _____ _____    ______ ____
ROOT
ATOM      1  C   UNL     1       1.449  -2.165  -0.271  0.00  0.00    +0.143 A 
ATOM      2  C   UNL     1       2.791  -2.435  -0.372  0.00  0.00    +0.070 A 
ATOM      3  C   UNL     1       3.697  -1.450   0.038  0.00  0.00    +0.084 A 
ATOM      4  S   UNL     1       2.608  -0.135   0.560  0.00  0.00    -0.066 S 
ATOM      5  C   UNL     1       1.051  -0.940   0.227  0.00  0.00    +0.098 A 
ENDROOT
BRANCH   1   6
ATOM      6  S   UNL     1       0.254  -3.360  -0.769  0.00  0.00    +0.029 S 
ATOM      7  O   UNL     1       0.856  -4.635  -0.589  0.00  0.00    -0.164 OA
ATOM      8  O   UNL     1      -0.968  -2.999  -0.140  0.00  0.00    -0.164 OA
BRANCH   6  13
ATOM      9  C   UNL     1      -0.591  -2.674  -6.704  0.00  0.00    +0.044 C 
ATOM     10  C   UNL     1      -0.380  -2.846  -5.221  0.00  0.00    -0.050 A 
ATOM     11  C   UNL     1       0.594  -3.711  -4.757  0.00  0.00    +0.005 A 
ATOM     12  C   UNL     1       0.787  -3.868  -3.398  0.00  0.00    +0.027 A 
ATOM     13  C   UNL     1       0.007  -3.160  -2.502  0.00  0.00    +0.094 A 
ATOM     14  C   UNL     1      -0.970  -2.300  -2.966  0.00  0.00    +0.027 A 
ATOM     15  C   UNL     1      -1.161  -2.139  -4.326  0.00  0.00    +0.005 A 
ENDBRANCH   6  13
ENDBRANCH   1   6
BRANCH   2  16
ATOM     16  N   UNL     1       3.238  -3.655  -0.868  0.00  0.00    -0.355 N 
ATOM     17  H   UNL     1       4.317  -3.856  -0.942  0.00  0.00    +0.142 HD
ATOM     18  H   UNL     1       2.513  -4.418  -1.187  0.00  0.00    +0.142 HD
ENDBRANCH   2  16
BRANCH   5  19
ATOM     19  N   UNL     1      -0.232  -0.456   0.415  0.00  0.00    -0.307 N 
ATOM     20  H   UNL     1      -1.097  -1.040   0.066  0.00  0.00    +0.153 HD
BRANCH  19  21
ATOM     21  C   UNL     1      -0.429   0.774   1.048  0.00  0.00    +0.035 A 
ATOM     22  C   UNL     1       0.432   1.183   2.058  0.00  0.00    +0.023 A 
ATOM     23  C   UNL     1       0.235   2.399   2.681  0.00  0.00    +0.002 A 
ATOM     24  C   UNL     1      -0.820   3.210   2.301  0.00  0.00    +0.000 A 
ATOM     25  C   UNL     1      -1.679   2.806   1.296  0.00  0.00    +0.005 A 
ATOM     26  C   UNL     1      -1.484   1.593   0.665  0.00  0.00    -0.029 A 
ATOM     27  C   UNL     1      -2.418   1.155  -0.434  0.00  0.00    +0.045 C 
ENDBRANCH  19  21
ENDBRANCH   5  19
BRANCH   3  28
ATOM     28  C   UNL     1       5.103  -1.485   0.034  0.00  0.00    +0.202 C 
ATOM     29  O   UNL     1       5.687  -2.519  -0.245  0.00  0.00    -0.286 OA
BRANCH  28  30
ATOM     30  C   UNL     1       5.874  -0.269   0.370  0.00  0.00    +0.023 A 
ATOM     31  C   UNL     1       5.370   0.992   0.041  0.00  0.00    +0.015 A 
ATOM     32  C   UNL     1       6.089   2.123   0.360  0.00  0.00    +0.046 A 
ATOM     33  C   UNL     1       7.318   2.011   0.998  0.00  0.00    +0.120 A 
ATOM     34  C   UNL     1       7.825   0.758   1.321  0.00  0.00    +0.046 A 
ATOM     35  C   UNL     1       7.110  -0.378   1.010  0.00  0.00    +0.015 A 
BRANCH  33  36
ATOM     36  O   UNL     1       8.026   3.128   1.306  0.00  0.00    -0.495 OA
ATOM     37  C   UNL     1       7.446   4.383   0.945  0.00  0.00    +0.277 C 
ENDBRANCH  33  36
ENDBRANCH  28  30
ENDBRANCH   3  28
TORSDOF 8
