REMARK  Name = ZINC18219317
REMARK  6 active torsions:
REMARK  status: ('A' for Active; 'I' for Inactive)
REMARK    1  A    between atoms: C_3  and  S_26
REMARK    2  A    between atoms: C_6  and  N_7
REMARK    3  A    between atoms: C_8  and  C_10
REMARK    4  A    between atoms: C_10  and  S_11
REMARK    5  A    between atoms: S_11  and  C_12
REMARK    6  A    between atoms: S_26  and  N_29
REMARK                            x       y       z     vdW  Elec       q    Type
REMARK                         _______ _______ _______ _____ _____    ______ ____
ROOT
ATOM      1  C   UNL     1      -2.478  -2.828  -0.204  0.00  0.00    +0.173 C 
ENDROOT
BRANCH   1   3
ATOM      2  N   UNL     1      -1.199  -0.722   0.010  0.00  0.00    -0.285 N 
ATOM      3  C   UNL     1      -1.183  -2.065  -0.099  0.00  0.00    +0.227 C 
ATOM      4  O   UNL     1      -0.125  -2.659  -0.113  0.00  0.00    -0.275 OA
ATOM      5  H   UNL     1      -2.044  -0.253   0.098  0.00  0.00    +0.155 HD
BRANCH   2  11
ATOM      6  C   UNL     1       1.072  -0.453  -0.766  0.00  0.00    +0.025 A 
ATOM      7  C   UNL     1       2.256   0.259  -0.778  0.00  0.00    +0.030 A 
ATOM      8  C   UNL     1       2.376   1.416  -0.032  0.00  0.00    +0.105 A 
ATOM      9  C   UNL     1       1.312   1.866   0.729  0.00  0.00    +0.030 A 
ATOM     10  C   UNL     1       0.126   1.160   0.744  0.00  0.00    +0.025 A 
ATOM     11  C   UNL     1       0.002  -0.004  -0.004  0.00  0.00    +0.034 A 
BRANCH   8  12
ATOM     12  S   UNL     1       3.889   2.320  -0.048  0.00  0.00    +0.056 S 
ATOM     13  O   UNL     1       3.928   3.069   1.159  0.00  0.00    -0.153 OA
ATOM     14  O   UNL     1       4.909   1.398  -0.406  0.00  0.00    -0.153 OA
BRANCH  12  15
ATOM     15  N   UNL     1       3.789   3.419  -1.284  0.00  0.00    -0.204 NA
ATOM     16  H   UNL     1       4.261   4.263  -1.221  0.00  0.00    +0.144 HD
ATOM     17  H   UNL     1       3.258   3.217  -2.070  0.00  0.00    +0.144 HD
ENDBRANCH  12  15
ENDBRANCH   8  12
ENDBRANCH   2  11
ENDBRANCH   1   3
BRANCH   1  18
ATOM     18  S   UNL     1      -2.124  -4.603  -0.337  0.00  0.00    -0.078 S 
BRANCH  18  19
ATOM     19  C   UNL     1      -3.717  -5.347  -0.450  0.00  0.00    +0.171 A 
ATOM     20  N   UNL     1      -4.788  -4.582  -0.428  0.00  0.00    -0.185 NA
ATOM     21  C   UNL     1      -6.026  -5.080  -0.510  0.00  0.00    +0.282 A 
ATOM     22  C   UNL     1      -6.211  -6.546  -0.629  0.00  0.00    +0.075 A 
ATOM     23  C   UNL     1      -7.459  -7.304  -0.730  0.00  0.00    -0.023 A 
ATOM     24  C   UNL     1      -7.353  -8.645  -0.830  0.00  0.00    -0.004 A 
ATOM     25  S   UNL     1      -5.610  -8.968  -0.796  0.00  0.00    -0.075 S 
ATOM     26  C   UNL     1      -5.035  -7.297  -0.647  0.00  0.00    +0.092 A 
ATOM     27  N   UNL     1      -3.813  -6.702  -0.564  0.00  0.00    -0.328 N 
ATOM     28  C   UNL     1      -8.468  -9.639  -0.943  0.00  0.00    +0.043 C 
ATOM     29  C   UNL     1      -9.779  -8.941  -0.555  0.00  0.00    +0.005 C 
ATOM     30  C   UNL     1      -9.860  -7.602  -1.295  0.00  0.00    +0.005 C 
ATOM     31  C   UNL     1      -8.828  -6.629  -0.724  0.00  0.00    +0.037 C 
ATOM     32  O   UNL     1      -6.993  -4.335  -0.486  0.00  0.00    -0.265 OA
ATOM     33  H   UNL     1      -3.009  -7.245  -0.582  0.00  0.00    +0.168 HD
ENDBRANCH  18  19
ENDBRANCH   1  18
TORSDOF 6
