REMARK  Name = ZINC12309505
REMARK  11 active torsions:
REMARK  status: ('A' for Active; 'I' for Inactive)
REMARK    1  A    between atoms: C_1  and  C_2
REMARK    2  A    between atoms: C_2  and  C_3
REMARK    3  A    between atoms: C_9  and  N_10
REMARK    4  A    between atoms: N_10  and  O_11
REMARK    5  A    between atoms: O_11  and  C_12
REMARK    6  A    between atoms: C_12  and  C_13
REMARK    7  A    between atoms: N_15  and  C_16
REMARK    8  A    between atoms: C_20  and  N_22
REMARK    9  A    between atoms: C_23  and  C_25
REMARK   10  A    between atoms: N_28  and  C_33
REMARK   11  A    between atoms: N_31  and  C_32
REMARK                            x       y       z     vdW  Elec       q    Type
REMARK                         _______ _______ _______ _____ _____    ______ ____
ROOT
ATOM      1  N   UNL     1       2.328   3.741   0.717  0.00  0.00    -0.264 N 
ATOM      2  H   UNL     1       3.305   3.390   0.355  0.00  0.00    +0.194 HD
ENDROOT
BRANCH   1   9
ATOM      3  C   UNL     1       1.449   1.467   0.680  0.00  0.00    -0.006 A 
ATOM      4  C   UNL     1       0.369   0.703   0.909  0.00  0.00    +0.090 A 
ATOM      5  N   UNL     1      -0.863   1.248   1.153  0.00  0.00    -0.347 N 
ATOM      6  H   UNL     1      -1.673   0.621   1.554  0.00  0.00    +0.167 HD
ATOM      7  C   UNL     1      -1.134   2.558   0.915  0.00  0.00    +0.129 A 
ATOM      8  C   UNL     1      -0.092   3.451   0.681  0.00  0.00    +0.106 A 
ATOM      9  C   UNL     1       1.290   2.935   0.694  0.00  0.00    +0.082 A 
ATOM     10  C   UNL     1      -0.382   4.813   0.439  0.00  0.00    +0.268 A 
ATOM     11  O   UNL     1       0.514   5.612   0.236  0.00  0.00    -0.267 OA
ATOM     12  N   UNL     1      -1.673   5.212   0.438  0.00  0.00    -0.263 N 
ATOM     13  C   UNL     1      -2.664   4.332   0.662  0.00  0.00    +0.333 A 
ATOM     14  O   UNL     1      -3.815   4.725   0.651  0.00  0.00    -0.246 OA
ATOM     15  N   UNL     1      -2.422   3.029   0.897  0.00  0.00    -0.282 N 
ATOM     16  C   UNL     1      -3.538   2.111   1.136  0.00  0.00    +0.155 C 
ATOM     17  C   UNL     1      -1.996   6.619   0.190  0.00  0.00    +0.157 C 
BRANCH   3  19
ATOM     18  C   UNL     1       2.962   0.610  -1.088  0.00  0.00    +0.009 C 
ATOM     19  C   UNL     1       2.794   0.840   0.415  0.00  0.00    +0.035 C 
ENDBRANCH   3  19
ENDBRANCH   1   9
BRANCH   1  20
ATOM     20  O   UNL     1       2.187   5.062   1.209  0.00  0.00    -0.265 OA
BRANCH  20  21
ATOM     21  C   UNL     1       3.394   5.826   1.175  0.00  0.00    +0.288 C 
BRANCH  21  22
ATOM     22  C   UNL     1       3.130   7.207   1.718  0.00  0.00    +0.246 C 
ATOM     23  O   UNL     1       2.018   7.507   2.096  0.00  0.00    -0.273 OA
ATOM     24  N   UNL     1       4.130   8.108   1.783  0.00  0.00    -0.283 N 
ATOM     25  H   UNL     1       5.120   7.862   1.371  0.00  0.00    +0.155 HD
BRANCH  24  26
ATOM     26  C   UNL     1       3.909   9.357   2.374  0.00  0.00    +0.035 A 
ATOM     27  C   UNL     1       4.922   9.971   3.100  0.00  0.00    +0.023 A 
ATOM     28  C   UNL     1       4.705  11.204   3.684  0.00  0.00    +0.004 A 
ATOM     29  C   UNL     1       3.480  11.830   3.548  0.00  0.00    +0.023 A 
ATOM     30  C   UNL     1       2.464  11.221   2.823  0.00  0.00    +0.035 A 
ATOM     31  C   UNL     1       2.680   9.985   2.232  0.00  0.00    +0.046 A 
BRANCH  30  32
ATOM     32  N   UNL     1       1.225  11.857   2.685  0.00  0.00    -0.286 N 
ATOM     33  C   UNL     1       0.725  12.587   3.701  0.00  0.00    +0.214 C 
ATOM     34  O   UNL     1       1.385  12.764   4.703  0.00  0.00    -0.276 OA
ATOM     35  C   UNL     1      -0.654  13.184   3.592  0.00  0.00    +0.109 C 
ATOM     36  H   UNL     1       0.659  11.759   1.746  0.00  0.00    +0.155 HD
ENDBRANCH  30  32
ENDBRANCH  24  26
ENDBRANCH  21  22
ENDBRANCH  20  21
ENDBRANCH   1  20
TORSDOF 7
