REMARK  Name = ZINC21239313
REMARK  10 active torsions:
REMARK  status: ('A' for Active; 'I' for Inactive)
REMARK    1  A    between atoms: C_1  and  C_2
REMARK    2  A    between atoms: C_2  and  C_3
REMARK    3  A    between atoms: C_2  and  C_4
REMARK    4  A    between atoms: C_4  and  O_5
REMARK    5  A    between atoms: O_5  and  C_6
REMARK    6  A    between atoms: C_9  and  C_12
REMARK    7  A    between atoms: C_17  and  C_27
REMARK    8  A    between atoms: C_31  and  O_34
REMARK    9  A    between atoms: C_32  and  O_33
REMARK   10  A    between atoms: O_34  and  C_35
REMARK                            x       y       z     vdW  Elec       q    Type
REMARK                         _______ _______ _______ _____ _____    ______ ____
ROOT
ATOM      1  C   UNL     1      -2.277   1.450   0.840  0.00  0.00    +0.032 C 
ATOM      2  C   UNL     1      -1.206   2.200   0.052  0.00  0.00    +0.059 C 
ATOM      3  C   UNL     1       0.081   1.392   0.027  0.00  0.00    +0.017 C 
ATOM      4  C   UNL     1       0.041   0.048   0.025  0.00  0.00    +0.037 C 
ATOM      5  C   UNL     1       1.236  -0.873  -0.007  0.00  0.00    +0.140 C 
ATOM      6  N   UNL     1       2.493  -0.218  -0.301  0.00  0.00    -0.331 N 
ATOM      7  C   UNL     1       3.034   0.723   0.574  0.00  0.00    +0.049 A 
ATOM      8  C   UNL     1       4.231   0.495   1.234  0.00  0.00    +0.025 A 
ATOM      9  C   UNL     1       4.704   1.439   2.129  0.00  0.00    +0.002 A 
ATOM     10  C   UNL     1       3.989   2.598   2.368  0.00  0.00    +0.002 A 
ATOM     11  C   UNL     1       2.801   2.837   1.696  0.00  0.00    +0.025 A 
ATOM     12  C   UNL     1       2.339   1.904   0.784  0.00  0.00    +0.052 A 
ATOM     13  N   UNL     1       1.218   2.131  -0.006  0.00  0.00    -0.316 N 
ATOM     14  C   UNL     1      -1.202  -0.627   0.068  0.00  0.00    +0.163 C 
ATOM     15  O   UNL     1      -1.209  -1.842   0.041  0.00  0.00    -0.292 OA
ATOM     16  C   UNL     1      -2.509   0.102   0.145  0.00  0.00    +0.088 C 
ATOM     17  H   UNL     1       3.036  -0.460  -1.226  0.00  0.00    +0.147 HD
ATOM     18  H   UNL     1       1.301   2.983  -0.698  0.00  0.00    +0.152 HD
ENDROOT
BRANCH   1  22
ATOM     19  C   UNL     1      -5.906   3.707   0.870  0.00  0.00    +0.121 A 
ATOM     20  C   UNL     1      -5.294   3.360   2.065  0.00  0.00    +0.046 A 
ATOM     21  C   UNL     1      -4.121   2.630   2.053  0.00  0.00    +0.007 A 
ATOM     22  C   UNL     1      -3.557   2.245   0.850  0.00  0.00    -0.043 A 
ATOM     23  C   UNL     1      -4.162   2.595  -0.343  0.00  0.00    +0.007 A 
ATOM     24  C   UNL     1      -5.338   3.320  -0.336  0.00  0.00    +0.046 A 
BRANCH  19  25
ATOM     25  O   UNL     1      -7.060   4.424   0.879  0.00  0.00    -0.492 OA
BRANCH  25  26
ATOM     26  C   UNL     1      -7.635   4.745  -0.389  0.00  0.00    +0.232 C 
BRANCH  26  28
ATOM     27  C   UNL     1      -9.467   6.000  -1.534  0.00  0.00    +0.010 C 
ATOM     28  C   UNL     1      -8.919   5.550  -0.178  0.00  0.00    +0.020 C 
ATOM     29  C   UNL     1      -9.958   4.675   0.527  0.00  0.00    +0.010 C 
ENDBRANCH  26  28
ENDBRANCH  25  26
ENDBRANCH  19  25
ENDBRANCH   1  22
BRANCH   5  30
ATOM     30  C   UNL     1       1.353  -1.550   1.335  0.00  0.00    +0.022 A 
ATOM     31  C   UNL     1       0.688  -1.032   2.431  0.00  0.00    +0.009 A 
ATOM     32  C   UNL     1       0.793  -1.650   3.662  0.00  0.00    +0.004 A 
ATOM     33  C   UNL     1       1.564  -2.790   3.804  0.00  0.00    +0.049 A 
ATOM     34  C   UNL     1       2.232  -3.314   2.710  0.00  0.00    +0.162 A 
ATOM     35  C   UNL     1       2.122  -2.694   1.468  0.00  0.00    +0.164 A 
BRANCH  35  36
ATOM     36  O   UNL     1       2.773  -3.208   0.390  0.00  0.00    -0.503 OA
ATOM     37  H   UNL     1       3.383  -4.117   0.498  0.00  0.00    +0.292 HD
ENDBRANCH  35  36
BRANCH  34  38
ATOM     38  O   UNL     1       2.990  -4.435   2.847  0.00  0.00    -0.491 OA
ATOM     39  C   UNL     1       3.052  -5.021   4.149  0.00  0.00    +0.277 C 
ENDBRANCH  34  38
ENDBRANCH   5  30
TORSDOF 7
