REMARK  Name = ZINC36206206
REMARK  13 active torsions:
REMARK  status: ('A' for Active; 'I' for Inactive)
REMARK    1  A    between atoms: C_1  and  C_2
REMARK    2  A    between atoms: C_2  and  C_3
REMARK    3  A    between atoms: C_2  and  C_4
REMARK    4  A    between atoms: C_2  and  O_5
REMARK    5  A    between atoms: O_5  and  C_6
REMARK    6  A    between atoms: C_6  and  C_7
REMARK    7  A    between atoms: C_7  and  C_9
REMARK    8  A    between atoms: C_7  and  O_33
REMARK    9  A    between atoms: C_9  and  N_10
REMARK   10  A    between atoms: N_10  and  C_11
REMARK   11  A    between atoms: N_10  and  C_30
REMARK   12  A    between atoms: C_11  and  C_12
REMARK   13  A    between atoms: C_18  and  C_23
REMARK                            x       y       z     vdW  Elec       q    Type
REMARK                         _______ _______ _______ _____ _____    ______ ____
ROOT
ATOM      1  C   UNL     1       6.484  -1.359  -2.498  0.00  0.00    +0.094 A 
ATOM      2  N   UNL     1       7.795  -1.253  -2.163  0.00  0.00    -0.312 N 
ATOM      3  H   UNL     1       8.387  -0.723  -2.719  0.00  0.00    +0.170 HD
ATOM      4  C   UNL     1       8.290  -1.870  -1.073  0.00  0.00    +0.260 A 
ATOM      5  O   UNL     1       9.470  -1.765  -0.785  0.00  0.00    -0.267 OA
ATOM      6  C   UNL     1       7.409  -2.650  -0.258  0.00  0.00    +0.080 A 
ATOM      7  C   UNL     1       7.700  -3.402   0.957  0.00  0.00    +0.004 A 
ATOM      8  C   UNL     1       6.692  -4.073   1.565  0.00  0.00    +0.056 A 
ATOM      9  S   UNL     1       5.283  -3.727   0.530  0.00  0.00    -0.076 S 
ATOM     10  C   UNL     1       6.072  -2.700  -0.683  0.00  0.00    +0.116 A 
ATOM     11  N   UNL     1       5.655  -2.059  -1.772  0.00  0.00    -0.229 NA
ENDROOT
BRANCH   7  12
ATOM     12  C   UNL     1       9.073  -3.433   1.515  0.00  0.00    -0.016 A 
ATOM     13  C   UNL     1      10.157  -3.734   0.691  0.00  0.00    +0.010 A 
ATOM     14  C   UNL     1      11.433  -3.761   1.215  0.00  0.00    +0.020 A 
ATOM     15  C   UNL     1      11.638  -3.490   2.557  0.00  0.00    +0.041 A 
ATOM     16  C   UNL     1      10.566  -3.191   3.380  0.00  0.00    +0.020 A 
ATOM     17  C   UNL     1       9.286  -3.156   2.864  0.00  0.00    +0.010 A 
ATOM     18 CL   UNL     1      13.246  -3.526   3.211  0.00  0.00    -0.084 Cl
ENDBRANCH   7  12
BRANCH   1  19
ATOM     19  C   UNL     1       5.975  -0.650  -3.728  0.00  0.00    -0.003 C 
BRANCH  19  20
ATOM     20  N   UNL     1       4.515  -0.795  -3.807  0.00  0.00    +0.388 N 
ATOM     21  H   UNL     1       4.270  -1.772  -3.742  0.00  0.00    -0.081 HD
BRANCH  20  22
ATOM     22  C   UNL     1       4.038  -0.254  -5.086  0.00  0.00    -0.068 C 
ATOM     23  C   UNL     1       3.078  -1.119  -5.905  0.00  0.00    -0.017 C 
ATOM     24  C   UNL     1       4.525  -0.935  -6.367  0.00  0.00    -0.017 C 
ENDBRANCH  20  22
BRANCH  20  25
ATOM     25  C   UNL     1       3.889  -0.059  -2.700  0.00  0.00    -0.044 C 
BRANCH  25  26
ATOM     26  C   UNL     1       2.380  -0.310  -2.709  0.00  0.00    +0.124 C 
BRANCH  26  27
ATOM     27  O   UNL     1       1.830   0.136  -3.949  0.00  0.00    -0.391 OA
ATOM     28  H   UNL     1       1.963   1.078  -4.122  0.00  0.00    +0.210 HD
ENDBRANCH  26  27
BRANCH  26  29
ATOM     29  C   UNL     1       1.729   0.457  -1.556  0.00  0.00    +0.189 C 
BRANCH  29  30
ATOM     30  O   UNL     1       0.339   0.130  -1.492  0.00  0.00    -0.372 OA
BRANCH  30  32
ATOM     31  C   UNL     1      -0.267   2.311  -0.644  0.00  0.00    +0.041 C 
ATOM     32  C   UNL     1      -0.367   0.797  -0.444  0.00  0.00    +0.061 C 
ATOM     33  C   UNL     1       0.247   0.419   0.905  0.00  0.00    +0.041 C 
ATOM     34  C   UNL     1      -1.837   0.375  -0.471  0.00  0.00    +0.041 C 
ENDBRANCH  30  32
ENDBRANCH  29  30
ENDBRANCH  26  29
ENDBRANCH  25  26
ENDBRANCH  20  25
ENDBRANCH  19  20
ENDBRANCH   1  19
TORSDOF 10
