REMARK  Name = ZINC36989720
REMARK  6 active torsions:
REMARK  status: ('A' for Active; 'I' for Inactive)
REMARK    1  A    between atoms: C_1  and  C_2
REMARK    2  A    between atoms: C_2  and  C_4
REMARK    3  A    between atoms: C_2  and  N_10
REMARK    4  A    between atoms: N_10  and  C_11
REMARK    5  A    between atoms: C_16  and  O_17
REMARK    6  A    between atoms: O_17  and  C_18
REMARK                            x       y       z     vdW  Elec       q    Type
REMARK                         _______ _______ _______ _____ _____    ______ ____
ROOT
ATOM      1  C   UNL     1      -2.077  -0.648  -1.189  0.00  0.00    +0.073 A 
ATOM      2  C   UNL     1      -1.473  -0.309  -2.392  0.00  0.00    +0.046 A 
ATOM      3  C   UNL     1      -2.171  -0.445  -3.578  0.00  0.00    +0.044 A 
ATOM      4  C   UNL     1      -3.471  -0.919  -3.569  0.00  0.00    +0.039 A 
ATOM      5  C   UNL     1      -4.079  -1.259  -2.373  0.00  0.00    +0.063 A 
ATOM      6  C   UNL     1      -3.384  -1.130  -1.181  0.00  0.00    +0.162 A 
ATOM      7 BR   UNL     1      -5.856  -1.906  -2.366  0.00  0.00    -0.046 Br
ATOM      8 CL   UNL     1      -1.415  -0.020  -5.082  0.00  0.00    -0.083 Cl
ENDROOT
BRANCH   1   9
ATOM      9  N   UNL     1      -1.372  -0.511   0.012  0.00  0.00    -0.334 N 
ATOM     10  H   UNL     1      -1.794  -0.752   0.852  0.00  0.00    +0.147 HD
BRANCH   9  12
ATOM     11  C   UNL     1      -0.019   1.526   0.010  0.00  0.00    +0.033 C 
ATOM     12  C   UNL     1       0.002  -0.004   0.002  0.00  0.00    +0.104 C 
BRANCH  12  13
ATOM     13  C   UNL     1       0.731  -0.503   1.223  0.00  0.00    +0.011 A 
ATOM     14  C   UNL     1       2.009  -0.938   1.335  0.00  0.00    +0.014 A 
ATOM     15  C   UNL     1       2.471  -1.355   2.570  0.00  0.00    +0.028 A 
ATOM     16  C   UNL     1       1.629  -1.315   3.633  0.00  0.00    +0.078 A 
ATOM     17  S   UNL     1       0.136  -0.668   2.898  0.00  0.00    -0.080 S 
ATOM     18 CL   UNL     1       1.927  -1.770   5.282  0.00  0.00    -0.076 Cl
ENDBRANCH  12  13
ENDBRANCH   9  12
ENDBRANCH   1   9
BRANCH   6  19
ATOM     19  O   UNL     1      -3.978  -1.468  -0.005  0.00  0.00    -0.431 OA
BRANCH  19  20
ATOM     20  C   UNL     1      -4.700  -0.440   0.677  0.00  0.00    +0.541 C 
ATOM     21  F   UNL     1      -3.832   0.613   0.984  0.00  0.00    -0.166 F 
ATOM     22  F   UNL     1      -5.731   0.029  -0.144  0.00  0.00    -0.166 F 
ENDBRANCH  19  20
ENDBRANCH   6  19
TORSDOF 5
