REMARK  Name = ZINC20522224
REMARK  8 active torsions:
REMARK  status: ('A' for Active; 'I' for Inactive)
REMARK    1  A    between atoms: C_4  and  C_7
REMARK    2  A    between atoms: C_7  and  C_8
REMARK    3  A    between atoms: C_8  and  N_9
REMARK    4  A    between atoms: N_9  and  C_10
REMARK    5  A    between atoms: C_10  and  N_12
REMARK    6  A    between atoms: N_12  and  N_13
REMARK    7  A    between atoms: C_23  and  C_25
REMARK    8  A    between atoms: C_25  and  C_26
REMARK                            x       y       z     vdW  Elec       q    Type
REMARK                         _______ _______ _______ _____ _____    ______ ____
ROOT
ATOM      1  N   UNL     1       0.187   3.900   1.577  0.00  0.00    -0.189 NA
ATOM      2  C   UNL     1      -0.855   3.403   2.130  0.00  0.00    +0.045 C 
ATOM      3  C   UNL     1      -1.281   3.698   3.565  0.00  0.00    +0.033 C 
ATOM      4  C   UNL     1      -2.701   4.253   3.525  0.00  0.00    -0.068 C 
ATOM      5  N   UNL     1      -3.615   3.492   2.685  0.00  0.00    +0.382 N 
ATOM      6  C   UNL     1      -4.352   2.468   3.377  0.00  0.00    -0.063 C 
ATOM      7  C   UNL     1      -3.471   1.623   4.245  0.00  0.00    +0.066 C 
ATOM      8  N   UNL     1      -2.147   1.401   3.716  0.00  0.00    -0.303 NA
ATOM      9  C   UNL     1      -1.211   2.367   4.315  0.00  0.00    +0.092 C 
ATOM     10  C   UNL     1      -1.970   1.207   2.295  0.00  0.00    +0.095 C 
ATOM     11  C   UNL     1      -1.816   2.447   1.432  0.00  0.00    +0.013 C 
ATOM     12  C   UNL     1      -3.159   3.195   1.350  0.00  0.00    -0.064 C 
ATOM     13  H   UNL     1      -4.418   4.202   2.436  0.00  0.00    -0.082 HD
ENDROOT
BRANCH   1  14
ATOM     14  N   UNL     1       1.084   4.666   2.333  0.00  0.00    -0.218 N 
ATOM     15  H   UNL     1       0.852   4.910   3.380  0.00  0.00    +0.176 HD
BRANCH  14  16
ATOM     16  C   UNL     1       2.231   5.105   1.777  0.00  0.00    +0.150 C 
ATOM     17  S   UNL     1       3.385   5.931   2.734  0.00  0.00    -0.017 S 
BRANCH  16  18
ATOM     18  N   UNL     1       2.469   4.893   0.467  0.00  0.00    -0.325 N 
ATOM     19  H   UNL     1       1.694   4.435  -0.166  0.00  0.00    +0.148 HD
BRANCH  18  20
ATOM     20  C   UNL     1       3.759   5.273  -0.113  0.00  0.00    +0.108 C 
BRANCH  20  21
ATOM     21  C   UNL     1       3.769   4.928  -1.604  0.00  0.00    +0.054 C 
BRANCH  21  25
ATOM     22  C   UNL     1       7.531   6.037  -3.297  0.00  0.00    +0.000 A 
ATOM     23  C   UNL     1       7.357   4.772  -2.768  0.00  0.00    +0.000 A 
ATOM     24  C   UNL     1       6.139   4.413  -2.220  0.00  0.00    +0.004 A 
ATOM     25  C   UNL     1       5.096   5.319  -2.201  0.00  0.00    -0.046 A 
ATOM     26  C   UNL     1       5.268   6.583  -2.735  0.00  0.00    +0.004 A 
ATOM     27  C   UNL     1       6.487   6.943  -3.279  0.00  0.00    +0.000 A 
ENDBRANCH  21  25
ENDBRANCH  20  21
ENDBRANCH  18  20
ENDBRANCH  16  18
ENDBRANCH  14  16
ENDBRANCH   1  14
BRANCH  11  28
ATOM     28  C   UNL     1      -1.308   2.080   0.036  0.00  0.00    +0.047 C 
BRANCH  28  29
ATOM     29  C   UNL     1      -2.311   1.186  -0.645  0.00  0.00    -0.047 A 
ATOM     30  C   UNL     1      -2.221  -0.186  -0.505  0.00  0.00    +0.003 A 
ATOM     31  C   UNL     1      -3.137  -1.007  -1.135  0.00  0.00    +0.000 A 
ATOM     32  C   UNL     1      -4.144  -0.456  -1.905  0.00  0.00    +0.000 A 
ATOM     33  C   UNL     1      -4.234   0.916  -2.046  0.00  0.00    +0.000 A 
ATOM     34  C   UNL     1      -3.317   1.737  -1.416  0.00  0.00    +0.003 A 
ENDBRANCH  28  29
ENDBRANCH  11  28
TORSDOF 8
