REMARK  Name = ZINC13415482
REMARK  6 active torsions:
REMARK  status: ('A' for Active; 'I' for Inactive)
REMARK    1  A    between atoms: C_2  and  C_20
REMARK    2  A    between atoms: C_4  and  S_6
REMARK    3  A    between atoms: S_6  and  C_7
REMARK    4  A    between atoms: C_7  and  C_8
REMARK    5  A    between atoms: N_13  and  C_14
REMARK    6  A    between atoms: C_20  and  C_21
REMARK                            x       y       z     vdW  Elec       q    Type
REMARK                         _______ _______ _______ _____ _____    ______ ____
ROOT
ATOM      1  C   UNL     1      -1.192   2.002   0.019  0.00  0.00    +0.231 C 
ATOM      2  O   UNL     1      -2.234   1.381   0.020  0.00  0.00    -0.274 OA
ATOM      3  N   UNL     1      -0.016   1.344   0.009  0.00  0.00    -0.240 N 
ATOM      4  C   UNL     1       0.002  -0.004   0.002  0.00  0.00    +0.306 C 
ATOM      5  O   UNL     1      -1.042  -0.626   0.009  0.00  0.00    -0.252 OA
ATOM      6  N   UNL     1       1.178  -0.662  -0.013  0.00  0.00    -0.296 N 
ATOM      7  H   UNL     1       0.817   1.840   0.004  0.00  0.00    +0.159 HD
ATOM      8  H   UNL     1       2.012  -0.166  -0.018  0.00  0.00    +0.151 HD
ENDROOT
BRANCH   6   9
ATOM      9  C   UNL     1       1.198  -2.127  -0.021  0.00  0.00    +0.074 C 
ATOM     10  C   UNL     1       1.093  -2.646   1.415  0.00  0.00    +0.022 C 
ATOM     11  C   UNL     1       1.114  -4.176   1.406  0.00  0.00    +0.002 C 
ATOM     12  C   UNL     1       2.422  -4.665   0.781  0.00  0.00    +0.000 C 
ATOM     13  C   UNL     1       2.527  -4.146  -0.654  0.00  0.00    +0.002 C 
ATOM     14  C   UNL     1       2.506  -2.616  -0.646  0.00  0.00    +0.022 C 
ENDBRANCH   6   9
BRANCH   1  15
ATOM     15  C   UNL     1      -1.213   3.508   0.027  0.00  0.00    +0.172 C 
BRANCH  15  16
ATOM     16  S   UNL     1      -2.927   4.088   0.038  0.00  0.00    -0.089 S 
BRANCH  16  20
ATOM     17  C   UNL     1      -1.851   8.352   0.055  0.00  0.00    +0.071 A 
ATOM     18  C   UNL     1      -3.176   8.071   0.060  0.00  0.00    +0.060 A 
ATOM     19  N   UNL     1      -3.551   6.805   0.051  0.00  0.00    -0.237 NA
ATOM     20  C   UNL     1      -2.661   5.830   0.046  0.00  0.00    +0.135 A 
ATOM     21  S   UNL     1      -1.161   6.705   0.043  0.00  0.00    -0.069 S 
BRANCH  18  22
ATOM     22  C   UNL     1      -4.199   9.177   0.072  0.00  0.00    +0.181 C 
BRANCH  22  23
ATOM     23  C   UNL     1      -5.145   8.999  -1.088  0.00  0.00    +0.362 C 
ATOM     24  O   UNL     1      -5.002   8.069  -1.847  0.00  0.00    -0.246 OA
ATOM     25  O   UNL     1      -6.145   9.873  -1.279  0.00  0.00    -0.246 OA
ENDBRANCH  22  23
ENDBRANCH  18  22
ENDBRANCH  16  20
ENDBRANCH  15  16
ENDBRANCH   1  15
TORSDOF 6
