REMARK  Name = ZINC19973136
REMARK  15 active torsions:
REMARK  status: ('A' for Active; 'I' for Inactive)
REMARK    1  A    between atoms: C_1  and  C_2
REMARK    2  A    between atoms: C_2  and  O_3
REMARK    3  A    between atoms: O_3  and  C_4
REMARK    4  A    between atoms: C_7  and  C_10
REMARK    5  A    between atoms: C_10  and  N_11
REMARK    6  A    between atoms: N_11  and  C_12
REMARK    7  A    between atoms: N_11  and  C_18
REMARK    8  A    between atoms: C_12  and  C_13
REMARK    9  A    between atoms: C_18  and  C_20
REMARK   10  A    between atoms: C_18  and  C_33
REMARK   11  A    between atoms: C_26  and  C_32
REMARK   12  A    between atoms: N_37  and  C_38
REMARK   13  A    between atoms: C_38  and  C_39
REMARK   14  A    between atoms: C_38  and  C_40
REMARK   15  A    between atoms: C_38  and  C_41
REMARK                            x       y       z     vdW  Elec       q    Type
REMARK                         _______ _______ _______ _____ _____    ______ ____
ROOT
ATOM      1  C   UNL     1       0.510  -2.483   4.687  0.00  0.00    +0.163 C 
ENDROOT
BRANCH   1   2
ATOM      2  C   UNL     1       0.824  -1.780   3.391  0.00  0.00    +0.042 A 
ATOM      3  C   UNL     1       1.325  -2.483   2.345  0.00  0.00    +0.021 A 
ATOM      4  C   UNL     1       1.619  -1.771   1.101  0.00  0.00    -0.001 A 
ATOM      5  C   UNL     1       2.137  -2.442  -0.012  0.00  0.00    +0.010 A 
ATOM      6  C   UNL     1       2.401  -1.748  -1.159  0.00  0.00    +0.001 A 
ATOM      7  C   UNL     1       2.154  -0.384  -1.232  0.00  0.00    +0.005 A 
ATOM      8  C   UNL     1       1.651   0.299  -0.146  0.00  0.00    -0.026 A 
ATOM      9  C   UNL     1       1.374  -0.386   1.033  0.00  0.00    +0.052 A 
ATOM     10  N   UNL     1       0.864   0.270   2.133  0.00  0.00    -0.322 N 
ATOM     11  H   UNL     1       0.670   1.352   2.086  0.00  0.00    +0.169 HD
ATOM     12  C   UNL     1       0.597  -0.393   3.271  0.00  0.00    +0.254 A 
ATOM     13  O   UNL     1       0.146   0.220   4.224  0.00  0.00    -0.268 OA
ATOM     14  C   UNL     1       1.395   1.781  -0.236  0.00  0.00    +0.046 C 
ENDBRANCH   1   2
BRANCH   1  15
ATOM     15  C   UNL     1      -0.975  -2.430   4.940  0.00  0.00    +0.174 A 
ATOM     16  N   UNL     1      -1.659  -1.397   5.369  0.00  0.00    -0.111 NA
ATOM     17  N   UNL     1      -2.896  -1.748   5.457  0.00  0.00    -0.023 NA
ATOM     18  N   UNL     1      -3.018  -2.977   5.096  0.00  0.00    -0.043 NA
ATOM     19  N   UNL     1      -1.857  -3.431   4.764  0.00  0.00    -0.222 N 
BRANCH  19  20
ATOM     20  C   UNL     1      -1.554  -4.784   4.290  0.00  0.00    +0.059 C 
ATOM     21  C   UNL     1      -0.639  -5.485   5.296  0.00  0.00    +0.036 C 
ATOM     22  C   UNL     1      -2.855  -5.577   4.145  0.00  0.00    +0.036 C 
ATOM     23  C   UNL     1      -0.853  -4.703   2.933  0.00  0.00    +0.036 C 
ENDBRANCH  19  20
ENDBRANCH   1  15
BRANCH   1  24
ATOM     24  N   UNL     1       1.219  -1.819   5.789  0.00  0.00    -0.277 NA
BRANCH  24  25
ATOM     25  C   UNL     1       1.067  -2.571   7.042  0.00  0.00    +0.121 C 
BRANCH  25  29
ATOM     26  C   UNL     1      -2.751  -1.716   8.762  0.00  0.00    +0.121 A 
ATOM     27  C   UNL     1      -2.516  -2.948   8.168  0.00  0.00    +0.046 A 
ATOM     28  C   UNL     1      -1.282  -3.222   7.613  0.00  0.00    +0.008 A 
ATOM     29  C   UNL     1      -0.279  -2.270   7.648  0.00  0.00    -0.033 A 
ATOM     30  C   UNL     1      -0.509  -1.043   8.244  0.00  0.00    +0.008 A 
ATOM     31  C   UNL     1      -1.743  -0.762   8.796  0.00  0.00    +0.046 A 
BRANCH  26  32
ATOM     32  O   UNL     1      -3.965  -1.444   9.309  0.00  0.00    -0.492 OA
BRANCH  32  34
ATOM     33  C   UNL     1      -5.543  -0.034  10.476  0.00  0.00    +0.048 C 
ATOM     34  C   UNL     1      -4.171  -0.119   9.804  0.00  0.00    +0.225 C 
ENDBRANCH  32  34
ENDBRANCH  26  32
ENDBRANCH  25  29
ENDBRANCH  24  25
BRANCH  24  35
ATOM     35  C   UNL     1       2.637  -1.625   5.460  0.00  0.00    +0.160 C 
BRANCH  35  36
ATOM     36  C   UNL     1       3.239  -0.620   6.408  0.00  0.00    +0.119 A 
ATOM     37  C   UNL     1       3.917  -0.907   7.534  0.00  0.00    +0.046 A 
ATOM     38  C   UNL     1       4.298   0.327   8.110  0.00  0.00    +0.041 A 
ATOM     39  C   UNL     1       3.829   1.295   7.302  0.00  0.00    +0.195 A 
ATOM     40  O   UNL     1       3.194   0.716   6.270  0.00  0.00    -0.467 OA
ENDBRANCH  35  36
ENDBRANCH  24  35
ENDBRANCH   1  24
TORSDOF 10
