REMARK  Name = ZINC15442594
REMARK  9 active torsions:
REMARK  status: ('A' for Active; 'I' for Inactive)
REMARK    1  A    between atoms: C_1  and  C_2
REMARK    2  A    between atoms: C_2  and  C_3
REMARK    3  A    between atoms: C_6  and  C_9
REMARK    4  A    between atoms: C_9  and  N_10
REMARK    5  A    between atoms: N_10  and  C_11
REMARK    6  A    between atoms: N_10  and  C_12
REMARK    7  A    between atoms: C_12  and  C_13
REMARK    8  A    between atoms: N_15  and  N_16
REMARK    9  A    between atoms: C_22  and  C_25
REMARK                            x       y       z     vdW  Elec       q    Type
REMARK                         _______ _______ _______ _____ _____    ______ ____
ROOT
ATOM      1  C   UNL     1       4.073  -0.005  -7.680  0.00  0.00    +0.213 C 
ATOM      2  O   UNL     1       3.856   1.121  -7.285  0.00  0.00    -0.276 OA
ATOM      3  N   UNL     1       4.622  -0.197  -8.896  0.00  0.00    -0.225 N 
ATOM      4  H   UNL     1       4.796  -1.098  -9.213  0.00  0.00    +0.173 HD
ENDROOT
BRANCH   3   5
ATOM      5  N   UNL     1       4.940   0.903  -9.703  0.00  0.00    -0.137 N 
ATOM      6  C   UNL     1       4.223   1.286 -10.780  0.00  0.00    +0.263 C 
ATOM      7  O   UNL     1       3.220   0.765 -11.217  0.00  0.00    -0.271 OA
ATOM      8  C   UNL     1       4.935   2.502 -11.326  0.00  0.00    +0.114 C 
ATOM      9  C   UNL     1       4.016   3.719 -11.286  0.00  0.00    +0.035 C 
ATOM     10  C   UNL     1       4.765   4.945 -11.815  0.00  0.00    +0.006 C 
ATOM     11  C   UNL     1       5.226   4.680 -13.250  0.00  0.00    -0.014 C 
ATOM     12  C   UNL     1       6.165   3.472 -13.271  0.00  0.00    +0.006 C 
ATOM     13  C   UNL     1       5.421   2.240 -12.748  0.00  0.00    +0.035 C 
ATOM     14  C   UNL     1       5.965   5.909 -13.783  0.00  0.00    +0.007 C 
ATOM     15  N   UNL     1       6.074   2.687 -10.418  0.00  0.00    -0.284 N 
ATOM     16  C   UNL     1       5.991   1.707  -9.498  0.00  0.00    +0.326 C 
ATOM     17  O   UNL     1       6.782   1.567  -8.587  0.00  0.00    -0.251 OA
ATOM     18  H   UNL     1       6.751   3.380 -10.469  0.00  0.00    +0.151 HD
ENDBRANCH   3   5
BRANCH   1  19
ATOM     19  C   UNL     1       3.731  -1.188  -6.812  0.00  0.00    +0.020 C 
BRANCH  19  20
ATOM     20  N   UNL     1       3.150  -0.716  -5.548  0.00  0.00    +0.386 N 
ATOM     21  C   UNL     1       4.162   0.038  -4.796  0.00  0.00    -0.095 C 
ATOM     22  H   UNL     1       2.361  -0.118  -5.742  0.00  0.00    -0.081 HD
BRANCH  20  23
ATOM     23  C   UNL     1       2.707  -1.868  -4.752  0.00  0.00    -0.043 C 
BRANCH  23  27
ATOM     24  C   UNL     1       0.707  -0.490  -1.238  0.00  0.00    -0.048 A 
ATOM     25  C   UNL     1      -0.011  -0.719  -2.397  0.00  0.00    +0.004 A 
ATOM     26  C   UNL     1       0.636  -1.164  -3.534  0.00  0.00    +0.002 A 
ATOM     27  C   UNL     1       2.002  -1.381  -3.513  0.00  0.00    -0.064 A 
ATOM     28  C   UNL     1       2.720  -1.152  -2.354  0.00  0.00    +0.002 A 
ATOM     29  C   UNL     1       2.073  -0.702  -1.218  0.00  0.00    +0.004 A 
BRANCH  24  31
ATOM     30  C   UNL     1      -0.019   1.526   0.010  0.00  0.00    +0.009 C 
ATOM     31  C   UNL     1       0.002  -0.004   0.002  0.00  0.00    +0.032 C 
ENDBRANCH  24  31
ENDBRANCH  23  27
ENDBRANCH  20  23
ENDBRANCH  19  20
ENDBRANCH   1  19
TORSDOF 6
