REMARK  Name = ZINC12503165
REMARK  14 active torsions:
REMARK  status: ('A' for Active; 'I' for Inactive)
REMARK    1  A    between atoms: C_1  and  C_2
REMARK    2  A    between atoms: C_2  and  N_75
REMARK    3  A    between atoms: C_3  and  C_4
REMARK    4  A    between atoms: C_3  and  N_75
REMARK    5  A    between atoms: C_5  and  C_6
REMARK    6  A    between atoms: C_5  and  N_75
REMARK    7  A    between atoms: C_6  and  O_8
REMARK    8  A    between atoms: O_8  and  C_9
REMARK    9  A    between atoms: C_9  and  C_10
REMARK   10  A    between atoms: C_10  and  C_12
REMARK   11  A    between atoms: C_12  and  O_37
REMARK   12  A    between atoms: C_17  and  C_36
REMARK   13  A    between atoms: C_19  and  O_35
REMARK   14  A    between atoms: C_33  and  C_34
REMARK                            x       y       z     vdW  Elec       q    Type
REMARK                         _______ _______ _______ _____ _____    ______ ____
ROOT
ATOM      1  C   UNL     1      -2.812   7.073   0.743  0.00  0.00    +0.133 C 
ATOM      2  C   UNL     1      -3.914   8.130   0.912  0.00  0.00    +0.043 C 
ATOM      3  C   UNL     1      -5.231   7.458   0.469  0.00  0.00    +0.008 C 
ATOM      4  C   UNL     1      -4.932   5.968   0.322  0.00  0.00    +0.002 C 
ATOM      5  C   UNL     1      -3.536   5.706   0.891  0.00  0.00    +0.009 C 
ATOM      6  C   UNL     1      -3.575   5.400   2.384  0.00  0.00    +0.041 C 
ATOM      7  C   UNL     1      -4.589   4.351   2.780  0.00  0.00    +0.119 C 
ATOM      8  C   UNL     1      -5.989   4.593   2.239  0.00  0.00    +0.031 C 
ATOM      9  C   UNL     1      -6.003   5.035   0.801  0.00  0.00    -0.001 C 
ATOM     10  C   UNL     1      -7.380   5.409   0.262  0.00  0.00    +0.008 C 
ATOM     11  C   UNL     1      -8.124   6.372   1.187  0.00  0.00    +0.032 C 
ATOM     12  C   UNL     1      -8.168   5.733   2.562  0.00  0.00    -0.060 C 
ATOM     13  C   UNL     1      -9.352   5.566   3.140  0.00  0.00    +0.046 C 
ATOM     14  C   UNL     1      -9.438   4.877   4.431  0.00  0.00    +0.156 C 
ATOM     15  O   UNL     1     -10.374   5.043   5.187  0.00  0.00    -0.293 OA
ATOM     16  C   UNL     1      -8.289   3.951   4.770  0.00  0.00    +0.080 C 
ATOM     17  C   UNL     1      -6.974   4.680   4.544  0.00  0.00    +0.019 C 
ATOM     18  C   UNL     1      -6.861   5.373   3.201  0.00  0.00    -0.005 C 
ATOM     19  C   UNL     1      -6.182   6.706   3.531  0.00  0.00    +0.016 C 
ATOM     20  C   UNL     1      -2.798   4.614   0.104  0.00  0.00    +0.015 C 
ENDROOT
BRANCH   1  21
ATOM     21  C   UNL     1      -2.181   7.183  -0.621  0.00  0.00    +0.202 C 
ATOM     22  O   UNL     1      -2.716   6.675  -1.577  0.00  0.00    -0.291 OA
BRANCH  21  23
ATOM     23  C   UNL     1      -0.882   7.928  -0.792  0.00  0.00    +0.309 C 
BRANCH  23  24
ATOM     24  O   UNL     1      -0.485   7.892  -2.188  0.00  0.00    -0.458 OA
BRANCH  24  25
ATOM     25  C   UNL     1       0.660   8.514  -2.512  0.00  0.00    +0.291 C 
ATOM     26  O   UNL     1       1.308   9.070  -1.657  0.00  0.00    -0.253 OA
BRANCH  25  27
ATOM     27  C   UNL     1       1.136   8.520  -3.942  0.00  0.00    +0.044 C 
BRANCH  27  28
ATOM     28  N   UNL     1       2.398   9.286  -4.021  0.00  0.00    +0.386 N 
ATOM     29  H   UNL     1       2.261  10.201  -3.576  0.00  0.00    -0.081 HD
BRANCH  28  31
ATOM     30  C   UNL     1       3.691   7.181  -3.930  0.00  0.00    -0.017 C 
ATOM     31  C   UNL     1       3.474   8.562  -3.310  0.00  0.00    -0.082 C 
ENDBRANCH  28  31
BRANCH  28  32
ATOM     32  C   UNL     1       2.776   9.491  -5.435  0.00  0.00    -0.082 C 
ATOM     33  C   UNL     1       3.944  10.478  -5.495  0.00  0.00    -0.017 C 
ENDBRANCH  28  32
ENDBRANCH  27  28
ENDBRANCH  25  27
ENDBRANCH  24  25
ENDBRANCH  23  24
ENDBRANCH  21  23
ENDBRANCH   1  21
BRANCH   7  34
ATOM     34  O   UNL     1      -4.137   3.054   2.359  0.00  0.00    -0.391 OA
ATOM     35  H   UNL     1      -3.291   2.788   2.744  0.00  0.00    +0.210 HD
ENDBRANCH   7  34
BRANCH   1  36
ATOM     36  O   UNL     1      -1.819   7.223   1.757  0.00  0.00    -0.380 OA
ATOM     37  H   UNL     1      -1.334   8.058   1.713  0.00  0.00    +0.211 HD
ENDBRANCH   1  36
TORSDOF 10
