REMARK  Name = ZINC09298135
REMARK  8 active torsions:
REMARK  status: ('A' for Active; 'I' for Inactive)
REMARK    1  A    between atoms: C_1  and  C_2
REMARK    2  A    between atoms: C_9  and  N_18
REMARK    3  A    between atoms: C_10  and  C_11
REMARK    4  A    between atoms: C_14  and  O_16
REMARK    5  A    between atoms: O_16  and  C_17
REMARK    6  A    between atoms: C_19  and  C_21
REMARK    7  A    between atoms: C_24  and  O_27
REMARK    8  A    between atoms: O_27  and  C_28
REMARK                            x       y       z     vdW  Elec       q    Type
REMARK                         _______ _______ _______ _____ _____    ______ ____
ROOT
ATOM      1  C   UNL     1      10.699   6.932  -0.034  0.00  0.00    +0.008 C 
ATOM      2  C   UNL     1       9.239   6.616   0.295  0.00  0.00    -0.009 C 
ATOM      3  C   UNL     1       8.319   7.579  -0.460  0.00  0.00    +0.008 C 
ATOM      4  C   UNL     1       6.884   7.435   0.050  0.00  0.00    +0.037 C 
ATOM      5  C   UNL     1       6.490   5.964  -0.001  0.00  0.00    -0.023 A 
ATOM      6  C   UNL     1       7.428   4.996  -0.086  0.00  0.00    -0.004 A 
ATOM      7  S   UNL     1       6.512   3.480  -0.110  0.00  0.00    -0.077 S 
ATOM      8  C   UNL     1       4.905   4.122  -0.021  0.00  0.00    +0.085 A 
ATOM      9  C   UNL     1       5.115   5.494   0.034  0.00  0.00    +0.069 A 
ATOM     10  C   UNL     1       8.913   5.179  -0.138  0.00  0.00    +0.046 C 
ENDROOT
BRANCH   9  11
ATOM     11  C   UNL     1       3.994   6.431   0.125  0.00  0.00    +0.255 C 
ATOM     12  O   UNL     1       3.572   6.772   1.214  0.00  0.00    -0.270 OA
ATOM     13  N   UNL     1       3.429   6.916  -0.999  0.00  0.00    -0.217 N 
ATOM     14  C   UNL     1       2.396   7.779  -0.916  0.00  0.00    +0.407 C 
ATOM     15  O   UNL     1       1.975   8.119   0.172  0.00  0.00    -0.226 OA
ATOM     16  H   UNL     1       3.765   6.645  -1.867  0.00  0.00    +0.161 HD
BRANCH  14  17
ATOM     17  O   UNL     1       1.832   8.263  -2.038  0.00  0.00    -0.453 OA
ATOM     18  C   UNL     1       0.725   9.188  -1.873  0.00  0.00    +0.282 C 
ENDBRANCH  14  17
ENDBRANCH   9  11
BRANCH   8  19
ATOM     19  N   UNL     1       3.704   3.434  -0.002  0.00  0.00    -0.275 N 
ATOM     20  C   UNL     1       3.697   2.088  -0.064  0.00  0.00    +0.249 C 
ATOM     21  O   UNL     1       4.746   1.477  -0.137  0.00  0.00    -0.270 OA
ATOM     22  H   UNL     1       2.867   3.921   0.056  0.00  0.00    +0.156 HD
BRANCH  20  23
ATOM     23  C   UNL     1       2.417   1.354  -0.045  0.00  0.00    +0.037 A 
ATOM     24  C   UNL     1       1.210   2.054   0.039  0.00  0.00    +0.016 A 
ATOM     25  C   UNL     1       0.017   1.366   0.057  0.00  0.00    +0.047 A 
ATOM     26  C   UNL     1       0.013  -0.022  -0.008  0.00  0.00    +0.128 A 
ATOM     27  C   UNL     1       1.211  -0.722  -0.091  0.00  0.00    +0.047 A 
ATOM     28  C   UNL     1       2.408  -0.042  -0.109  0.00  0.00    +0.016 A 
BRANCH  26  29
ATOM     29  O   UNL     1      -1.165  -0.697   0.009  0.00  0.00    -0.456 OA
BRANCH  29  30
ATOM     30  C   UNL     1      -1.444  -1.464   1.095  0.00  0.00    +0.128 A 
ATOM     31  C   UNL     1      -0.598  -1.447   2.195  0.00  0.00    +0.046 A 
ATOM     32  C   UNL     1      -0.887  -2.224   3.300  0.00  0.00    +0.004 A 
ATOM     33  C   UNL     1      -2.013  -3.027   3.306  0.00  0.00    +0.000 A 
ATOM     34  C   UNL     1      -2.855  -3.050   2.210  0.00  0.00    +0.004 A 
ATOM     35  C   UNL     1      -2.574  -2.270   1.105  0.00  0.00    +0.046 A 
ENDBRANCH  29  30
ENDBRANCH  26  29
ENDBRANCH  20  23
ENDBRANCH   8  19
TORSDOF 6
