REMARK  Name = ZINC63686599
REMARK  12 active torsions:
REMARK  status: ('A' for Active; 'I' for Inactive)
REMARK    1  A    between atoms: C_1  and  C_2
REMARK    2  A    between atoms: C_2  and  N_3
REMARK    3  A    between atoms: C_4  and  C_25
REMARK    4  A    between atoms: C_8  and  S_10
REMARK    5  A    between atoms: S_10  and  C_11
REMARK    6  A    between atoms: C_11  and  C_12
REMARK    7  A    between atoms: C_16  and  C_24
REMARK    8  A    between atoms: C_18  and  C_23
REMARK    9  A    between atoms: C_25  and  O_26
REMARK   10  A    between atoms: O_26  and  C_27
REMARK   11  A    between atoms: C_30  and  O_33
REMARK   12  A    between atoms: O_33  and  C_34
REMARK                            x       y       z     vdW  Elec       q    Type
REMARK                         _______ _______ _______ _____ _____    ______ ____
ROOT
ATOM      1  N   UNL     1      -1.139  -0.723  -0.002  0.00  0.00    -0.259 NA
ATOM      2  C   UNL     1      -1.083  -2.191   0.187  0.00  0.00    +0.178 C 
ATOM      3  N   UNL     1      -2.200  -2.709  -0.646  0.00  0.00    -0.234 NA
ATOM      4  N   UNL     1      -2.168  -1.832  -1.827  0.00  0.00    -0.229 NA
ATOM      5  C   UNL     1      -1.833  -0.495  -1.287  0.00  0.00    +0.200 C 
ATOM      6  H   UNL     1      -3.081  -2.629  -0.160  0.00  0.00    +0.142 HD
ATOM      7  H   UNL     1      -1.470  -2.140  -2.487  0.00  0.00    +0.143 HD
ENDROOT
BRANCH   1   9
ATOM      8  C   UNL     1       0.823  -0.229   1.377  0.00  0.00    +0.020 C 
ATOM      9  C   UNL     1       0.210  -0.142  -0.022  0.00  0.00    +0.085 C 
ENDBRANCH   1   9
BRANCH   5  10
ATOM     10  S   UNL     1      -0.739   0.384  -2.436  0.00  0.00    -0.119 S 
BRANCH  10  11
ATOM     11  C   UNL     1      -1.858   0.988  -3.731  0.00  0.00    +0.125 C 
BRANCH  11  12
ATOM     12  C   UNL     1      -1.087   1.849  -4.699  0.00  0.00    +0.030 A 
ATOM     13  N   UNL     1      -0.729   3.098  -4.317  0.00  0.00    -0.357 N 
ATOM     14  C   UNL     1      -0.025   3.935  -5.154  0.00  0.00    +0.051 A 
ATOM     15  C   UNL     1       0.338   5.217  -4.751  0.00  0.00    +0.029 A 
ATOM     16  C   UNL     1       1.043   6.029  -5.612  0.00  0.00    -0.048 A 
ATOM     17  C   UNL     1       1.395   5.582  -6.879  0.00  0.00    +0.007 A 
ATOM     18  C   UNL     1       1.048   4.327  -7.294  0.00  0.00    -0.037 A 
ATOM     19  C   UNL     1       0.335   3.489  -6.437  0.00  0.00    +0.048 A 
ATOM     20  C   UNL     1      -0.060   2.128  -6.844  0.00  0.00    +0.190 A 
ATOM     21  O   UNL     1       0.228   1.692  -7.946  0.00  0.00    -0.287 OA
ATOM     22  C   UNL     1      -0.777   1.343  -5.910  0.00  0.00    +0.073 A 
ATOM     23  C   UNL     1       1.433   3.851  -8.671  0.00  0.00    +0.044 C 
ATOM     24  C   UNL     1       1.436   7.417  -5.176  0.00  0.00    +0.044 C 
ATOM     25  H   UNL     1      -0.975   3.411  -3.432  0.00  0.00    +0.166 HD
ENDBRANCH  11  12
ENDBRANCH  10  11
ENDBRANCH   5  10
BRANCH   2  26
ATOM     26  C   UNL     1      -1.298  -2.550   1.659  0.00  0.00    +0.265 C 
BRANCH  26  27
ATOM     27  O   UNL     1      -2.577  -2.076   2.083  0.00  0.00    -0.489 OA
BRANCH  27  28
ATOM     28  C   UNL     1      -2.927  -2.315   3.375  0.00  0.00    +0.121 A 
ATOM     29  C   UNL     1      -2.053  -2.987   4.217  0.00  0.00    +0.049 A 
ATOM     30  C   UNL     1      -2.408  -3.230   5.530  0.00  0.00    +0.049 A 
ATOM     31  C   UNL     1      -3.638  -2.801   6.006  0.00  0.00    +0.120 A 
ATOM     32  C   UNL     1      -4.511  -2.129   5.164  0.00  0.00    +0.049 A 
ATOM     33  C   UNL     1      -4.155  -1.882   3.853  0.00  0.00    +0.049 A 
BRANCH  31  34
ATOM     34  O   UNL     1      -3.988  -3.041   7.298  0.00  0.00    -0.495 OA
ATOM     35  C   UNL     1      -5.269  -2.572   7.721  0.00  0.00    +0.277 C 
ENDBRANCH  31  34
ENDBRANCH  27  28
ENDBRANCH  26  27
ENDBRANCH   2  26
TORSDOF 8
