REMARK  Name = ZINC38143769
REMARK  17 active torsions:
REMARK  status: ('A' for Active; 'I' for Inactive)
REMARK    1  A    between atoms: C_1  and  C_2
REMARK    2  A    between atoms: C_4  and  O_42
REMARK    3  A    between atoms: C_6  and  C_31
REMARK    4  A    between atoms: C_8  and  C_30
REMARK    5  A    between atoms: C_12  and  C_29
REMARK    6  A    between atoms: C_21  and  O_28
REMARK    7  A    between atoms: C_25  and  C_26
REMARK    8  A    between atoms: C_25  and  C_27
REMARK    9  A    between atoms: C_31  and  C_32
REMARK   10  A    between atoms: C_31  and  C_33
REMARK   11  A    between atoms: C_31  and  O_41
REMARK   12  A    between atoms: C_33  and  C_35
REMARK   13  A    between atoms: C_35  and  C_36
REMARK   14  A    between atoms: C_36  and  C_37
REMARK   15  A    between atoms: C_37  and  C_38
REMARK   16  A    between atoms: C_37  and  C_39
REMARK   17  A    between atoms: C_37  and  O_40
REMARK                            x       y       z     vdW  Elec       q    Type
REMARK                         _______ _______ _______ _____ _____    ______ ____
ROOT
ATOM      1  C   UNL     1      -0.130   1.751   0.726  0.00  0.00    +0.012 C 
ATOM      2  C   UNL     1      -0.177   0.225   0.957  0.00  0.00    -0.020 C 
ATOM      3  C   UNL     1       0.639  -0.414  -0.188  0.00  0.00    +0.039 C 
ATOM      4  C   UNL     1       2.102  -0.047   0.182  0.00  0.00    +0.122 C 
ATOM      5  C   UNL     1       2.085   0.414   1.660  0.00  0.00    +0.063 C 
ATOM      6  C   UNL     1       0.717  -0.110   2.163  0.00  0.00    -0.011 C 
ATOM      7  C   UNL     1       0.211   0.543   3.420  0.00  0.00    +0.082 C 
ATOM      8  C   UNL     1      -1.299   0.734   3.343  0.00  0.00    +0.141 C 
ATOM      9  O   UNL     1      -1.804   1.653   3.969  0.00  0.00    -0.297 OA
ATOM     10  C   UNL     1      -2.129  -0.189   2.499  0.00  0.00    +0.036 C 
ATOM     11  C   UNL     1      -1.609  -0.248   1.070  0.00  0.00    +0.013 C 
ATOM     12  C   UNL     1      -2.490   0.598   0.147  0.00  0.00    +0.032 C 
ATOM     13  C   UNL     1      -3.939   0.198   0.263  0.00  0.00    -0.026 C 
ATOM     14  C   UNL     1      -4.461  -0.011   1.424  0.00  0.00    -0.057 C 
ATOM     15  C   UNL     1      -3.613  -0.058   2.659  0.00  0.00    +0.032 C 
ATOM     16  C   UNL     1      -4.106   0.935   3.697  0.00  0.00    +0.048 C 
ATOM     17  C   UNL     1      -5.550   0.569   4.071  0.00  0.00    +0.182 C 
ATOM     18  C   UNL     1      -6.403   0.488   2.834  0.00  0.00    +0.171 C 
ATOM     19  O   UNL     1      -7.488   1.047   2.816  0.00  0.00    -0.294 OA
ATOM     20  C   UNL     1      -5.943  -0.274   1.607  0.00  0.00    +0.047 C 
ATOM     21  C   UNL     1      -6.741   0.236   0.403  0.00  0.00    +0.023 C 
ATOM     22  C   UNL     1      -6.203  -1.770   1.789  0.00  0.00    +0.023 C 
ATOM     23  C   UNL     1      -1.932  -1.611   3.090  0.00  0.00    +0.020 C 
ATOM     24  C   UNL     1       0.931  -1.619   2.341  0.00  0.00    +0.012 C 
ENDROOT
BRANCH  17  25
ATOM     25  O   UNL     1      -5.561  -0.687   4.754  0.00  0.00    -0.384 OA
ATOM     26  H   UNL     1      -6.443  -0.982   5.021  0.00  0.00    +0.210 HD
ENDBRANCH  17  25
BRANCH   5  27
ATOM     27  C   UNL     1       3.200  -0.283   2.442  0.00  0.00    +0.126 C 
ATOM     28  C   UNL     1       3.039   0.015   3.934  0.00  0.00    +0.050 C 
BRANCH  27  29
ATOM     29  C   UNL     1       4.538   0.224   1.970  0.00  0.00    +0.165 C 
ATOM     30  O   UNL     1       4.642   1.351   1.550  0.00  0.00    -0.294 OA
BRANCH  29  31
ATOM     31  C   UNL     1       5.746  -0.675   2.022  0.00  0.00    +0.080 C 
BRANCH  31  32
ATOM     32  C   UNL     1       6.966   0.078   1.489  0.00  0.00    +0.042 C 
BRANCH  32  33
ATOM     33  C   UNL     1       8.193  -0.835   1.542  0.00  0.00    +0.061 C 
ATOM     34  C   UNL     1       9.435  -0.045   1.127  0.00  0.00    +0.041 C 
ATOM     35  C   UNL     1       8.375  -1.362   2.967  0.00  0.00    +0.041 C 
BRANCH  33  36
ATOM     36  O   UNL     1       8.007  -1.935   0.648  0.00  0.00    -0.389 OA
ATOM     37  H   UNL     1       7.885  -1.675  -0.275  0.00  0.00    +0.210 HD
ENDBRANCH  33  36
ENDBRANCH  32  33
ENDBRANCH  31  32
ENDBRANCH  29  31
ENDBRANCH  27  29
BRANCH  27  38
ATOM     38  O   UNL     1       3.122  -1.694   2.227  0.00  0.00    -0.381 OA
ATOM     39  H   UNL     1       3.236  -1.958   1.304  0.00  0.00    +0.211 HD
ENDBRANCH  27  38
ENDBRANCH   5  27
BRANCH   4  40
ATOM     40  O   UNL     1       2.579   1.012  -0.654  0.00  0.00    -0.391 OA
ATOM     41  H   UNL     1       2.598   0.791  -1.596  0.00  0.00    +0.210 HD
ENDBRANCH   4  40
TORSDOF 9
