REMARK  Name = ZINC02150630
REMARK  11 active torsions:
REMARK  status: ('A' for Active; 'I' for Inactive)
REMARK    1  A    between atoms: C_1  and  C_2
REMARK    2  A    between atoms: C_2  and  O_3
REMARK    3  A    between atoms: O_3  and  C_4
REMARK    4  A    between atoms: C_4  and  C_6
REMARK    5  A    between atoms: C_6  and  C_23
REMARK    6  A    between atoms: C_7  and  N_8
REMARK    7  A    between atoms: N_8  and  C_9
REMARK    8  A    between atoms: C_12  and  N_15
REMARK    9  A    between atoms: C_23  and  O_25
REMARK   10  A    between atoms: O_25  and  C_26
REMARK   11  A    between atoms: C_26  and  C_27
REMARK                            x       y       z     vdW  Elec       q    Type
REMARK                         _______ _______ _______ _____ _____    ______ ____
ROOT
ATOM      1  N   UNL     1       0.118   0.977  -0.685  0.00  0.00    -0.320 N 
ATOM      2  H   UNL     1       0.194   0.029  -0.880  0.00  0.00    +0.152 HD
ENDROOT
BRANCH   1   3
ATOM      3  C   UNL     1      -1.099   1.637  -0.885  0.00  0.00    +0.031 A 
ATOM      4  C   UNL     1      -1.209   2.992  -0.600  0.00  0.00    +0.025 A 
ATOM      5  C   UNL     1      -2.408   3.644  -0.803  0.00  0.00    +0.029 A 
ATOM      6  C   UNL     1      -3.507   2.944  -1.282  0.00  0.00    +0.067 A 
ATOM      7  C   UNL     1      -3.399   1.588  -1.562  0.00  0.00    +0.029 A 
ATOM      8  C   UNL     1      -2.199   0.936  -1.364  0.00  0.00    +0.025 A 
BRANCH   6   9
ATOM      9  N   UNL     1      -4.728   3.606  -1.482  0.00  0.00    -0.224 N 
ATOM     10  C   UNL     1      -5.226   4.613  -0.719  0.00  0.00    +0.125 A 
ATOM     11  C   UNL     1      -6.420   4.975  -1.248  0.00  0.00    +0.084 A 
ATOM     12  C   UNL     1      -6.663   4.161  -2.360  0.00  0.00    +0.143 A 
ATOM     13  N   UNL     1      -5.652   3.342  -2.501  0.00  0.00    -0.157 NA
ATOM     14 BR   UNL     1      -8.193   4.232  -3.470  0.00  0.00    -0.026 Br
ATOM     15 BR   UNL     1      -7.559   6.335  -0.593  0.00  0.00    -0.045 Br
ATOM     16 BR   UNL     1      -4.401   5.374   0.803  0.00  0.00    -0.027 Br
ENDBRANCH   6   9
ENDBRANCH   1   3
BRANCH   1  18
ATOM     17  C   UNL     1       2.353   0.985   0.089  0.00  0.00    +0.156 C 
ATOM     18  C   UNL     1       1.188   1.658  -0.226  0.00  0.00    +0.094 C 
BRANCH  17  19
ATOM     19  C   UNL     1       2.378  -0.481   0.081  0.00  0.00    +0.347 C 
ATOM     20  O   UNL     1       1.349  -1.106  -0.095  0.00  0.00    -0.245 OA
BRANCH  19  21
ATOM     21  O   UNL     1       3.541  -1.137   0.270  0.00  0.00    -0.461 OA
BRANCH  21  23
ATOM     22  C   UNL     1       4.895  -3.151   0.478  0.00  0.00    +0.048 C 
ATOM     23  C   UNL     1       3.490  -2.588   0.249  0.00  0.00    +0.229 C 
ENDBRANCH  21  23
ENDBRANCH  19  21
ENDBRANCH  17  19
BRANCH  17  24
ATOM     24  C   UNL     1       3.565   1.737   0.431  0.00  0.00    +0.347 C 
ATOM     25  O   UNL     1       3.544   2.953   0.438  0.00  0.00    -0.245 OA
BRANCH  24  26
ATOM     26  O   UNL     1       4.702   1.080   0.738  0.00  0.00    -0.461 OA
BRANCH  26  27
ATOM     27  C   UNL     1       5.862   1.889   1.066  0.00  0.00    +0.229 C 
ATOM     28  C   UNL     1       7.047   0.975   1.384  0.00  0.00    +0.048 C 
ENDBRANCH  26  27
ENDBRANCH  24  26
ENDBRANCH  17  24
ENDBRANCH   1  18
TORSDOF 9
