REMARK  Name = ZINC01064879
REMARK  12 active torsions:
REMARK  status: ('A' for Active; 'I' for Inactive)
REMARK    1  A    between atoms: C_1  and  C_2
REMARK    2  A    between atoms: C_5  and  N_35
REMARK    3  A    between atoms: C_7  and  N_8
REMARK    4  A    between atoms: C_11  and  C_18
REMARK    5  A    between atoms: C_13  and  C_16
REMARK    6  A    between atoms: C_14  and  N_15
REMARK    7  A    between atoms: C_21  and  O_26
REMARK    8  A    between atoms: C_22  and  O_24
REMARK    9  A    between atoms: O_24  and  C_25
REMARK   10  A    between atoms: O_26  and  C_27
REMARK   11  A    between atoms: C_31  and  C_33
REMARK   12  A    between atoms: C_31  and  C_34
REMARK                            x       y       z     vdW  Elec       q    Type
REMARK                         _______ _______ _______ _____ _____    ______ ____
ROOT
ATOM      1  N   UNL     1       1.177  -2.054  -0.040  0.00  0.00    -0.260 N 
ATOM      2  C   UNL     1       1.168  -0.684  -0.033  0.00  0.00    +0.025 C 
ATOM      3  C   UNL     1       0.002  -0.004   0.002  0.00  0.00    +0.025 C 
ATOM      4  C   UNL     1      -1.318  -0.731   0.039  0.00  0.00    +0.097 C 
ATOM      5  C   UNL     1      -1.163  -2.159  -0.395  0.00  0.00    +0.077 C 
ATOM      6  C   UNL     1       0.055  -2.759  -0.414  0.00  0.00    +0.107 C 
ATOM      7  C   UNL     1      -0.017   1.402   0.010  0.00  0.00    +0.162 C 
ATOM      8  O   UNL     1      -1.084   1.984   0.018  0.00  0.00    -0.292 OA
ATOM      9  C   UNL     1       1.258   2.199   0.002  0.00  0.00    +0.086 C 
ATOM     10  C   UNL     1       2.365   1.376   0.669  0.00  0.00    -0.023 C 
ATOM     11  C   UNL     1       2.490   0.042  -0.071  0.00  0.00    +0.058 C 
ATOM     12  C   UNL     1       2.003   1.119   2.134  0.00  0.00    +0.011 C 
ATOM     13  C   UNL     1       3.692   2.133   0.593  0.00  0.00    +0.011 C 
ENDROOT
BRANCH   1  20
ATOM     14  C   UNL     1       3.073  -2.698  -2.062  0.00  0.00    +0.045 C 
ATOM     15  C   UNL     1       3.288  -3.076  -0.620  0.00  0.00    -0.029 A 
ATOM     16  C   UNL     1       4.431  -3.755  -0.246  0.00  0.00    +0.007 A 
ATOM     17  C   UNL     1       4.629  -4.102   1.078  0.00  0.00    +0.033 A 
ATOM     18  C   UNL     1       3.684  -3.771   2.032  0.00  0.00    +0.128 A 
ATOM     19  C   UNL     1       2.541  -3.088   1.665  0.00  0.00    +0.056 A 
ATOM     20  C   UNL     1       2.337  -2.742   0.335  0.00  0.00    +0.045 A 
BRANCH  18  21
ATOM     21  N   UNL     1       3.900  -4.144   3.448  0.00  0.00    +0.056 N 
ATOM     22  O   UNL     1       4.910  -4.743   3.772  0.00  0.00    -0.126 OA
ATOM     23  O   UNL     1       3.068  -3.853   4.288  0.00  0.00    -0.126 OA
ENDBRANCH  18  21
ENDBRANCH   1  20
BRANCH   4  24
ATOM     24  C   UNL     1      -1.861  -0.698   1.445  0.00  0.00    -0.031 A 
ATOM     25  C   UNL     1      -1.135  -1.259   2.478  0.00  0.00    +0.008 A 
ATOM     26  C   UNL     1      -1.628  -1.230   3.769  0.00  0.00    +0.050 A 
ATOM     27  C   UNL     1      -2.853  -0.638   4.030  0.00  0.00    +0.162 A 
ATOM     28  C   UNL     1      -3.585  -0.074   2.989  0.00  0.00    +0.162 A 
ATOM     29  C   UNL     1      -3.082  -0.101   1.698  0.00  0.00    +0.054 A 
BRANCH  28  30
ATOM     30  O   UNL     1      -4.788   0.509   3.240  0.00  0.00    -0.491 OA
ATOM     31  C   UNL     1      -5.483   1.068   2.123  0.00  0.00    +0.277 C 
ENDBRANCH  28  30
BRANCH  27  32
ATOM     32  O   UNL     1      -3.340  -0.609   5.299  0.00  0.00    -0.491 OA
ATOM     33  C   UNL     1      -2.535  -1.208   6.317  0.00  0.00    +0.277 C 
ENDBRANCH  27  32
ENDBRANCH   4  24
BRANCH   6  34
ATOM     34  N   UNL     1       0.169  -4.071  -0.808  0.00  0.00    -0.345 N 
ATOM     35  H   UNL     1       1.039  -4.499  -0.822  0.00  0.00    +0.144 HD
ATOM     36  H   UNL     1      -0.621  -4.568  -1.071  0.00  0.00    +0.144 HD
ENDBRANCH   6  34
BRANCH   5  37
ATOM     37  C   UNL     1      -2.320  -2.903  -0.795  0.00  0.00    +0.099 C 
ATOM     38  N   UNL     1      -3.237  -3.493  -1.113  0.00  0.00    -0.191 NA
ENDBRANCH   5  37
TORSDOF 7
