REMARK  Name = ZINC35668479
REMARK  2 active torsions:
REMARK  status: ('A' for Active; 'I' for Inactive)
REMARK    1  A    between atoms: C_3  and  N_17
REMARK    2  A    between atoms: C_6  and  C_7
REMARK                            x       y       z     vdW  Elec       q    Type
REMARK                         _______ _______ _______ _____ _____    ______ ____
ROOT
ATOM      1  C   UNL     1       0.392   0.678  -1.136  0.00  0.00    +0.006 A 
ATOM      2  C   UNL     1       1.578   1.385  -1.147  0.00  0.00    +0.027 A 
ATOM      3  C   UNL     1       2.380   1.410  -0.014  0.00  0.00    +0.054 A 
ATOM      4  C   UNL     1       1.986   0.724   1.127  0.00  0.00    +0.027 A 
ATOM      5  C   UNL     1       0.799   0.019   1.132  0.00  0.00    +0.006 A 
ATOM      6  C   UNL     1       0.002  -0.004   0.002  0.00  0.00    -0.044 A 
ENDROOT
BRANCH   6   7
ATOM      7  C   UNL     1      -1.294  -0.774   0.010  0.00  0.00    +0.025 C 
ATOM      8  C   UNL     1      -1.134  -2.031   0.868  0.00  0.00    -0.003 C 
ATOM      9  C   UNL     1      -0.024  -2.908   0.286  0.00  0.00    +0.007 C 
ATOM     10  C   UNL     1      -0.388  -3.309  -1.145  0.00  0.00    -0.010 C 
ATOM     11  C   UNL     1      -1.704  -4.090  -1.136  0.00  0.00    +0.007 C 
ATOM     12  C   UNL     1      -2.814  -3.213  -0.554  0.00  0.00    -0.010 C 
ATOM     13  C   UNL     1      -2.450  -2.812   0.876  0.00  0.00    +0.007 C 
ATOM     14  C   UNL     1      -2.973  -1.956  -1.412  0.00  0.00    +0.007 C 
ATOM     15  C   UNL     1      -1.658  -1.175  -1.421  0.00  0.00    -0.003 C 
ATOM     16  C   UNL     1      -0.548  -2.052  -2.003  0.00  0.00    +0.007 C 
ENDBRANCH   6   7
BRANCH   3  17
ATOM     17  N   UNL     1       3.585   2.125  -0.022  0.00  0.00    -0.227 N 
ATOM     18  C   UNL     1       4.752   1.493  -0.353  0.00  0.00    +0.265 A 
ATOM     19  O   UNL     1       4.753   0.181  -0.673  0.00  0.00    -0.267 OA
ATOM     20  C   UNL     1       5.917   2.209  -0.355  0.00  0.00    +0.142 A 
ATOM     21  C   UNL     1       5.879   3.566  -0.018  0.00  0.00    +0.280 A 
ATOM     22  O   UNL     1       7.017   4.296  -0.013  0.00  0.00    -0.266 OA
ATOM     23  N   UNL     1       4.721   4.135   0.296  0.00  0.00    -0.153 NA
ATOM     24  C   UNL     1       3.590   3.434   0.290  0.00  0.00    +0.359 A 
ATOM     25  O   UNL     1       2.541   3.986   0.578  0.00  0.00    -0.244 OA
ENDBRANCH   3  17
TORSDOF 2
