REMARK  Name = ZINC39677923
REMARK  11 active torsions:
REMARK  status: ('A' for Active; 'I' for Inactive)
REMARK    1  A    between atoms: C_1  and  C_2
REMARK    2  A    between atoms: C_2  and  C_3
REMARK    3  A    between atoms: C_3  and  C_4
REMARK    4  A    between atoms: C_4  and  C_5
REMARK    5  A    between atoms: C_5  and  C_6
REMARK    6  A    between atoms: C_6  and  C_7
REMARK    7  A    between atoms: C_11  and  C_20
REMARK    8  A    between atoms: N_22  and  C_23
REMARK    9  A    between atoms: C_23  and  C_24
REMARK   10  A    between atoms: N_27  and  C_31
REMARK   11  A    between atoms: C_31  and  C_32
REMARK                            x       y       z     vdW  Elec       q    Type
REMARK                         _______ _______ _______ _____ _____    ______ ____
ROOT
ATOM      1  C   UNL     1      -3.948  -4.674  -0.098  0.00  0.00    +0.216 C 
ATOM      2  O   UNL     1      -4.814  -3.825  -0.120  0.00  0.00    -0.276 OA
ATOM      3  N   UNL     1      -4.284  -5.979  -0.062  0.00  0.00    -0.300 N 
ATOM      4  C   UNL     1      -3.376  -7.150  -0.025  0.00  0.00    +0.121 C 
ATOM      5  C   UNL     1      -4.055  -8.139   0.949  0.00  0.00    +0.100 C 
ATOM      6  C   UNL     1      -5.544  -7.753   0.926  0.00  0.00    -0.004 C 
ATOM      7  C   UNL     1      -5.645  -6.567  -0.044  0.00  0.00    +0.115 C 
ATOM      8  C   UNL     1      -6.385  -8.921   0.422  0.00  0.00    -0.010 C 
ATOM      9  C   UNL     1      -7.866  -8.533   0.463  0.00  0.00    -0.082 C 
ATOM     10  N   UNL     1      -8.245  -8.188   1.839  0.00  0.00    +0.379 N 
ATOM     11  C   UNL     1      -7.497  -7.005   2.282  0.00  0.00    -0.082 C 
ATOM     12  C   UNL     1      -6.001  -7.329   2.318  0.00  0.00    -0.010 C 
ATOM     13  H   UNL     1      -9.234  -7.992   1.874  0.00  0.00    -0.086 HD
ATOM     14  H   UNL     1      -8.037  -8.964   2.449  0.00  0.00    -0.086 HD
ENDROOT
BRANCH   5  15
ATOM     15  C   UNL     1      -3.491  -7.980   2.337  0.00  0.00    +0.218 C 
ATOM     16  O   UNL     1      -3.080  -6.900   2.705  0.00  0.00    -0.275 OA
ATOM     17  N   UNL     1      -3.443  -9.038   3.170  0.00  0.00    -0.313 N 
ATOM     18  H   UNL     1      -3.772  -9.902   2.877  0.00  0.00    +0.149 HD
BRANCH  17  19
ATOM     19  C   UNL     1      -2.895  -8.884   4.520  0.00  0.00    +0.137 C 
BRANCH  19  20
ATOM     20  C   UNL     1      -2.957 -10.226   5.253  0.00  0.00    +0.149 C 
ATOM     21  C   UNL     1      -2.385 -10.064   6.664  0.00  0.00    +0.118 C 
ATOM     22  N   UNL     1      -2.518 -11.336   7.389  0.00  0.00    -0.293 NA
ATOM     23  C   UNL     1      -3.927 -11.751   7.459  0.00  0.00    +0.113 C 
ATOM     24  C   UNL     1      -4.482 -11.896   6.040  0.00  0.00    +0.175 C 
ATOM     25  O   UNL     1      -4.316 -10.660   5.340  0.00  0.00    -0.372 OA
BRANCH  22  26
ATOM     26  C   UNL     1      -1.929 -11.241   8.731  0.00  0.00    +0.119 C 
BRANCH  26  27
ATOM     27  C   UNL     1      -1.861 -12.614   9.348  0.00  0.00    -0.033 A 
ATOM     28  C   UNL     1      -2.923 -13.091  10.094  0.00  0.00    +0.005 A 
ATOM     29  C   UNL     1      -2.861 -14.350  10.660  0.00  0.00    +0.000 A 
ATOM     30  C   UNL     1      -1.736 -15.134  10.480  0.00  0.00    +0.000 A 
ATOM     31  C   UNL     1      -0.674 -14.658   9.734  0.00  0.00    +0.000 A 
ATOM     32  C   UNL     1      -0.739 -13.400   9.164  0.00  0.00    +0.005 A 
ENDBRANCH  26  27
ENDBRANCH  22  26
ENDBRANCH  19  20
ENDBRANCH  17  19
ENDBRANCH   5  15
BRANCH   1  33
ATOM     33  C   UNL     1      -2.496  -4.270  -0.111  0.00  0.00    +0.096 C 
BRANCH  33  34
ATOM     34  C   UNL     1      -2.392  -2.744  -0.153  0.00  0.00    +0.009 C 
BRANCH  34  35
ATOM     35  C   UNL     1      -0.918  -2.334  -0.166  0.00  0.00    +0.000 C 
BRANCH  35  36
ATOM     36  C   UNL     1      -0.814  -0.808  -0.207  0.00  0.00    -0.000 C 
BRANCH  36  38
ATOM     37  C   UNL     1       0.764   1.129  -0.262  0.00  0.00    +0.004 C 
ATOM     38  C   UNL     1       0.660  -0.397  -0.220  0.00  0.00    -0.003 C 
ENDBRANCH  36  38
ENDBRANCH  35  36
ENDBRANCH  34  35
ENDBRANCH  33  34
ENDBRANCH   1  33
TORSDOF 10
