REMARK  Name = ZINC39688695
REMARK  11 active torsions:
REMARK  status: ('A' for Active; 'I' for Inactive)
REMARK    1  A    between atoms: C_1  and  C_2
REMARK    2  A    between atoms: C_2  and  C_3
REMARK    3  A    between atoms: C_3  and  C_4
REMARK    4  A    between atoms: C_4  and  C_5
REMARK    5  A    between atoms: C_5  and  C_7
REMARK    6  A    between atoms: C_5  and  C_8
REMARK    7  A    between atoms: C_12  and  C_21
REMARK    8  A    between atoms: N_23  and  C_24
REMARK    9  A    between atoms: C_24  and  C_26
REMARK   10  A    between atoms: C_24  and  C_27
REMARK   11  A    between atoms: C_27  and  C_28
REMARK                            x       y       z     vdW  Elec       q    Type
REMARK                         _______ _______ _______ _____ _____    ______ ____
ROOT
ATOM      1  C   UNL     1       1.418  -4.062   2.526  0.00  0.00    +0.218 C 
ATOM      2  O   UNL     1       0.821  -4.670   1.663  0.00  0.00    -0.275 OA
ATOM      3  N   UNL     1       2.001  -4.730   3.541  0.00  0.00    -0.300 N 
ATOM      4  C   UNL     1       2.761  -4.167   4.681  0.00  0.00    +0.121 C 
ATOM      5  C   UNL     1       2.333  -5.022   5.896  0.00  0.00    +0.100 C 
ATOM      6  C   UNL     1       1.853  -6.351   5.290  0.00  0.00    -0.004 C 
ATOM      7  C   UNL     1       2.020  -6.195   3.772  0.00  0.00    +0.115 C 
ATOM      8  C   UNL     1       0.385  -6.589   5.632  0.00  0.00    -0.010 C 
ATOM      9  C   UNL     1      -0.053  -7.943   5.068  0.00  0.00    -0.082 C 
ATOM     10  N   UNL     1       0.782  -9.007   5.640  0.00  0.00    +0.379 N 
ATOM     11  C   UNL     1       2.179  -8.822   5.230  0.00  0.00    -0.082 C 
ATOM     12  C   UNL     1       2.712  -7.505   5.800  0.00  0.00    -0.010 C 
ATOM     13  H   UNL     1       0.722  -8.975   6.647  0.00  0.00    -0.086 HD
ATOM     14  H   UNL     1       0.453  -9.903   5.314  0.00  0.00    -0.086 HD
ENDROOT
BRANCH   5  15
ATOM     15  C   UNL     1       3.506  -5.253   6.814  0.00  0.00    +0.218 C 
ATOM     16  O   UNL     1       4.620  -5.383   6.353  0.00  0.00    -0.275 OA
ATOM     17  N   UNL     1       3.316  -5.315   8.146  0.00  0.00    -0.312 N 
ATOM     18  H   UNL     1       2.425  -5.211   8.515  0.00  0.00    +0.149 HD
BRANCH  17  19
ATOM     19  C   UNL     1       4.456  -5.540   9.039  0.00  0.00    +0.074 C 
ATOM     20  C   UNL     1       5.135  -4.204   9.345  0.00  0.00    +0.028 C 
BRANCH  19  21
ATOM     21  C   UNL     1       3.966  -6.174  10.342  0.00  0.00    +0.057 C 
BRANCH  21  22
ATOM     22  C   UNL     1       3.407  -7.544  10.056  0.00  0.00    -0.045 A 
ATOM     23  C   UNL     1       2.069  -7.693   9.744  0.00  0.00    +0.006 A 
ATOM     24  C   UNL     1       1.555  -8.948   9.481  0.00  0.00    +0.038 A 
ATOM     25  C   UNL     1       2.382 -10.058   9.529  0.00  0.00    +0.123 A 
ATOM     26  C   UNL     1       3.723  -9.908   9.841  0.00  0.00    +0.038 A 
ATOM     27  C   UNL     1       4.235  -8.650  10.099  0.00  0.00    +0.006 A 
ATOM     28  F   UNL     1       1.882 -11.286   9.272  0.00  0.00    -0.205 F 
ENDBRANCH  21  22
ENDBRANCH  19  21
ENDBRANCH  17  19
ENDBRANCH   5  15
BRANCH   1  29
ATOM     29  C   UNL     1       1.508  -2.559   2.463  0.00  0.00    +0.072 C 
ATOM     30  C   UNL     1       2.977  -2.139   2.387  0.00  0.00    +0.017 C 
BRANCH  29  31
ATOM     31  C   UNL     1       0.769  -2.055   1.222  0.00  0.00    +0.012 C 
BRANCH  31  32
ATOM     32  C   UNL     1       0.753  -0.525   1.224  0.00  0.00    +0.000 C 
BRANCH  32  34
ATOM     33  C   UNL     1      -0.003   1.509  -0.015  0.00  0.00    +0.004 C 
ATOM     34  C   UNL     1       0.013  -0.021  -0.017  0.00  0.00    -0.003 C 
ENDBRANCH  32  34
ENDBRANCH  31  32
ENDBRANCH  29  31
ENDBRANCH   1  29
TORSDOF 8
