REMARK  Name = ZINC22293166
REMARK  7 active torsions:
REMARK  status: ('A' for Active; 'I' for Inactive)
REMARK    1  A    between atoms: C_1  and  C_2
REMARK    2  A    between atoms: N_11  and  C_15
REMARK    3  A    between atoms: C_15  and  C_16
REMARK    4  A    between atoms: C_21  and  C_24
REMARK    5  A    between atoms: C_24  and  N_25
REMARK    6  A    between atoms: C_27  and  C_34
REMARK    7  A    between atoms: C_30  and  C_33
REMARK                            x       y       z     vdW  Elec       q    Type
REMARK                         _______ _______ _______ _____ _____    ______ ____
ROOT
ATOM      1  C   UNL     1      -2.969   0.347   5.573  0.00  0.00    +0.237 C 
ATOM      2  O   UNL     1      -1.778   0.378   5.343  0.00  0.00    -0.274 OA
ATOM      3  N   UNL     1      -3.409   0.315   6.847  0.00  0.00    -0.263 N 
ATOM      4  C   UNL     1      -2.498   0.319   7.897  0.00  0.00    +0.165 A 
ATOM      5  N   UNL     1      -2.729   0.291   9.195  0.00  0.00    -0.231 NA
ATOM      6  C   UNL     1      -1.740   0.299  10.066  0.00  0.00    +0.034 A 
ATOM      7  C   UNL     1      -0.468   0.337   9.598  0.00  0.00    +0.070 A 
ATOM      8  S   UNL     1      -0.763   0.352   7.836  0.00  0.00    -0.060 S 
ATOM      9  H   UNL     1      -4.488   0.287   7.055  0.00  0.00    +0.157 HD
ENDROOT
BRANCH   1  10
ATOM     10  C   UNL     1      -3.956   0.343   4.435  0.00  0.00    +0.214 C 
BRANCH  10  20
ATOM     11  C   UNL     1      -0.002   1.056   2.507  0.00  0.00    +0.010 C 
ATOM     12  C   UNL     1      -0.730   1.580   1.267  0.00  0.00    +0.018 C 
ATOM     13  C   UNL     1      -0.013   1.086   0.008  0.00  0.00    +0.006 C 
ATOM     14  C   UNL     1      -0.753   1.593  -1.231  0.00  0.00    +0.000 C 
ATOM     15  C   UNL     1      -2.186   1.056  -1.227  0.00  0.00    +0.003 C 
ATOM     16  C   UNL     1      -2.911   1.550   0.027  0.00  0.00    +0.035 C 
ATOM     17  C   UNL     1      -2.167   1.069   1.268  0.00  0.00    +0.115 C 
ATOM     18  C   UNL     1      -2.885   1.517   2.521  0.00  0.00    +0.247 C 
ATOM     19  O   UNL     1      -3.102   2.655   2.875  0.00  0.00    -0.273 OA
ATOM     20  N   UNL     1      -3.233   0.381   3.161  0.00  0.00    -0.215 N 
ATOM     21  C   UNL     1      -2.836  -0.706   2.489  0.00  0.00    +0.310 C 
ATOM     22  O   UNL     1      -3.035  -1.844   2.866  0.00  0.00    -0.252 OA
ATOM     23  N   UNL     1      -2.191  -0.397   1.347  0.00  0.00    -0.285 N 
ATOM     24  H   UNL     1      -1.730  -0.998   0.550  0.00  0.00    +0.151 HD
ENDBRANCH  10  20
ENDBRANCH   1  10
BRANCH   6  25
ATOM     25  C   UNL     1      -2.016   0.268  11.547  0.00  0.00    -0.022 C 
BRANCH  25  26
ATOM     26  N   UNL     1      -2.256   1.634  12.030  0.00  0.00    +0.384 N 
ATOM     27  C   UNL     1      -3.171   2.355  11.136  0.00  0.00    -0.075 C 
ATOM     28  C   UNL     1      -3.284   3.813  11.587  0.00  0.00    -0.031 C 
ATOM     29  C   UNL     1      -3.804   3.859  13.026  0.00  0.00    +0.003 C 
ATOM     30  C   UNL     1      -2.859   3.060  13.928  0.00  0.00    -0.031 C 
ATOM     31  C   UNL     1      -2.759   1.624  13.409  0.00  0.00    -0.075 C 
ATOM     32  C   UNL     1      -3.404   3.051  15.357  0.00  0.00    +0.005 C 
ATOM     33  C   UNL     1      -4.254   4.559  10.668  0.00  0.00    +0.005 C 
ATOM     34  H   UNL     1      -1.294   2.169  12.027  0.00  0.00    -0.081 HD
ENDBRANCH  25  26
ENDBRANCH   6  25
TORSDOF 4
