REMARK  Name = ZINC27326821
REMARK  14 active torsions:
REMARK  status: ('A' for Active; 'I' for Inactive)
REMARK    1  A    between atoms: C_1  and  C_2
REMARK    2  A    between atoms: C_2  and  C_3
REMARK    3  A    between atoms: C_3  and  C_4
REMARK    4  A    between atoms: C_3  and  C_5
REMARK    5  A    between atoms: C_3  and  C_6
REMARK    6  A    between atoms: N_8  and  C_9
REMARK    7  A    between atoms: C_9  and  C_10
REMARK    8  A    between atoms: C_10  and  C_11
REMARK    9  A    between atoms: C_11  and  O_39
REMARK   10  A    between atoms: C_17  and  C_21
REMARK   11  A    between atoms: C_18  and  C_19
REMARK   12  A    between atoms: C_18  and  C_20
REMARK   13  A    between atoms: C_21  and  S_22
REMARK   14  A    between atoms: S_22  and  N_25
REMARK                            x       y       z     vdW  Elec       q    Type
REMARK                         _______ _______ _______ _____ _____    ______ ____
ROOT
ATOM      1  C   UNL     1      -2.768   7.512   5.180  0.00  0.00    +0.075 C 
ATOM      2  C   UNL     1      -1.995   7.039   6.433  0.00  0.00    +0.039 C 
ATOM      3  C   UNL     1      -1.617   8.358   7.180  0.00  0.00    -0.002 C 
ATOM      4  C   UNL     1      -0.556   9.055   6.275  0.00  0.00    +0.005 C 
ATOM      5  C   UNL     1      -1.349   9.523   5.033  0.00  0.00    +0.012 C 
ATOM      6  C   UNL     1      -2.815   9.066   5.306  0.00  0.00    +0.026 C 
ATOM      7  C   UNL     1      -2.906   9.229   6.864  0.00  0.00    -0.022 C 
ATOM      8  C   UNL     1      -2.728  10.684   7.300  0.00  0.00    +0.012 C 
ATOM      9  C   UNL     1      -4.191   8.620   7.430  0.00  0.00    +0.012 C 
ENDROOT
BRANCH   1  10
ATOM     10  O   UNL     1      -4.092   6.973   5.179  0.00  0.00    -0.388 OA
ATOM     11  H   UNL     1      -4.767   7.171   6.024  0.00  0.00    +0.210 HD
ENDBRANCH   1  10
BRANCH   1  12
ATOM     12  C   UNL     1      -2.025   7.102   3.908  0.00  0.00    +0.054 C 
BRANCH  12  13
ATOM     13  C   UNL     1      -2.025   5.576   3.787  0.00  0.00    +0.107 C 
BRANCH  13  16
ATOM     14  C   UNL     1      -1.187   3.879   2.253  0.00  0.00    +0.219 C 
ATOM     15  O   UNL     1      -1.662   3.031   2.978  0.00  0.00    -0.275 OA
ATOM     16  N   UNL     1      -1.313   5.183   2.568  0.00  0.00    -0.315 N 
ATOM     17  H   UNL     1      -0.882   5.952   1.911  0.00  0.00    +0.149 HD
BRANCH  14  18
ATOM     18  C   UNL     1      -0.454   3.474   0.999  0.00  0.00    +0.041 C 
ATOM     19  C   UNL     1       0.988   3.980   1.066  0.00  0.00    +0.020 C 
ATOM     20  C   UNL     1      -1.152   4.083  -0.218  0.00  0.00    +0.020 C 
BRANCH  18  22
ATOM     21  C   UNL     1       0.289   1.539  -0.395  0.00  0.00    +0.005 C 
ATOM     22  C   UNL     1      -0.455   1.949   0.878  0.00  0.00    +0.012 C 
ENDBRANCH  18  22
ENDBRANCH  14  18
ENDBRANCH  13  16
ENDBRANCH  12  13
ENDBRANCH   1  12
BRANCH   6  23
ATOM     23  C   UNL     1      -3.898   9.771   4.487  0.00  0.00    +0.195 C 
BRANCH  23  24
ATOM     24  S   UNL     1      -3.747   9.292   2.744  0.00  0.00    +0.032 S 
ATOM     25  O   UNL     1      -2.448   9.606   2.261  0.00  0.00    -0.158 OA
ATOM     26  O   UNL     1      -4.303   8.000   2.542  0.00  0.00    -0.158 OA
BRANCH  24  27
ATOM     27  N   UNL     1      -4.760  10.319   1.931  0.00  0.00    -0.181 NA
ATOM     28  C   UNL     1      -6.166   9.958   1.702  0.00  0.00    +0.110 C 
ATOM     29  C   UNL     1      -7.054  11.092   2.236  0.00  0.00    +0.033 C 
ATOM     30  C   UNL     1      -6.625  12.413   1.599  0.00  0.00    +0.017 C 
ATOM     31  C   UNL     1      -5.171  12.724   1.951  0.00  0.00    +0.033 C 
ATOM     32  C   UNL     1      -4.268  11.606   1.420  0.00  0.00    +0.110 C 
ATOM     33  C   UNL     1      -6.794  12.347   0.102  0.00  0.00    -0.015 C 
ATOM     34  C   UNL     1      -7.659  13.281  -0.257  0.00  0.00    +0.005 C 
ATOM     35  C   UNL     1      -8.138  14.037   0.915  0.00  0.00    -0.021 A 
ATOM     36  C   UNL     1      -7.523  13.530   2.063  0.00  0.00    -0.030 A 
ATOM     37  C   UNL     1      -7.801  14.068   3.298  0.00  0.00    +0.005 A 
ATOM     38  C   UNL     1      -8.696  15.119   3.409  0.00  0.00    +0.000 A 
ATOM     39  C   UNL     1      -9.312  15.630   2.280  0.00  0.00    +0.001 A 
ATOM     40  C   UNL     1      -9.039  15.097   1.037  0.00  0.00    +0.008 A 
ENDBRANCH  24  27
ENDBRANCH  23  24
ENDBRANCH   6  23
TORSDOF 9
