REMARK  Name = ZINC15015678
REMARK  13 active torsions:
REMARK  status: ('A' for Active; 'I' for Inactive)
REMARK    1  A    between atoms: C_1  and  C_2
REMARK    2  A    between atoms: C_2  and  C_3
REMARK    3  A    between atoms: C_2  and  C_4
REMARK    4  A    between atoms: C_2  and  C_5
REMARK    5  A    between atoms: C_7  and  C_16
REMARK    6  A    between atoms: C_9  and  C_12
REMARK    7  A    between atoms: C_10  and  O_11
REMARK    8  A    between atoms: C_12  and  C_13
REMARK    9  A    between atoms: C_12  and  C_14
REMARK   10  A    between atoms: C_12  and  C_15
REMARK   11  A    between atoms: C_28  and  S_31
REMARK   12  A    between atoms: S_31  and  C_32
REMARK   13  A    between atoms: C_32  and  C_33
REMARK                            x       y       z     vdW  Elec       q    Type
REMARK                         _______ _______ _______ _____ _____    ______ ____
ROOT
ATOM      1  C   UNL     1      -3.270   3.732   1.291  0.00  0.00    +0.294 C 
ATOM      2  N   UNL     1      -4.473   4.350   0.767  0.00  0.00    -0.305 N 
ATOM      3  C   UNL     1      -4.359   5.411  -0.137  0.00  0.00    +0.039 A 
ATOM      4  C   UNL     1      -4.722   6.698   0.213  0.00  0.00    +0.024 A 
ATOM      5  C   UNL     1      -4.569   7.728  -0.698  0.00  0.00    +0.002 A 
ATOM      6  C   UNL     1      -4.054   7.478  -1.958  0.00  0.00    +0.001 A 
ATOM      7  C   UNL     1      -3.692   6.197  -2.324  0.00  0.00    +0.012 A 
ATOM      8  C   UNL     1      -3.850   5.150  -1.423  0.00  0.00    +0.028 A 
ATOM      9  C   UNL     1      -3.504   3.760  -1.784  0.00  0.00    +0.156 A 
ATOM     10  C   UNL     1      -2.732   2.980  -0.895  0.00  0.00    +0.248 A 
ATOM     11  N   UNL     1      -2.442   1.735  -1.229  0.00  0.00    -0.184 NA
ATOM     12  C   UNL     1      -2.877   1.255  -2.391  0.00  0.00    +0.213 A 
ATOM     13  N   UNL     1      -3.596   2.006  -3.216  0.00  0.00    -0.122 NA
ATOM     14  N   UNL     1      -3.904   3.224  -2.927  0.00  0.00    -0.141 NA
ATOM     15  O   UNL     1      -2.301   3.517   0.271  0.00  0.00    -0.449 OA
ATOM     16  H   UNL     1      -5.346   4.026   1.040  0.00  0.00    +0.150 HD
ENDROOT
BRANCH   1  19
ATOM     17  C   UNL     1      -2.978   6.160   4.166  0.00  0.00    +0.000 A 
ATOM     18  C   UNL     1      -3.515   5.332   3.200  0.00  0.00    +0.016 A 
ATOM     19  C   UNL     1      -2.682   4.635   2.344  0.00  0.00    +0.012 A 
ATOM     20  C   UNL     1      -1.310   4.760   2.458  0.00  0.00    +0.016 A 
ATOM     21  C   UNL     1      -0.768   5.591   3.420  0.00  0.00    +0.000 A 
ATOM     22  C   UNL     1      -1.602   6.292   4.279  0.00  0.00    +0.124 A 
BRANCH  17  24
ATOM     23  C   UNL     1      -5.345   6.599   4.762  0.00  0.00    +0.015 C 
ATOM     24  C   UNL     1      -3.887   6.920   5.098  0.00  0.00    -0.009 C 
ATOM     25  C   UNL     1      -3.594   6.511   6.543  0.00  0.00    +0.015 C 
ATOM     26  C   UNL     1      -3.645   8.422   4.934  0.00  0.00    +0.015 C 
ENDBRANCH  17  24
BRANCH  21  27
ATOM     27  C   UNL     1       0.728   5.733   3.538  0.00  0.00    -0.009 C 
ATOM     28  C   UNL     1       1.408   4.861   2.481  0.00  0.00    +0.015 C 
ATOM     29  C   UNL     1       1.121   7.196   3.323  0.00  0.00    +0.015 C 
ATOM     30  C   UNL     1       1.173   5.285   4.932  0.00  0.00    +0.015 C 
ENDBRANCH  21  27
BRANCH  22  31
ATOM     31  O   UNL     1      -1.071   7.106   5.229  0.00  0.00    -0.506 OA
ATOM     32  H   UNL     1      -0.899   6.665   6.072  0.00  0.00    +0.292 HD
ENDBRANCH  22  31
ENDBRANCH   1  19
BRANCH  12  33
ATOM     33  S   UNL     1      -2.493  -0.404  -2.843  0.00  0.00    -0.080 S 
BRANCH  33  34
ATOM     34  C   UNL     1      -3.314  -0.489  -4.454  0.00  0.00    +0.112 C 
BRANCH  34  35
ATOM     35  C   UNL     1      -3.113  -1.860  -5.048  0.00  0.00    -0.037 A 
ATOM     36  C   UNL     1      -2.020  -2.110  -5.856  0.00  0.00    +0.004 A 
ATOM     37  C   UNL     1      -1.834  -3.369  -6.397  0.00  0.00    +0.000 A 
ATOM     38  C   UNL     1      -2.746  -4.374  -6.137  0.00  0.00    +0.000 A 
ATOM     39  C   UNL     1      -3.842  -4.123  -5.333  0.00  0.00    +0.000 A 
ATOM     40  C   UNL     1      -4.026  -2.866  -4.788  0.00  0.00    +0.004 A 
ENDBRANCH  34  35
ENDBRANCH  33  34
ENDBRANCH  12  33
TORSDOF 7
