REMARK  Name = ZINC39693348
REMARK  9 active torsions:
REMARK  status: ('A' for Active; 'I' for Inactive)
REMARK    1  A    between atoms: C_1  and  C_2
REMARK    2  A    between atoms: C_4  and  C_8
REMARK    3  A    between atoms: N_6  and  C_7
REMARK    4  A    between atoms: C_12  and  C_21
REMARK    5  A    between atoms: N_23  and  C_24
REMARK    6  A    between atoms: C_24  and  C_25
REMARK    7  A    between atoms: C_25  and  N_26
REMARK    8  A    between atoms: C_27  and  C_29
REMARK    9  A    between atoms: C_29  and  C_30
REMARK                            x       y       z     vdW  Elec       q    Type
REMARK                         _______ _______ _______ _____ _____    ______ ____
ROOT
ATOM      1  C   UNL     1       0.078  -3.478  -1.513  0.00  0.00    +0.267 C 
ATOM      2  O   UNL     1       0.017  -3.448  -2.727  0.00  0.00    -0.268 OA
ATOM      3  N   UNL     1       0.063  -4.661  -0.867  0.00  0.00    -0.295 N 
ATOM      4  C   UNL     1       0.122  -4.898   0.595  0.00  0.00    +0.121 C 
ATOM      5  C   UNL     1      -0.860  -6.066   0.841  0.00  0.00    +0.100 C 
ATOM      6  C   UNL     1      -0.946  -6.797  -0.509  0.00  0.00    -0.004 C 
ATOM      7  C   UNL     1      -0.023  -6.018  -1.458  0.00  0.00    +0.115 C 
ATOM      8  C   UNL     1      -2.378  -6.770  -1.035  0.00  0.00    -0.010 C 
ATOM      9  C   UNL     1      -2.448  -7.553  -2.350  0.00  0.00    -0.082 C 
ATOM     10  N   UNL     1      -2.016  -8.937  -2.121  0.00  0.00    +0.379 N 
ATOM     11  C   UNL     1      -0.609  -8.960  -1.704  0.00  0.00    -0.082 C 
ATOM     12  C   UNL     1      -0.460  -8.236  -0.362  0.00  0.00    -0.010 C 
ATOM     13  H   UNL     1      -2.586  -9.351  -1.399  0.00  0.00    -0.086 HD
ATOM     14  H   UNL     1      -2.121  -9.466  -2.974  0.00  0.00    -0.086 HD
ENDROOT
BRANCH   1  18
ATOM     15  C   UNL     1       0.345   1.421  -0.243  0.00  0.00    +0.065 C 
ATOM     16  C   UNL     1       0.285  -0.084  -0.209  0.00  0.00    +0.037 A 
ATOM     17  C   UNL     1       0.196  -0.908  -1.279  0.00  0.00    +0.057 A 
ATOM     18  C   UNL     1       0.170  -2.219  -0.746  0.00  0.00    +0.147 A 
ATOM     19  N   UNL     1       0.241  -2.102   0.565  0.00  0.00    -0.167 NA
ATOM     20  N   UNL     1       0.314  -0.863   0.894  0.00  0.00    -0.271 N 
ATOM     21  C   UNL     1       0.411  -0.365   2.268  0.00  0.00    +0.172 C 
ENDBRANCH   1  18
BRANCH   5  22
ATOM     22  C   UNL     1      -0.325  -6.986   1.906  0.00  0.00    +0.218 C 
ATOM     23  O   UNL     1       0.873  -7.123   2.045  0.00  0.00    -0.275 OA
ATOM     24  N   UNL     1      -1.176  -7.659   2.706  0.00  0.00    -0.314 N 
ATOM     25  H   UNL     1      -2.134  -7.550   2.596  0.00  0.00    +0.149 HD
BRANCH  24  26
ATOM     26  C   UNL     1      -0.655  -8.554   3.742  0.00  0.00    +0.123 C 
BRANCH  26  27
ATOM     27  C   UNL     1      -1.823  -9.188   4.502  0.00  0.00    +0.123 C 
BRANCH  27  28
ATOM     28  N   UNL     1      -1.302 -10.083   5.538  0.00  0.00    -0.314 N 
ATOM     29  C   UNL     1      -2.153 -10.755   6.338  0.00  0.00    +0.217 C 
ATOM     30  O   UNL     1      -3.350 -10.619   6.200  0.00  0.00    -0.275 OA
ATOM     31  H   UNL     1      -0.344 -10.192   5.649  0.00  0.00    +0.149 HD
BRANCH  29  32
ATOM     32  C   UNL     1      -1.618 -11.676   7.404  0.00  0.00    +0.131 C 
BRANCH  32  33
ATOM     33  C   UNL     1      -2.767 -12.300   8.152  0.00  0.00    -0.031 A 
ATOM     34  C   UNL     1      -3.213 -11.742   9.311  0.00  0.00    +0.005 A 
ATOM     35  C   UNL     1      -4.274 -12.305  10.017  0.00  0.00    +0.001 A 
ATOM     36  C   UNL     1      -4.896 -13.430   9.569  0.00  0.00    +0.008 A 
ATOM     37  C   UNL     1      -4.463 -14.035   8.377  0.00  0.00    -0.018 A 
ATOM     38  C   UNL     1      -3.388 -13.459   7.655  0.00  0.00    -0.014 A 
ATOM     39  C   UNL     1      -2.959 -14.061   6.460  0.00  0.00    +0.009 A 
ATOM     40  C   UNL     1      -3.584 -15.182   6.009  0.00  0.00    +0.001 A 
ATOM     41  C   UNL     1      -4.646 -15.745   6.715  0.00  0.00    +0.001 A 
ATOM     42  C   UNL     1      -5.080 -15.197   7.883  0.00  0.00    +0.008 A 
ENDBRANCH  32  33
ENDBRANCH  29  32
ENDBRANCH  27  28
ENDBRANCH  26  27
ENDBRANCH  24  26
ENDBRANCH   5  22
TORSDOF 7
