REMARK  Name = ZINC59310005
REMARK  6 active torsions:
REMARK  status: ('A' for Active; 'I' for Inactive)
REMARK    1  A    between atoms: C_1  and  C_2
REMARK    2  A    between atoms: C_2  and  C_28
REMARK    3  A    between atoms: N_5  and  C_9
REMARK    4  A    between atoms: C_9  and  C_10
REMARK    5  A    between atoms: C_10  and  N_12
REMARK    6  A    between atoms: N_21  and  C_22
REMARK                            x       y       z     vdW  Elec       q    Type
REMARK                         _______ _______ _______ _____ _____    ______ ____
ROOT
ATOM      1  C   UNL     1      -2.593  -3.386   1.250  0.00  0.00    +0.257 C 
ATOM      2  O   UNL     1      -1.717  -3.751   0.489  0.00  0.00    -0.272 OA
ENDROOT
BRANCH   1   3
ATOM      3  N   UNL     1      -3.560  -4.227   1.603  0.00  0.00    -0.145 NA
ATOM      4  C   UNL     1      -3.629  -5.433   1.045  0.00  0.00    +0.201 A 
ATOM      5  N   UNL     1      -2.710  -5.961   0.194  0.00  0.00    -0.326 N 
ATOM      6  C   UNL     1      -3.135  -7.234  -0.170  0.00  0.00    +0.066 A 
ATOM      7  C   UNL     1      -2.599  -8.210  -1.000  0.00  0.00    +0.028 A 
ATOM      8  C   UNL     1      -3.265  -9.407  -1.172  0.00  0.00    +0.002 A 
ATOM      9  C   UNL     1      -4.464  -9.639  -0.520  0.00  0.00    +0.002 A 
ATOM     10  C   UNL     1      -5.006  -8.675   0.307  0.00  0.00    +0.028 A 
ATOM     11  C   UNL     1      -4.344  -7.469   0.487  0.00  0.00    +0.068 A 
ATOM     12  N   UNL     1      -4.627  -6.334   1.241  0.00  0.00    -0.309 N 
ATOM     13  H   UNL     1      -1.899  -5.524  -0.107  0.00  0.00    +0.169 HD
BRANCH  12  14
ATOM     14  C   UNL     1      -5.801  -6.143   2.096  0.00  0.00    +0.091 C 
ATOM     15  C   UNL     1      -6.600  -4.935   1.602  0.00  0.00    +0.025 C 
ATOM     16  C   UNL     1      -7.826  -4.735   2.495  0.00  0.00    +0.002 C 
ATOM     17  C   UNL     1      -7.373  -4.493   3.937  0.00  0.00    +0.000 C 
ATOM     18  C   UNL     1      -6.574  -5.700   4.430  0.00  0.00    +0.002 C 
ATOM     19  C   UNL     1      -5.348  -5.900   3.537  0.00  0.00    +0.025 C 
ENDBRANCH  12  14
ENDBRANCH   1   3
BRANCH   1  20
ATOM     20  C   UNL     1      -2.582  -1.980   1.792  0.00  0.00    +0.215 C 
BRANCH  20  25
ATOM     21  C   UNL     1      -0.068   1.544  -0.033  0.00  0.00    +0.047 C 
ATOM     22  C   UNL     1      -0.038   0.014  -0.038  0.00  0.00    +0.135 C 
ATOM     23  C   UNL     1      -1.438  -0.548   0.112  0.00  0.00    +0.251 C 
ATOM     24  O   UNL     1      -2.374  -0.390  -0.641  0.00  0.00    -0.272 OA
ATOM     25  N   UNL     1      -1.424  -1.259   1.257  0.00  0.00    -0.215 N 
ATOM     26  C   UNL     1      -0.222  -1.226   1.844  0.00  0.00    +0.310 C 
ATOM     27  O   UNL     1       0.035  -1.793   2.888  0.00  0.00    -0.252 OA
ATOM     28  N   UNL     1       0.669  -0.494   1.151  0.00  0.00    -0.281 N 
ATOM     29  H   UNL     1       1.595  -0.333   1.387  0.00  0.00    +0.152 HD
BRANCH  22  30
ATOM     30  C   UNL     1       0.610  -0.498  -1.299  0.00  0.00    -0.015 A 
ATOM     31  C   UNL     1      -0.163  -0.761  -2.415  0.00  0.00    +0.009 A 
ATOM     32  C   UNL     1       0.430  -1.230  -3.571  0.00  0.00    +0.039 A 
ATOM     33  C   UNL     1       1.799  -1.437  -3.612  0.00  0.00    +0.123 A 
ATOM     34  C   UNL     1       2.572  -1.174  -2.494  0.00  0.00    +0.039 A 
ATOM     35  C   UNL     1       1.977  -0.700  -1.340  0.00  0.00    +0.009 A 
ATOM     36  F   UNL     1       2.380  -1.896  -4.743  0.00  0.00    -0.205 F 
ENDBRANCH  22  30
ENDBRANCH  20  25
ENDBRANCH   1  20
TORSDOF 5
