REMARK  Name = ZINC36346114
REMARK  20 active torsions:
REMARK  status: ('A' for Active; 'I' for Inactive)
REMARK    1  A    between atoms: C_1  and  C_2
REMARK    2  A    between atoms: C_2  and  C_3
REMARK    3  A    between atoms: C_3  and  C_4
REMARK    4  A    between atoms: C_4  and  O_5
REMARK    5  A    between atoms: O_5  and  C_6
REMARK    6  A    between atoms: C_6  and  C_7
REMARK    7  A    between atoms: C_7  and  C_9
REMARK    8  A    between atoms: C_7  and  O_36
REMARK    9  A    between atoms: C_9  and  N_10
REMARK   10  A    between atoms: N_10  and  C_11
REMARK   11  A    between atoms: N_10  and  C_32
REMARK   12  A    between atoms: C_11  and  C_12
REMARK   13  A    between atoms: C_13  and  C_31
REMARK   14  A    between atoms: N_15  and  C_25
REMARK   15  A    between atoms: C_16  and  O_17
REMARK   16  A    between atoms: O_17  and  C_18
REMARK   17  A    between atoms: C_22  and  C_24
REMARK   18  A    between atoms: C_32  and  C_33
REMARK   19  A    between atoms: C_33  and  C_34
REMARK   20  A    between atoms: C_33  and  C_35
REMARK                            x       y       z     vdW  Elec       q    Type
REMARK                         _______ _______ _______ _____ _____    ______ ____
ROOT
ATOM      1  C   UNL     1       0.996  -8.054  -6.071  0.00  0.00    +0.021 A 
ATOM      2  C   UNL     1      -0.154  -8.043  -5.276  0.00  0.00    +0.065 A 
ATOM      3  N   UNL     1      -1.199  -7.969  -6.061  0.00  0.00    -0.168 NA
ATOM      4  N   UNL     1      -0.753  -7.930  -7.388  0.00  0.00    -0.200 N 
ATOM      5  C   UNL     1       0.607  -7.979  -7.371  0.00  0.00    +0.225 A 
ATOM      6  C   UNL     1      -0.186  -8.107  -3.771  0.00  0.00    +0.068 C 
ENDROOT
BRANCH   4   7
ATOM      7  C   UNL     1      -1.562  -7.849  -8.530  0.00  0.00    +0.069 A 
ATOM      8  C   UNL     1      -1.175  -7.058  -9.603  0.00  0.00    +0.028 A 
ATOM      9  C   UNL     1      -1.974  -6.981 -10.726  0.00  0.00    +0.002 A 
ATOM     10  C   UNL     1      -3.160  -7.691 -10.783  0.00  0.00    +0.000 A 
ATOM     11  C   UNL     1      -3.548  -8.479  -9.716  0.00  0.00    +0.002 A 
ATOM     12  C   UNL     1      -2.750  -8.566  -8.592  0.00  0.00    +0.028 A 
ENDBRANCH   4   7
BRANCH   1  13
ATOM     13  C   UNL     1       2.417  -8.130  -5.573  0.00  0.00    -0.036 C 
BRANCH  13  14
ATOM     14  N   UNL     1       2.983  -6.777  -5.501  0.00  0.00    +0.384 N 
ATOM     15  H   UNL     1       2.880  -6.321  -6.395  0.00  0.00    -0.081 HD
BRANCH  14  16
ATOM     16  C   UNL     1       2.275  -6.004  -4.472  0.00  0.00    -0.044 C 
BRANCH  16  17
ATOM     17  C   UNL     1       2.735  -4.546  -4.522  0.00  0.00    +0.124 C 
BRANCH  17  18
ATOM     18  O   UNL     1       4.099  -4.462  -4.105  0.00  0.00    -0.391 OA
ATOM     19  H   UNL     1       4.255  -4.780  -3.205  0.00  0.00    +0.210 HD
ENDBRANCH  17  18
BRANCH  17  20
ATOM     20  C   UNL     1       1.863  -3.704  -3.588  0.00  0.00    +0.189 C 
BRANCH  20  21
ATOM     21  O   UNL     1       2.215  -2.325  -3.722  0.00  0.00    -0.377 OA
BRANCH  21  22
ATOM     22  C   UNL     1       1.456  -1.448  -2.888  0.00  0.00    +0.160 C 
BRANCH  22  23
ATOM     23  C   UNL     1       1.916  -0.006  -3.113  0.00  0.00    +0.028 C 
BRANCH  23  25
ATOM     24  C   UNL     1       1.563   2.376  -2.445  0.00  0.00    +0.004 C 
ATOM     25  C   UNL     1       1.103   0.934  -2.220  0.00  0.00    -0.001 C 
ENDBRANCH  23  25
ENDBRANCH  22  23
ENDBRANCH  21  22
ENDBRANCH  20  21
ENDBRANCH  17  20
ENDBRANCH  16  17
ENDBRANCH  14  16
BRANCH  14  26
ATOM     26  C   UNL     1       4.409  -6.861  -5.155  0.00  0.00    -0.075 C 
BRANCH  26  27
ATOM     27  C   UNL     1       5.156  -7.618  -6.254  0.00  0.00    -0.034 C 
ATOM     28  C   UNL     1       5.088  -6.822  -7.559  0.00  0.00    +0.005 C 
ATOM     29  C   UNL     1       6.619  -7.800  -5.844  0.00  0.00    +0.005 C 
ENDBRANCH  26  27
ENDBRANCH  14  26
ENDBRANCH  13  14
ENDBRANCH   1  13
BRANCH   5  30
ATOM     30  O   UNL     1       1.424  -7.958  -8.454  0.00  0.00    -0.438 OA
BRANCH  30  31
ATOM     31  C   UNL     1       1.698  -9.139  -9.069  0.00  0.00    +0.131 A 
ATOM     32  C   UNL     1       1.062 -10.301  -8.657  0.00  0.00    +0.046 A 
ATOM     33  C   UNL     1       1.343 -11.500  -9.283  0.00  0.00    +0.004 A 
ATOM     34  C   UNL     1       2.256 -11.542 -10.320  0.00  0.00    +0.003 A 
ATOM     35  C   UNL     1       2.891 -10.386 -10.733  0.00  0.00    -0.047 A 
ATOM     36  C   UNL     1       2.610  -9.183 -10.114  0.00  0.00    +0.049 A 
ATOM     37  C   UNL     1       3.886 -10.435 -11.864  0.00  0.00    +0.044 C 
ENDBRANCH  30  31
ENDBRANCH   5  30
TORSDOF 15
