REMARK  Name = ZINC48089855
REMARK  8 active torsions:
REMARK  status: ('A' for Active; 'I' for Inactive)
REMARK    1  A    between atoms: C_1  and  C_2
REMARK    2  A    between atoms: C_2  and  O_3
REMARK    3  A    between atoms: O_3  and  C_4
REMARK    4  A    between atoms: N_6  and  N_7
REMARK    5  A    between atoms: C_8  and  C_10
REMARK    6  A    between atoms: C_10  and  N_11
REMARK    7  A    between atoms: C_14  and  C_18
REMARK    8  A    between atoms: C_14  and  C_19
REMARK                            x       y       z     vdW  Elec       q    Type
REMARK                         _______ _______ _______ _____ _____    ______ ____
ROOT
ATOM      1  N   UNL     1       3.739  -1.785  -6.582  0.00  0.00    -0.215 N 
ATOM      2  C   UNL     1       5.026  -2.185  -6.586  0.00  0.00    +0.251 C 
ATOM      3  O   UNL     1       5.862  -1.971  -5.734  0.00  0.00    -0.272 OA
ATOM      4  C   UNL     1       5.211  -2.957  -7.877  0.00  0.00    +0.135 C 
ATOM      5  N   UNL     1       3.882  -2.897  -8.510  0.00  0.00    -0.281 N 
ATOM      6  C   UNL     1       3.091  -2.198  -7.677  0.00  0.00    +0.310 C 
ATOM      7  O   UNL     1       1.919  -1.964  -7.896  0.00  0.00    -0.252 OA
ATOM      8  C   UNL     1       6.260  -2.281  -8.763  0.00  0.00    +0.047 C 
ATOM      9  H   UNL     1       3.627  -3.289  -9.360  0.00  0.00    +0.152 HD
ENDROOT
BRANCH   4  10
ATOM     10  C   UNL     1       5.598  -4.385  -7.590  0.00  0.00    -0.015 A 
ATOM     11  C   UNL     1       6.320  -4.681  -6.435  0.00  0.00    +0.007 A 
ATOM     12  C   UNL     1       6.686  -5.960  -6.146  0.00  0.00    +0.009 A 
ATOM     13  C   UNL     1       6.332  -7.000  -7.023  0.00  0.00    -0.018 A 
ATOM     14  C   UNL     1       6.691  -8.332  -6.759  0.00  0.00    +0.008 A 
ATOM     15  C   UNL     1       6.330  -9.313  -7.631  0.00  0.00    +0.001 A 
ATOM     16  C   UNL     1       5.608  -9.016  -8.786  0.00  0.00    +0.001 A 
ATOM     17  C   UNL     1       5.243  -7.737  -9.075  0.00  0.00    +0.008 A 
ATOM     18  C   UNL     1       5.598  -6.698  -8.198  0.00  0.00    -0.018 A 
ATOM     19  C   UNL     1       5.234  -5.366  -8.460  0.00  0.00    +0.014 A 
ENDBRANCH   4  10
BRANCH   1  20
ATOM     20  C   UNL     1       3.124  -1.002  -5.507  0.00  0.00    +0.215 C 
BRANCH  20  22
ATOM     21  N   UNL     1       1.930  -1.432  -3.385  0.00  0.00    -0.231 N 
ATOM     22  C   UNL     1       2.549  -1.933  -4.472  0.00  0.00    +0.247 C 
ATOM     23  O   UNL     1       2.643  -3.134  -4.617  0.00  0.00    -0.273 OA
ATOM     24  H   UNL     1       1.854  -0.472  -3.269  0.00  0.00    +0.173 HD
BRANCH  21  27
ATOM     25  C   UNL     1       0.776  -1.798  -1.335  0.00  0.00    +0.417 C 
ATOM     26  O   UNL     1       0.312  -2.549  -0.500  0.00  0.00    -0.225 OA
ATOM     27  N   UNL     1       1.395  -2.298  -2.422  0.00  0.00    -0.200 N 
ATOM     28  H   UNL     1       1.471  -3.258  -2.538  0.00  0.00    +0.176 HD
BRANCH  25  29
ATOM     29  O   UNL     1       0.671  -0.465  -1.174  0.00  0.00    -0.450 OA
BRANCH  29  31
ATOM     30  C   UNL     1      -0.019   1.526   0.010  0.00  0.00    +0.048 C 
ATOM     31  C   UNL     1       0.002  -0.004   0.002  0.00  0.00    +0.230 C 
ENDBRANCH  29  31
ENDBRANCH  25  29
ENDBRANCH  21  27
ENDBRANCH  20  22
ENDBRANCH   1  20
TORSDOF 6
