REMARK  Name = ZINC59293998
REMARK  10 active torsions:
REMARK  status: ('A' for Active; 'I' for Inactive)
REMARK    1  A    between atoms: C_1  and  O_2
REMARK    2  A    between atoms: O_2  and  C_3
REMARK    3  A    between atoms: C_6  and  N_9
REMARK    4  A    between atoms: C_10  and  C_12
REMARK    5  A    between atoms: C_18  and  C_19
REMARK    6  A    between atoms: C_25  and  N_38
REMARK    7  A    between atoms: C_26  and  C_34
REMARK    8  A    between atoms: C_27  and  C_29
REMARK    9  A    between atoms: C_34  and  O_36
REMARK   10  A    between atoms: O_36  and  C_37
REMARK                            x       y       z     vdW  Elec       q    Type
REMARK                         _______ _______ _______ _____ _____    ______ ____
ROOT
ATOM      1  C   UNL     1      -6.115  -4.874  -0.210  0.00  0.00    +0.060 C 
ATOM      2  C   UNL     1      -6.473  -6.165  -0.439  0.00  0.00    +0.099 A 
ATOM      3  N   UNL     1      -7.778  -6.613  -0.498  0.00  0.00    -0.257 N 
ATOM      4  C   UNL     1      -7.978  -7.925  -0.734  0.00  0.00    +0.271 A 
ATOM      5  O   UNL     1      -9.105  -8.380  -0.797  0.00  0.00    -0.266 OA
ATOM      6  C   UNL     1      -6.811  -8.789  -0.912  0.00  0.00    +0.082 A 
ATOM      7  C   UNL     1      -6.756 -10.129  -1.158  0.00  0.00    +0.066 C 
ATOM      8  S   UNL     1      -5.479  -7.616  -0.721  0.00  0.00    -0.065 S 
ATOM      9  C   UNL     1      -8.820  -5.700  -0.312  0.00  0.00    +0.115 C 
ATOM     10  C   UNL     1      -8.630  -4.380  -0.075  0.00  0.00    +0.090 C 
ATOM     11  C   UNL     1      -7.213  -3.850   0.003  0.00  0.00    +0.133 C 
ENDROOT
BRANCH   7  12
ATOM     12  C   UNL     1      -7.944 -10.848  -1.427  0.00  0.00    +0.129 A 
ATOM     13  C   UNL     1      -8.025 -12.178  -1.788  0.00  0.00    +0.049 A 
ATOM     14  C   UNL     1      -9.390 -12.464  -1.952  0.00  0.00    +0.042 A 
ATOM     15  C   UNL     1     -10.071 -11.326  -1.691  0.00  0.00    +0.195 A 
ATOM     16  O   UNL     1      -9.200 -10.358  -1.370  0.00  0.00    -0.463 OA
ENDBRANCH   7  12
BRANCH  11  17
ATOM     17  C   UNL     1      -7.059  -2.771  -1.039  0.00  0.00    +0.117 A 
ATOM     18  C   UNL     1      -6.844  -1.466  -0.794  0.00  0.00    +0.045 A 
ATOM     19  C   UNL     1      -6.765  -0.822  -2.050  0.00  0.00    +0.041 A 
ATOM     20  C   UNL     1      -6.937  -1.771  -2.987  0.00  0.00    +0.195 A 
ATOM     21  O   UNL     1      -7.109  -2.951  -2.369  0.00  0.00    -0.467 OA
ENDBRANCH  11  17
BRANCH   1  23
ATOM     22  N   UNL     1      -4.427  -3.215   0.070  0.00  0.00    -0.282 N 
ATOM     23  C   UNL     1      -4.763  -4.499  -0.165  0.00  0.00    +0.248 C 
ATOM     24  O   UNL     1      -3.893  -5.336  -0.338  0.00  0.00    -0.270 OA
ATOM     25  H   UNL     1      -5.114  -2.565   0.284  0.00  0.00    +0.155 HD
BRANCH  22  29
ATOM     26  C   UNL     1      -0.432  -2.038  -0.126  0.00  0.00    +0.120 A 
ATOM     27  C   UNL     1      -1.290  -1.433   0.781  0.00  0.00    +0.047 A 
ATOM     28  C   UNL     1      -2.613  -1.822   0.846  0.00  0.00    +0.027 A 
ATOM     29  C   UNL     1      -3.085  -2.820   0.004  0.00  0.00    +0.034 A 
ATOM     30  C   UNL     1      -2.226  -3.425  -0.904  0.00  0.00    +0.027 A 
ATOM     31  C   UNL     1      -0.904  -3.032  -0.971  0.00  0.00    +0.047 A 
BRANCH  26  33
ATOM     32  C   UNL     1       1.289  -0.626   0.710  0.00  0.00    +0.277 C 
ATOM     33  O   UNL     1       0.871  -1.655  -0.190  0.00  0.00    -0.495 OA
ENDBRANCH  26  33
ENDBRANCH  22  29
ENDBRANCH   1  23
BRANCH   9  34
ATOM     34  N   UNL     1     -10.107  -6.167  -0.375  0.00  0.00    -0.344 N 
ATOM     35  H   UNL     1     -10.331  -7.024   0.021  0.00  0.00    +0.144 HD
ATOM     36  H   UNL     1     -10.793  -5.641  -0.815  0.00  0.00    +0.144 HD
ENDBRANCH   9  34
BRANCH  10  37
ATOM     37  C   UNL     1      -9.725  -3.521   0.101  0.00  0.00    +0.339 C 
ATOM     38  O   UNL     1     -10.854  -3.976   0.147  0.00  0.00    -0.245 OA
BRANCH  37  39
ATOM     39  O   UNL     1      -9.527  -2.190   0.219  0.00  0.00    -0.465 OA
ATOM     40  C   UNL     1     -10.688  -1.375   0.396  0.00  0.00    +0.280 C 
ENDBRANCH  37  39
ENDBRANCH  10  37
TORSDOF 8
