REMARK  Name = ZINC39656067
REMARK  6 active torsions:
REMARK  status: ('A' for Active; 'I' for Inactive)
REMARK    1  A    between atoms: C_1  and  C_2
REMARK    2  A    between atoms: C_8  and  C_11
REMARK    3  A    between atoms: C_11  and  C_12
REMARK    4  A    between atoms: C_12  and  N_13
REMARK    5  A    between atoms: C_14  and  C_16
REMARK    6  A    between atoms: C_27  and  C_29
REMARK                            x       y       z     vdW  Elec       q    Type
REMARK                         _______ _______ _______ _____ _____    ______ ____
ROOT
ATOM      1  C   UNL     1       5.153  -0.226  -7.227  0.00  0.00    +0.100 C 
ATOM      2  C   UNL     1       5.038   0.653  -8.493  0.00  0.00    +0.121 C 
ATOM      3  N   UNL     1       5.786  -0.091  -9.534  0.00  0.00    -0.296 N 
ATOM      4  C   UNL     1       5.442  -1.512  -9.291  0.00  0.00    +0.115 C 
ATOM      5  C   UNL     1       5.417  -1.646  -7.755  0.00  0.00    -0.004 C 
ATOM      6  C   UNL     1       4.295  -2.587  -7.326  0.00  0.00    -0.010 C 
ATOM      7  C   UNL     1       4.609  -4.004  -7.813  0.00  0.00    -0.082 C 
ATOM      8  N   UNL     1       5.889  -4.446  -7.246  0.00  0.00    +0.379 N 
ATOM      9  C   UNL     1       6.977  -3.592  -7.738  0.00  0.00    -0.082 C 
ATOM     10  C   UNL     1       6.763  -2.157  -7.248  0.00  0.00    -0.010 C 
ATOM     11  C   UNL     1       6.596   0.412 -10.487  0.00  0.00    +0.249 C 
ATOM     12  O   UNL     1       7.068  -0.322 -11.333  0.00  0.00    -0.270 OA
ATOM     13  H   UNL     1       5.847  -4.389  -6.239  0.00  0.00    -0.086 HD
ATOM     14  H   UNL     1       6.064  -5.402  -7.518  0.00  0.00    -0.086 HD
ENDROOT
BRANCH  11  15
ATOM     15  C   UNL     1       6.910   1.855 -10.503  0.00  0.00    +0.073 A 
ATOM     16  C   UNL     1       5.946   2.788 -10.115  0.00  0.00    +0.036 A 
ATOM     17  C   UNL     1       6.246   4.134 -10.132  0.00  0.00    +0.042 A 
ATOM     18  C   UNL     1       7.501   4.563 -10.533  0.00  0.00    +0.023 A 
ATOM     19  C   UNL     1       8.461   3.647 -10.918  0.00  0.00    +0.040 A 
ATOM     20  C   UNL     1       8.177   2.294 -10.901  0.00  0.00    +0.136 A 
ATOM     21  F   UNL     1       9.118   1.399 -11.272  0.00  0.00    -0.205 F 
ATOM     22 CL   UNL     1       5.047   5.294  -9.651  0.00  0.00    -0.084 Cl
ENDBRANCH  11  15
BRANCH   1  24
ATOM     23  N   UNL     1       3.886  -0.358  -5.107  0.00  0.00    -0.315 N 
ATOM     24  C   UNL     1       3.866  -0.189  -6.444  0.00  0.00    +0.218 C 
ATOM     25  O   UNL     1       2.813  -0.006  -7.016  0.00  0.00    -0.275 OA
ATOM     26  H   UNL     1       4.729  -0.504  -4.649  0.00  0.00    +0.149 HD
BRANCH  23  27
ATOM     27  C   UNL     1       2.635  -0.322  -4.345  0.00  0.00    +0.109 C 
BRANCH  27  28
ATOM     28  C   UNL     1       2.936  -0.539  -2.861  0.00  0.00    +0.056 C 
BRANCH  28  36
ATOM     29  C   UNL     1      -0.318  -5.220  -2.289  0.00  0.00    +0.044 C 
ATOM     30  C   UNL     1      -0.309  -3.773  -1.867  0.00  0.00    -0.050 A 
ATOM     31  C   UNL     1      -1.350  -3.275  -1.095  0.00  0.00    +0.005 A 
ATOM     32  C   UNL     1      -1.363  -1.956  -0.699  0.00  0.00    +0.026 A 
ATOM     33  C   UNL     1      -0.322  -1.112  -1.074  0.00  0.00    +0.047 A 
ATOM     34  N   UNL     1      -0.051   0.218  -0.845  0.00  0.00    -0.360 N 
ATOM     35  C   UNL     1       1.127   0.564  -1.450  0.00  0.00    +0.087 A 
ATOM     36  C   UNL     1       1.649  -0.502  -2.077  0.00  0.00    -0.021 A 
ATOM     37  C   UNL     1       0.731  -1.622  -1.856  0.00  0.00    +0.003 A 
ATOM     38  C   UNL     1       0.725  -2.963  -2.242  0.00  0.00    +0.013 A 
ATOM     39  H   UNL     1      -0.612   0.821  -0.332  0.00  0.00    +0.165 HD
ENDBRANCH  28  36
ENDBRANCH  27  28
ENDBRANCH  23  27
ENDBRANCH   1  24
TORSDOF 5
