REMARK  Name = ZINC01158096
REMARK  5 active torsions:
REMARK  status: ('A' for Active; 'I' for Inactive)
REMARK    1  A    between atoms: C_1  and  C_2
REMARK    2  A    between atoms: C_3  and  C_20
REMARK    3  A    between atoms: C_4  and  C_10
REMARK    4  A    between atoms: C_14  and  N_16
REMARK    5  A    between atoms: N_22  and  C_23
REMARK                            x       y       z     vdW  Elec       q    Type
REMARK                         _______ _______ _______ _____ _____    ______ ____
ROOT
ATOM      1  C   UNL     1       1.885   0.047   0.614  0.00  0.00    +0.061 C 
ATOM      2  C   UNL     1       0.626  -0.703   0.261  0.00  0.00    +0.017 C 
ATOM      3  C   UNL     1      -0.376  -0.058  -0.372  0.00  0.00    +0.056 C 
ATOM      4  C   UNL     1      -1.621  -0.852  -0.714  0.00  0.00    +0.139 C 
ATOM      5  N   UNL     1      -1.636  -2.271  -0.321  0.00  0.00    -0.315 N 
ATOM      6  C   UNL     1      -0.557  -2.772   0.312  0.00  0.00    +0.135 C 
ATOM      7  S   UNL     1      -0.562  -4.420   0.776  0.00  0.00    -0.019 S 
ATOM      8  N   UNL     1       0.517  -2.024   0.590  0.00  0.00    -0.300 N 
ATOM      9  H   UNL     1      -2.405  -2.831  -0.513  0.00  0.00    +0.149 HD
ATOM     10  H   UNL     1       1.262  -2.445   1.047  0.00  0.00    +0.154 HD
ENDROOT
BRANCH   4  11
ATOM     11  C   UNL     1      -1.821  -0.781  -2.206  0.00  0.00    -0.020 A 
ATOM     12  C   UNL     1      -1.076  -1.592  -3.042  0.00  0.00    +0.007 A 
ATOM     13  C   UNL     1      -1.259  -1.528  -4.411  0.00  0.00    +0.022 A 
ATOM     14  C   UNL     1      -2.187  -0.652  -4.944  0.00  0.00    +0.071 A 
ATOM     15  C   UNL     1      -2.932   0.160  -4.107  0.00  0.00    +0.145 A 
ATOM     16  C   UNL     1      -2.752   0.091  -2.738  0.00  0.00    +0.040 A 
ATOM     17 CL   UNL     1      -2.417  -0.570  -6.663  0.00  0.00    -0.081 Cl
BRANCH  15  18
ATOM     18  N   UNL     1      -3.926   1.097  -4.676  0.00  0.00    +0.058 N 
ATOM     19  O   UNL     1      -4.581   1.812  -3.939  0.00  0.00    -0.126 OA
ATOM     20  O   UNL     1      -4.088   1.154  -5.882  0.00  0.00    -0.126 OA
ENDBRANCH  15  18
ENDBRANCH   4  11
BRANCH   3  21
ATOM     21  C   UNL     1      -0.266   1.313  -0.709  0.00  0.00    +0.248 C 
ATOM     22  O   UNL     1      -0.839   2.153  -0.038  0.00  0.00    -0.270 OA
ATOM     23  N   UNL     1       0.476   1.689  -1.769  0.00  0.00    -0.282 N 
ATOM     24  H   UNL     1       0.843   1.019  -2.366  0.00  0.00    +0.155 HD
BRANCH  23  25
ATOM     25  C   UNL     1       0.719   3.047  -2.007  0.00  0.00    +0.037 A 
ATOM     26  C   UNL     1       0.838   3.929  -0.941  0.00  0.00    +0.026 A 
ATOM     27  C   UNL     1       1.083   5.268  -1.177  0.00  0.00    +0.043 A 
ATOM     28  C   UNL     1       1.199   5.734  -2.475  0.00  0.00    +0.159 A 
ATOM     29  C   UNL     1       1.075   4.856  -3.542  0.00  0.00    +0.160 A 
ATOM     30  C   UNL     1       0.836   3.514  -3.309  0.00  0.00    +0.064 A 
ATOM     31  F   UNL     1       1.189   5.312  -4.808  0.00  0.00    -0.202 F 
ATOM     32  F   UNL     1       1.434   7.044  -2.703  0.00  0.00    -0.202 F 
ENDBRANCH  23  25
ENDBRANCH   3  21
TORSDOF 4
