REMARK  Name = ZINC12250805
REMARK  11 active torsions:
REMARK  status: ('A' for Active; 'I' for Inactive)
REMARK    1  A    between atoms: C_1  and  C_2
REMARK    2  A    between atoms: C_3  and  C_29
REMARK    3  A    between atoms: C_4  and  C_24
REMARK    4  A    between atoms: C_6  and  C_22
REMARK    5  A    between atoms: C_7  and  S_9
REMARK    6  A    between atoms: S_9  and  C_10
REMARK    7  A    between atoms: C_10  and  C_11
REMARK    8  A    between atoms: N_13  and  C_14
REMARK    9  A    between atoms: C_17  and  O_20
REMARK   10  A    between atoms: O_20  and  C_21
REMARK   11  A    between atoms: N_31  and  C_32
REMARK                            x       y       z     vdW  Elec       q    Type
REMARK                         _______ _______ _______ _____ _____    ______ ____
ROOT
ATOM      1  C   UNL     1      -0.287   1.738   0.289  0.00  0.00    +0.061 C 
ATOM      2  C   UNL     1      -0.939   1.765   1.647  0.00  0.00    +0.015 C 
ATOM      3  C   UNL     1      -0.195   1.539   2.742  0.00  0.00    +0.047 C 
ATOM      4  C   UNL     1      -0.794   1.545   4.119  0.00  0.00    +0.134 C 
ATOM      5  C   UNL     1      -2.145   2.202   4.112  0.00  0.00    +0.072 C 
ATOM      6  C   UNL     1      -2.824   2.407   2.951  0.00  0.00    +0.080 C 
ATOM      7  N   UNL     1      -2.279   2.025   1.747  0.00  0.00    -0.312 N 
ATOM      8  H   UNL     1      -2.925   1.930   0.861  0.00  0.00    +0.152 HD
ENDROOT
BRANCH   4   9
ATOM      9  C   UNL     1      -0.936   0.125   4.604  0.00  0.00    +0.118 A 
ATOM     10  C   UNL     1      -0.357  -0.393   5.702  0.00  0.00    +0.045 A 
ATOM     11  C   UNL     1      -0.758  -1.747   5.777  0.00  0.00    +0.041 A 
ATOM     12  C   UNL     1      -1.558  -1.975   4.720  0.00  0.00    +0.195 A 
ATOM     13  O   UNL     1      -1.667  -0.836   4.016  0.00  0.00    -0.467 OA
ENDBRANCH   4   9
BRANCH   3  14
ATOM     14  C   UNL     1       1.190   1.288   2.594  0.00  0.00    +0.247 C 
ATOM     15  O   UNL     1       1.711   1.376   1.497  0.00  0.00    -0.270 OA
ATOM     16  N   UNL     1       1.933   0.952   3.667  0.00  0.00    -0.282 N 
ATOM     17  H   UNL     1       1.450   0.798   4.644  0.00  0.00    +0.155 HD
BRANCH  16  18
ATOM     18  C   UNL     1       3.317   0.798   3.540  0.00  0.00    +0.034 A 
ATOM     19  C   UNL     1       3.852   0.245   2.384  0.00  0.00    +0.023 A 
ATOM     20  C   UNL     1       5.220   0.101   2.259  0.00  0.00    +0.002 A 
ATOM     21  C   UNL     1       6.055   0.494   3.288  0.00  0.00    +0.000 A 
ATOM     22  C   UNL     1       5.525   1.040   4.443  0.00  0.00    +0.002 A 
ATOM     23  C   UNL     1       4.159   1.193   4.572  0.00  0.00    +0.023 A 
ENDBRANCH  16  18
ENDBRANCH   3  14
BRANCH   5  24
ATOM     24  C   UNL     1      -2.729   2.621   5.350  0.00  0.00    +0.098 C 
ATOM     25  N   UNL     1      -3.193   2.953   6.333  0.00  0.00    -0.191 NA
ENDBRANCH   5  24
BRANCH   6  26
ATOM     26  S   UNL     1      -4.410   3.172   2.989  0.00  0.00    -0.100 S 
BRANCH  26  27
ATOM     27  C   UNL     1      -4.800   3.176   1.221  0.00  0.00    +0.171 C 
BRANCH  27  28
ATOM     28  C   UNL     1      -6.153   3.803   1.006  0.00  0.00    +0.227 C 
ATOM     29  O   UNL     1      -6.792   4.207   1.955  0.00  0.00    -0.275 OA
ATOM     30  N   UNL     1      -6.654   3.914  -0.240  0.00  0.00    -0.285 N 
ATOM     31  H   UNL     1      -6.115   3.472  -1.091  0.00  0.00    +0.155 HD
BRANCH  30  32
ATOM     32  C   UNL     1      -7.862   4.592  -0.452  0.00  0.00    +0.034 A 
ATOM     33  C   UNL     1      -8.715   4.189  -1.471  0.00  0.00    +0.027 A 
ATOM     34  C   UNL     1      -9.908   4.854  -1.675  0.00  0.00    +0.047 A 
ATOM     35  C   UNL     1     -10.249   5.931  -0.870  0.00  0.00    +0.120 A 
ATOM     36  C   UNL     1      -9.395   6.337   0.145  0.00  0.00    +0.047 A 
ATOM     37  C   UNL     1      -8.204   5.670   0.354  0.00  0.00    +0.027 A 
BRANCH  35  38
ATOM     38  O   UNL     1     -11.421   6.589  -1.075  0.00  0.00    -0.495 OA
ATOM     39  C   UNL     1     -12.252   6.117  -2.138  0.00  0.00    +0.277 C 
ENDBRANCH  35  38
ENDBRANCH  30  32
ENDBRANCH  27  28
ENDBRANCH  26  27
ENDBRANCH   6  26
TORSDOF 9
