REMARK  Name = ZINC04352872
REMARK  11 active torsions:
REMARK  status: ('A' for Active; 'I' for Inactive)
REMARK    1  A    between atoms: C_3  and  C_8
REMARK    2  A    between atoms: C_4  and  O_7
REMARK    3  A    between atoms: N_9  and  C_10
REMARK    4  A    between atoms: C_10  and  C_12
REMARK    5  A    between atoms: C_10  and  C_30
REMARK    6  A    between atoms: C_12  and  N_14
REMARK    7  A    between atoms: C_12  and  C_23
REMARK    8  A    between atoms: C_15  and  C_16
REMARK    9  A    between atoms: C_17  and  O_22
REMARK   10  A    between atoms: C_24  and  O_29
REMARK   11  A    between atoms: C_31  and  O_36
REMARK                            x       y       z     vdW  Elec       q    Type
REMARK                         _______ _______ _______ _____ _____    ______ ____
ROOT
ATOM      1  C   UNL     1       5.794   2.066   0.058  0.00  0.00    +0.141 C 
ENDROOT
BRANCH   1   2
ATOM      2  C   UNL     1       6.760   1.681  -1.034  0.00  0.00    +0.018 A 
ATOM      3  C   UNL     1       7.709   2.592  -1.474  0.00  0.00    +0.122 A 
ATOM      4  C   UNL     1       8.596   2.235  -2.479  0.00  0.00    +0.046 A 
ATOM      5  C   UNL     1       8.532   0.974  -3.039  0.00  0.00    +0.004 A 
ATOM      6  C   UNL     1       7.586   0.068  -2.598  0.00  0.00    +0.001 A 
ATOM      7  C   UNL     1       6.704   0.419  -1.592  0.00  0.00    +0.009 A 
BRANCH   3   8
ATOM      8  O   UNL     1       7.769   3.833  -0.922  0.00  0.00    -0.506 OA
ATOM      9  H   UNL     1       8.412   3.913  -0.205  0.00  0.00    +0.292 HD
ENDBRANCH   3   8
ENDBRANCH   1   2
BRANCH   1  11
ATOM     10  C   UNL     1       3.425   1.859  -0.194  0.00  0.00    +0.090 C 
ATOM     11  N   UNL     1       4.571   1.270  -0.069  0.00  0.00    -0.380 N 
ATOM     12  H   UNL     1       4.619   0.301  -0.059  0.00  0.00    +0.160 HD
BRANCH  10  15
ATOM     13  C   UNL     1      -0.202   0.931  -0.441  0.00  0.00    +0.001 A 
ATOM     14  C   UNL     1       0.956   1.679  -0.449  0.00  0.00    +0.013 A 
ATOM     15  C   UNL     1       2.184   1.065  -0.188  0.00  0.00    +0.032 A 
ATOM     16  C   UNL     1       2.227  -0.310   0.081  0.00  0.00    +0.125 A 
ATOM     17  C   UNL     1       1.053  -1.047   0.084  0.00  0.00    +0.046 A 
ATOM     18  C   UNL     1      -0.154  -0.427  -0.176  0.00  0.00    +0.004 A 
BRANCH  16  19
ATOM     19  O   UNL     1       3.414  -0.917   0.335  0.00  0.00    -0.506 OA
ATOM     20  H   UNL     1       3.617  -1.004   1.277  0.00  0.00    +0.292 HD
ENDBRANCH  16  19
ENDBRANCH  10  15
ENDBRANCH   1  11
BRANCH   1  21
ATOM     21  C   UNL     1       6.435   1.802   1.422  0.00  0.00    +0.165 C 
BRANCH  21  22
ATOM     22  C   UNL     1       5.444   2.119   2.512  0.00  0.00    +0.021 A 
ATOM     23  C   UNL     1       5.334   3.415   2.994  0.00  0.00    +0.122 A 
ATOM     24  C   UNL     1       4.421   3.704   3.998  0.00  0.00    +0.046 A 
ATOM     25  C   UNL     1       3.624   2.700   4.515  0.00  0.00    +0.004 A 
ATOM     26  C   UNL     1       3.736   1.409   4.033  0.00  0.00    +0.001 A 
ATOM     27  C   UNL     1       4.642   1.120   3.029  0.00  0.00    +0.009 A 
BRANCH  23  28
ATOM     28  O   UNL     1       6.119   4.400   2.485  0.00  0.00    -0.506 OA
ATOM     29  H   UNL     1       5.764   4.811   1.684  0.00  0.00    +0.292 HD
ENDBRANCH  23  28
ENDBRANCH  21  22
BRANCH  21  30
ATOM     30  N   UNL     1       6.827   0.393   1.513  0.00  0.00    -0.280 NA
ATOM     31  C   UNL     1       8.050   0.078   1.799  0.00  0.00    +0.117 C 
BRANCH  31  32
ATOM     32  C   UNL     1       8.465  -1.336   1.804  0.00  0.00    +0.034 A 
ATOM     33  C   UNL     1       7.570  -2.335   1.397  0.00  0.00    +0.125 A 
ATOM     34  C   UNL     1       7.971  -3.662   1.406  0.00  0.00    +0.046 A 
ATOM     35  C   UNL     1       9.247  -3.997   1.816  0.00  0.00    +0.004 A 
ATOM     36  C   UNL     1      10.134  -3.013   2.220  0.00  0.00    +0.001 A 
ATOM     37  C   UNL     1       9.754  -1.688   2.211  0.00  0.00    +0.013 A 
BRANCH  33  38
ATOM     38  O   UNL     1       6.316  -2.005   0.995  0.00  0.00    -0.506 OA
ATOM     39  H   UNL     1       6.223  -1.906   0.038  0.00  0.00    +0.292 HD
ENDBRANCH  33  38
ENDBRANCH  31  32
ENDBRANCH  21  30
ENDBRANCH   1  21
TORSDOF 11
