REMARK  Name = ZINC03624378
REMARK  15 active torsions:
REMARK  status: ('A' for Active; 'I' for Inactive)
REMARK    1  A    between atoms: C_1  and  C_2
REMARK    2  A    between atoms: C_2  and  O_3
REMARK    3  A    between atoms: O_3  and  C_4
REMARK    4  A    between atoms: C_4  and  C_6
REMARK    5  A    between atoms: C_7  and  C_34
REMARK    6  A    between atoms: C_8  and  C_29
REMARK    7  A    between atoms: C_10  and  N_11
REMARK    8  A    between atoms: C_12  and  C_14
REMARK    9  A    between atoms: C_15  and  N_28
REMARK   10  A    between atoms: C_16  and  C_26
REMARK   11  A    between atoms: C_17  and  N_19
REMARK   12  A    between atoms: N_19  and  C_20
REMARK   13  A    between atoms: C_29  and  O_31
REMARK   14  A    between atoms: O_31  and  C_32
REMARK   15  A    between atoms: C_32  and  C_33
REMARK                            x       y       z     vdW  Elec       q    Type
REMARK                         _______ _______ _______ _____ _____    ______ ____
ROOT
ATOM      1  N   UNL     1      -0.868  -2.398   2.508  0.00  0.00    -0.275 N 
ATOM      2  C   UNL     1      -1.131  -3.236   3.530  0.00  0.00    +0.257 C 
ATOM      3  O   UNL     1      -1.333  -4.418   3.313  0.00  0.00    -0.269 OA
ATOM      4  H   UNL     1      -0.707  -1.458   2.681  0.00  0.00    +0.156 HD
ENDROOT
BRANCH   1   9
ATOM      5  C   UNL     1      -0.575  -2.176   0.032  0.00  0.00    +0.091 A 
ATOM      6  C   UNL     1      -0.585  -2.890  -1.156  0.00  0.00    -0.014 A 
ATOM      7  C   UNL     1      -0.847  -4.233  -1.089  0.00  0.00    +0.102 A 
ATOM      8  S   UNL     1      -1.082  -4.500   0.658  0.00  0.00    -0.066 S 
ATOM      9  C   UNL     1      -0.829  -2.878   1.216  0.00  0.00    +0.087 A 
ATOM     10  C   UNL     1      -0.317  -2.213  -2.476  0.00  0.00    +0.046 C 
BRANCH   5  11
ATOM     11  C   UNL     1      -0.303  -0.735   0.048  0.00  0.00    +0.342 C 
ATOM     12  O   UNL     1      -1.220   0.058  -0.055  0.00  0.00    -0.245 OA
BRANCH  11  13
ATOM     13  O   UNL     1       0.963  -0.289   0.177  0.00  0.00    -0.461 OA
BRANCH  13  15
ATOM     14  C   UNL     1       2.647   1.462   0.338  0.00  0.00    +0.048 C 
ATOM     15  C   UNL     1       1.157   1.150   0.185  0.00  0.00    +0.229 C 
ENDBRANCH  13  15
ENDBRANCH  11  13
ENDBRANCH   5  11
BRANCH   7  16
ATOM     16  C   UNL     1      -0.915  -5.205  -2.179  0.00  0.00    +0.346 C 
ATOM     17  O   UNL     1      -0.725  -4.848  -3.326  0.00  0.00    -0.244 OA
BRANCH  16  18
ATOM     18  O   UNL     1      -1.189  -6.499  -1.912  0.00  0.00    -0.461 OA
BRANCH  18  19
ATOM     19  C   UNL     1      -1.240  -7.394  -3.024  0.00  0.00    +0.229 C 
ATOM     20  C   UNL     1      -1.560  -8.806  -2.529  0.00  0.00    +0.048 C 
ENDBRANCH  18  19
ENDBRANCH  16  18
ENDBRANCH   7  16
ENDBRANCH   1   9
BRANCH   2  21
ATOM     21  C   UNL     1      -1.171  -2.746   4.851  0.00  0.00    +0.098 A 
ATOM     22  C   UNL     1      -1.423  -3.441   6.029  0.00  0.00    +0.064 A 
ATOM     23  C   UNL     1      -1.403  -2.707   7.212  0.00  0.00    +0.101 A 
ATOM     24  C   UNL     1      -1.135  -1.338   7.128  0.00  0.00    +0.090 A 
ATOM     25  S   UNL     1      -0.906  -1.081   5.430  0.00  0.00    -0.066 S 
BRANCH  22  26
ATOM     26  N   UNL     1      -1.681  -4.804   6.026  0.00  0.00    -0.356 N 
ATOM     27  H   UNL     1      -1.689  -5.294   5.188  0.00  0.00    +0.142 HD
ATOM     28  H   UNL     1      -1.853  -5.267   6.860  0.00  0.00    +0.142 HD
ENDBRANCH  22  26
BRANCH  24  29
ATOM     29  N   UNL     1      -1.063  -0.417   8.149  0.00  0.00    -0.308 N 
ATOM     30  H   UNL     1      -1.119  -0.711   9.072  0.00  0.00    +0.153 HD
BRANCH  29  31
ATOM     31  C   UNL     1      -0.909   0.941   7.856  0.00  0.00    +0.032 A 
ATOM     32  C   UNL     1      -0.173   1.757   8.705  0.00  0.00    +0.023 A 
ATOM     33  C   UNL     1      -0.018   3.097   8.409  0.00  0.00    +0.002 A 
ATOM     34  C   UNL     1      -0.604   3.629   7.275  0.00  0.00    +0.000 A 
ATOM     35  C   UNL     1      -1.343   2.820   6.431  0.00  0.00    +0.002 A 
ATOM     36  C   UNL     1      -1.497   1.478   6.717  0.00  0.00    +0.023 A 
ENDBRANCH  29  31
ENDBRANCH  24  29
BRANCH  23  37
ATOM     37  C   UNL     1      -1.650  -3.335   8.475  0.00  0.00    +0.103 C 
ATOM     38  N   UNL     1      -1.845  -3.833   9.477  0.00  0.00    -0.191 NA
ENDBRANCH  23  37
ENDBRANCH   2  21
TORSDOF 12
