REMARK  Name = ZINC39669062
REMARK  5 active torsions:
REMARK  status: ('A' for Active; 'I' for Inactive)
REMARK    1  A    between atoms: C_1  and  C_2
REMARK    2  A    between atoms: C_5  and  C_10
REMARK    3  A    between atoms: C_14  and  C_23
REMARK    4  A    between atoms: N_25  and  C_26
REMARK    5  A    between atoms: C_26  and  C_27
REMARK                            x       y       z     vdW  Elec       q    Type
REMARK                         _______ _______ _______ _____ _____    ______ ____
ROOT
ATOM      1  C   UNL     1       0.131  -4.057  -0.085  0.00  0.00    +0.250 C 
ATOM      2  O   UNL     1       0.169  -4.637   0.983  0.00  0.00    -0.270 OA
ATOM      3  N   UNL     1      -0.019  -4.757  -1.226  0.00  0.00    -0.296 N 
ATOM      4  C   UNL     1       0.020  -4.246  -2.617  0.00  0.00    +0.121 C 
ATOM      5  C   UNL     1       0.779  -5.332  -3.412  0.00  0.00    +0.100 C 
ATOM      6  C   UNL     1       0.591  -6.620  -2.593  0.00  0.00    -0.004 C 
ATOM      7  C   UNL     1      -0.252  -6.213  -1.376  0.00  0.00    +0.115 C 
ATOM      8  C   UNL     1       1.943  -7.157  -2.135  0.00  0.00    -0.010 C 
ATOM      9  C   UNL     1       1.735  -8.468  -1.372  0.00  0.00    -0.082 C 
ATOM     10  N   UNL     1       1.069  -9.443  -2.244  0.00  0.00    +0.379 N 
ATOM     11  C   UNL     1      -0.270  -8.960  -2.605  0.00  0.00    -0.082 C 
ATOM     12  C   UNL     1      -0.146  -7.670  -3.420  0.00  0.00    -0.010 C 
ATOM     13  H   UNL     1       1.616  -9.572  -3.082  0.00  0.00    -0.086 HD
ATOM     14  H   UNL     1       0.987 -10.325  -1.760  0.00  0.00    -0.086 HD
ENDROOT
BRANCH   1  19
ATOM     15  C   UNL     1       0.583   1.679  -0.268  0.00  0.00    +0.047 C 
ATOM     16  C   UNL     1       0.467   0.177  -0.218  0.00  0.00    -0.012 A 
ATOM     17  C   UNL     1      -0.335  -0.482  -1.134  0.00  0.00    +0.007 A 
ATOM     18  C   UNL     1      -0.448  -1.855  -1.096  0.00  0.00    +0.016 A 
ATOM     19  C   UNL     1       0.249  -2.585  -0.130  0.00  0.00    +0.075 A 
ATOM     20  C   UNL     1       1.058  -1.917   0.793  0.00  0.00    +0.171 A 
ATOM     21  C   UNL     1       1.166  -0.536   0.739  0.00  0.00    +0.162 A 
ATOM     22  F   UNL     1       1.951   0.114   1.626  0.00  0.00    -0.202 F 
ATOM     23  F   UNL     1       1.735  -2.614   1.731  0.00  0.00    -0.202 F 
ENDBRANCH   1  19
BRANCH   5  24
ATOM     24  C   UNL     1       0.182  -5.489  -4.786  0.00  0.00    +0.218 C 
ATOM     25  O   UNL     1      -1.000  -5.284  -4.961  0.00  0.00    -0.275 OA
ATOM     26  N   UNL     1       0.962  -5.858  -5.822  0.00  0.00    -0.312 N 
ATOM     27  H   UNL     1       1.908  -6.022  -5.681  0.00  0.00    +0.149 HD
BRANCH  26  28
ATOM     28  C   UNL     1       0.382  -6.011  -7.158  0.00  0.00    +0.140 C 
BRANCH  28  29
ATOM     29  C   UNL     1       1.475  -6.433  -8.143  0.00  0.00    +0.165 C 
ATOM     30  C   UNL     1       0.874  -6.598  -9.514  0.00  0.00    -0.014 A 
ATOM     31  C   UNL     1      -0.343  -7.252  -9.634  0.00  0.00    +0.006 A 
ATOM     32  C   UNL     1      -0.921  -7.424 -10.876  0.00  0.00    +0.000 A 
ATOM     33  C   UNL     1      -0.285  -6.944 -12.006  0.00  0.00    +0.000 A 
ATOM     34  C   UNL     1       0.925  -6.290 -11.887  0.00  0.00    +0.004 A 
ATOM     35  C   UNL     1       1.505  -6.114 -10.641  0.00  0.00    -0.040 A 
ATOM     36  C   UNL     1       2.822  -5.385 -10.550  0.00  0.00    +0.063 C 
ATOM     37  C   UNL     1       3.473  -5.661  -9.193  0.00  0.00    +0.165 C 
ATOM     38  O   UNL     1       2.497  -5.437  -8.170  0.00  0.00    -0.370 OA
ENDBRANCH  28  29
ENDBRANCH  26  28
ENDBRANCH   5  24
TORSDOF 4
