REMARK  Name = ZINC09329661
REMARK  5 active torsions:
REMARK  status: ('A' for Active; 'I' for Inactive)
REMARK    1  A    between atoms: C_3  and  N_9
REMARK    2  A    between atoms: C_14  and  C_19
REMARK    3  A    between atoms: C_16  and  O_18
REMARK    4  A    between atoms: C_19  and  S_20
REMARK    5  A    between atoms: S_20  and  C_21
REMARK                            x       y       z     vdW  Elec       q    Type
REMARK                         _______ _______ _______ _____ _____    ______ ____
ROOT
ATOM      1  N   UNL     1       0.684  -0.551   0.098  0.00  0.00    -0.326 N 
ATOM      2  C   UNL     1       2.014  -0.240  -0.077  0.00  0.00    +0.180 C 
ATOM      3  N   UNL     1       2.946  -1.248  -0.206  0.00  0.00    -0.296 N 
ATOM      4  C   UNL     1       2.532  -2.569  -0.298  0.00  0.00    +0.234 A 
ATOM      5  N   UNL     1       3.441  -3.532  -0.297  0.00  0.00    -0.216 NA
ATOM      6  C   UNL     1       3.083  -4.805  -0.379  0.00  0.00    +0.060 A 
ATOM      7  C   UNL     1       1.742  -5.125  -0.477  0.00  0.00    +0.091 A 
ATOM      8  C   UNL     1       0.809  -4.088  -0.480  0.00  0.00    +0.217 A 
ATOM      9  N   UNL     1       1.238  -2.835  -0.390  0.00  0.00    -0.177 NA
ATOM     10  H   UNL     1       0.416  -1.474   0.230  0.00  0.00    +0.169 HD
ATOM     11  H   UNL     1       3.311   1.326  -0.172  0.00  0.00    +0.159 HD
ATOM     12  H   UNL     1       3.892  -1.033  -0.232  0.00  0.00    +0.172 HD
ATOM     13  N   UNL     1       2.332   1.045  -0.119  0.00  0.00    -0.371 N 
ATOM     14  H   UNL     1       1.593   1.757  -0.098  0.00  0.00    +0.159 HD
ENDROOT
BRANCH   1  17
ATOM     15  C   UNL     1      -0.978   2.656  -0.591  0.00  0.00    +0.022 A 
ATOM     16  C   UNL     1      -0.027   1.654  -0.584  0.00  0.00    +0.028 A 
ATOM     17  C   UNL     1      -0.279   0.464   0.085  0.00  0.00    +0.060 A 
ATOM     18  C   UNL     1      -1.491   0.282   0.741  0.00  0.00    +0.066 A 
ATOM     19  C   UNL     1      -2.440   1.286   0.726  0.00  0.00    +0.042 A 
ATOM     20  C   UNL     1      -2.185   2.471   0.059  0.00  0.00    +0.042 A 
ATOM     21 CL   UNL     1      -3.380   3.731   0.043  0.00  0.00    -0.083 Cl
ATOM     22 CL   UNL     1      -1.811  -1.204   1.579  0.00  0.00    -0.081 Cl
ENDBRANCH   1  17
BRANCH   8  23
ATOM     23  O   UNL     1      -0.515  -4.356  -0.575  0.00  0.00    -0.492 OA
ATOM     24  H   UNL     1      -0.846  -4.389  -1.483  0.00  0.00    +0.294 HD
ENDBRANCH   8  23
BRANCH   6  25
ATOM     25  C   UNL     1       4.127  -5.891  -0.371  0.00  0.00    +0.132 C 
BRANCH  25  26
ATOM     26  S   UNL     1       4.649  -6.241  -2.073  0.00  0.00    -0.091 S 
BRANCH  26  27
ATOM     27  C   UNL     1       5.854  -7.514  -1.896  0.00  0.00    +0.160 A 
ATOM     28  N   UNL     1       6.296  -8.100  -0.800  0.00  0.00    -0.133 NA
ATOM     29  N   UNL     1       7.253  -9.086  -0.889  0.00  0.00    -0.125 NA
ATOM     30  C   UNL     1       7.722  -9.440  -2.069  0.00  0.00    +0.180 A 
ATOM     31  S   UNL     1       6.798  -8.363  -3.153  0.00  0.00    -0.025 S 
ATOM     32  N   UNL     1       8.678 -10.399  -2.385  0.00  0.00    -0.336 N 
ATOM     33  H   UNL     1       9.097 -10.916  -1.680  0.00  0.00    +0.144 HD
ATOM     34  H   UNL     1       8.925 -10.551  -3.311  0.00  0.00    +0.144 HD
ENDBRANCH  26  27
ENDBRANCH  25  26
ENDBRANCH   6  25
TORSDOF 5
