REMARK  Name = ZINC12424822
REMARK  6 active torsions:
REMARK  status: ('A' for Active; 'I' for Inactive)
REMARK    1  A    between atoms: C_10  and  C_13
REMARK    2  A    between atoms: C_13  and  C_14
REMARK    3  A    between atoms: C_14  and  O_16
REMARK    4  A    between atoms: O_16  and  C_17
REMARK    5  A    between atoms: C_17  and  C_18
REMARK    6  A    between atoms: N_20  and  C_21
REMARK                            x       y       z     vdW  Elec       q    Type
REMARK                         _______ _______ _______ _____ _____    ______ ____
ROOT
ATOM      1  O   UNL     1       2.458   0.556   2.619  0.00  0.00    -0.455 OA
ENDROOT
BRANCH   1   2
ATOM      2  C   UNL     1       1.347  -0.152   2.876  0.00  0.00    +0.309 C 
ATOM      3  O   UNL     1       0.790  -0.747   1.984  0.00  0.00    -0.251 OA
BRANCH   2   4
ATOM      4  C   UNL     1       0.790  -0.199   4.276  0.00  0.00    +0.144 C 
BRANCH   4  14
ATOM      5  C   UNL     1       1.863  -4.237   7.731  0.00  0.00    +0.002 A 
ATOM      6  C   UNL     1       2.257  -4.779   6.521  0.00  0.00    +0.001 A 
ATOM      7  C   UNL     1       1.677  -4.336   5.346  0.00  0.00    +0.016 A 
ATOM      8  C   UNL     1       0.705  -3.350   5.385  0.00  0.00    +0.030 A 
ATOM      9  C   UNL     1       0.305  -2.796   6.601  0.00  0.00    +0.047 A 
ATOM     10  C   UNL     1       0.895  -3.254   7.775  0.00  0.00    +0.024 A 
ATOM     11  N   UNL     1      -0.660  -1.796   6.671  0.00  0.00    -0.284 N 
ATOM     12  C   UNL     1      -1.086  -1.034   5.669  0.00  0.00    +0.231 C 
ATOM     13  O   UNL     1      -2.014  -0.279   5.872  0.00  0.00    -0.274 OA
ATOM     14  C   UNL     1      -0.473  -1.062   4.293  0.00  0.00    +0.148 C 
ATOM     15  S   UNL     1      -0.044  -2.783   3.890  0.00  0.00    -0.110 S 
ATOM     16  H   UNL     1      -1.063  -1.640   7.540  0.00  0.00    +0.155 HD
ENDBRANCH   4  14
ENDBRANCH   2   4
ENDBRANCH   1   2
BRANCH   1  17
ATOM     17  C   UNL     1       2.933   0.562   1.247  0.00  0.00    +0.328 C 
BRANCH  17  18
ATOM     18  C   UNL     1       4.181   1.402   1.151  0.00  0.00    +0.255 C 
ATOM     19  O   UNL     1       4.625   1.943   2.142  0.00  0.00    -0.272 OA
ATOM     20  N   UNL     1       4.802   1.553  -0.035  0.00  0.00    -0.280 N 
ATOM     21  H   UNL     1       4.490   1.062  -0.812  0.00  0.00    +0.155 HD
BRANCH  20  22
ATOM     22  C   UNL     1       5.898   2.417  -0.147  0.00  0.00    +0.073 A 
ATOM     23  C   UNL     1       5.699   3.757  -0.456  0.00  0.00    +0.082 A 
ATOM     24  C   UNL     1       6.784   4.610  -0.559  0.00  0.00    +0.063 A 
ATOM     25  C   UNL     1       8.066   4.127  -0.367  0.00  0.00    +0.043 A 
ATOM     26  C   UNL     1       8.268   2.792  -0.066  0.00  0.00    +0.063 A 
ATOM     27  C   UNL     1       7.187   1.935   0.045  0.00  0.00    +0.082 A 
ATOM     28 CL   UNL     1       7.440   0.260   0.424  0.00  0.00    -0.080 Cl
ATOM     29 CL   UNL     1       9.878   2.190   0.175  0.00  0.00    -0.082 Cl
ATOM     30 CL   UNL     1       6.536   6.286  -0.938  0.00  0.00    -0.082 Cl
ATOM     31 CL   UNL     1       4.091   4.362  -0.704  0.00  0.00    -0.080 Cl
ENDBRANCH  20  22
ENDBRANCH  17  18
ENDBRANCH   1  17
TORSDOF 6
