REMARK  Name = ZINC38656778
REMARK  10 active torsions:
REMARK  status: ('A' for Active; 'I' for Inactive)
REMARK    1  A    between atoms: C_1  and  O_2
REMARK    2  A    between atoms: O_2  and  C_3
REMARK    3  A    between atoms: C_6  and  C_11
REMARK    4  A    between atoms: C_7  and  O_9
REMARK    5  A    between atoms: O_9  and  C_10
REMARK    6  A    between atoms: C_16  and  O_25
REMARK    7  A    between atoms: C_20  and  N_24
REMARK    8  A    between atoms: C_21  and  C_22
REMARK    9  A    between atoms: O_25  and  C_26
REMARK   10  A    between atoms: C_26  and  C_28
REMARK                            x       y       z     vdW  Elec       q    Type
REMARK                         _______ _______ _______ _____ _____    ______ ____
ROOT
ATOM      1  C   UNL     1      -4.975  -2.679   0.064  0.00  0.00    +0.101 C 
ATOM      2  C   UNL     1      -5.736  -2.271   1.298  0.00  0.00    +0.008 A 
ATOM      3  C   UNL     1      -5.462  -2.892   2.503  0.00  0.00    +0.012 A 
ATOM      4  C   UNL     1      -6.150  -2.532   3.644  0.00  0.00    +0.047 A 
ATOM      5  C   UNL     1      -7.122  -1.542   3.585  0.00  0.00    +0.135 A 
ATOM      6  C   UNL     1      -7.399  -0.918   2.380  0.00  0.00    +0.093 A 
ATOM      7  C   UNL     1      -6.705  -1.282   1.233  0.00  0.00    +0.138 A 
ATOM      8  O   UNL     1      -6.989  -0.662   0.061  0.00  0.00    -0.441 OA
ATOM      9  C   UNL     1      -6.637  -1.234  -1.103  0.00  0.00    +0.199 C 
ATOM     10  C   UNL     1      -5.689  -2.195  -1.167  0.00  0.00    +0.098 C 
ENDROOT
BRANCH   1  14
ATOM     11  C   UNL     1      -1.055  -0.972   0.192  0.00  0.00    +0.124 A 
ATOM     12  C   UNL     1      -2.174  -0.151   0.197  0.00  0.00    +0.046 A 
ATOM     13  C   UNL     1      -3.439  -0.705   0.155  0.00  0.00    +0.012 A 
ATOM     14  C   UNL     1      -3.594  -2.078   0.109  0.00  0.00    +0.007 A 
ATOM     15  C   UNL     1      -2.478  -2.903   0.104  0.00  0.00    +0.128 A 
ATOM     16  C   UNL     1      -1.208  -2.349   0.140  0.00  0.00    +0.091 A 
BRANCH  11  18
ATOM     17  C   UNL     1       0.271   0.999   0.286  0.00  0.00    +0.277 C 
ATOM     18  O   UNL     1       0.189  -0.427   0.234  0.00  0.00    -0.495 OA
ENDBRANCH  11  18
BRANCH  15  19
ATOM     19  O   UNL     1      -2.631  -4.252   0.059  0.00  0.00    -0.495 OA
ATOM     20  C   UNL     1      -1.439  -5.040   0.058  0.00  0.00    +0.277 C 
ENDBRANCH  15  19
ENDBRANCH   1  14
BRANCH   9  21
ATOM     21  N   UNL     1      -7.258  -0.831  -2.258  0.00  0.00    -0.328 N 
ATOM     22  H   UNL     1      -7.940  -0.142  -2.227  0.00  0.00    +0.145 HD
ATOM     23  H   UNL     1      -7.014  -1.235  -3.106  0.00  0.00    +0.145 HD
ENDBRANCH   9  21
BRANCH  10  24
ATOM     24  C   UNL     1      -5.359  -2.764  -2.438  0.00  0.00    +0.101 C 
ATOM     25  N   UNL     1      -5.097  -3.216  -3.447  0.00  0.00    -0.191 NA
ENDBRANCH  10  24
BRANCH   5  26
ATOM     26  O   UNL     1      -7.801  -1.187   4.707  0.00  0.00    -0.422 OA
BRANCH  26  27
ATOM     27  C   UNL     1      -7.127  -0.533   5.674  0.00  0.00    +0.344 C 
ATOM     28  O   UNL     1      -5.978  -0.187   5.485  0.00  0.00    -0.245 OA
BRANCH  27  29
ATOM     29  C   UNL     1      -7.785  -0.238   6.962  0.00  0.00    +0.059 A 
ATOM     30  C   UNL     1      -9.104  -0.640   7.184  0.00  0.00    +0.016 A 
ATOM     31  C   UNL     1      -9.713  -0.362   8.389  0.00  0.00    +0.021 A 
ATOM     32  C   UNL     1      -9.020   0.316   9.379  0.00  0.00    +0.041 A 
ATOM     33  C   UNL     1      -7.712   0.718   9.165  0.00  0.00    +0.021 A 
ATOM     34  C   UNL     1      -7.089   0.439   7.966  0.00  0.00    +0.016 A 
ATOM     35 CL   UNL     1      -9.794   0.663  10.893  0.00  0.00    -0.084 Cl
ENDBRANCH  27  29
ENDBRANCH  26  27
ENDBRANCH   5  26
TORSDOF 8
