REMARK  Name = ZINC05573006
REMARK  11 active torsions:
REMARK  status: ('A' for Active; 'I' for Inactive)
REMARK    1  A    between atoms: C_1  and  C_2
REMARK    2  A    between atoms: C_2  and  C_4
REMARK    3  A    between atoms: C_4  and  O_32
REMARK    4  A    between atoms: C_8  and  O_25
REMARK    5  A    between atoms: C_11  and  O_12
REMARK    6  A    between atoms: C_19  and  O_23
REMARK    7  A    between atoms: O_23  and  C_24
REMARK    8  A    between atoms: C_26  and  O_29
REMARK    9  A    between atoms: O_29  and  C_30
REMARK   10  A    between atoms: C_30  and  C_31
REMARK   11  A    between atoms: C_31  and  N_55
REMARK                            x       y       z     vdW  Elec       q    Type
REMARK                         _______ _______ _______ _____ _____    ______ ____
ROOT
ATOM      1  C   UNL     1       3.547  10.290   0.286  0.00  0.00    +0.130 C 
ATOM      2  C   UNL     1       2.387   9.583  -0.411  0.00  0.00    +0.082 C 
ATOM      3  C   UNL     1       2.645   8.101  -0.504  0.00  0.00    +0.007 A 
ATOM      4  C   UNL     1       3.896   7.559  -0.350  0.00  0.00    +0.030 A 
ATOM      5  C   UNL     1       4.079   6.174  -0.457  0.00  0.00    +0.134 A 
ATOM      6  C   UNL     1       2.998   5.335  -0.714  0.00  0.00    +0.078 A 
ATOM      7  C   UNL     1       1.712   5.891  -0.868  0.00  0.00    +0.078 A 
ATOM      8  C   UNL     1       1.547   7.271  -0.761  0.00  0.00    +0.132 A 
ATOM      9  C   UNL     1       0.558   5.017  -1.140  0.00  0.00    +0.198 C 
ATOM     10  O   UNL     1      -0.552   5.496  -1.273  0.00  0.00    -0.286 OA
ATOM     11  C   UNL     1       0.751   3.556  -1.250  0.00  0.00    +0.037 A 
ATOM     12  C   UNL     1      -0.333   2.722  -1.505  0.00  0.00    +0.012 A 
ATOM     13  C   UNL     1      -0.145   1.353  -1.611  0.00  0.00    +0.004 A 
ATOM     14  C   UNL     1       1.111   0.803  -1.455  0.00  0.00    +0.046 A 
ATOM     15  C   UNL     1       2.209   1.619  -1.200  0.00  0.00    +0.132 A 
ATOM     16  C   UNL     1       2.036   3.002  -1.096  0.00  0.00    +0.075 A 
ATOM     17  C   UNL     1       3.190   3.878  -0.825  0.00  0.00    +0.202 C 
ATOM     18  O   UNL     1       4.301   3.399  -0.695  0.00  0.00    -0.286 OA
ATOM     19  C   UNL     1       5.114   8.398  -0.058  0.00  0.00    +0.155 C 
ATOM     20  C   UNL     1       4.852   9.864  -0.397  0.00  0.00    +0.079 C 
ENDROOT
BRANCH   1  22
ATOM     21  C   UNL     1       4.229  10.805   2.752  0.00  0.00    +0.089 C 
ATOM     22  C   UNL     1       3.582   9.896   1.740  0.00  0.00    +0.162 C 
ATOM     23  O   UNL     1       3.091   8.851   2.094  0.00  0.00    -0.295 OA
ENDBRANCH   1  22
BRANCH   8  24
ATOM     24  O   UNL     1       0.312   7.813  -0.907  0.00  0.00    -0.506 OA
ATOM     25  H   UNL     1       0.094   8.055  -1.818  0.00  0.00    +0.292 HD
ENDBRANCH   8  24
BRANCH  15  26
ATOM     26  O   UNL     1       3.442   1.074  -1.053  0.00  0.00    -0.494 OA
ATOM     27  C   UNL     1       3.542  -0.347  -1.172  0.00  0.00    +0.277 C 
ENDBRANCH  15  26
BRANCH   5  28
ATOM     28  O   UNL     1       5.320   5.646  -0.308  0.00  0.00    -0.506 OA
ATOM     29  H   UNL     1       5.789   5.504  -1.141  0.00  0.00    +0.292 HD
ENDBRANCH   5  28
BRANCH   1  30
ATOM     30  O   UNL     1       3.385  11.706   0.175  0.00  0.00    -0.381 OA
ATOM     31  H   UNL     1       2.569  12.040   0.572  0.00  0.00    +0.211 HD
ENDBRANCH   1  30
BRANCH  19  32
ATOM     32  O   UNL     1       6.212   7.923  -0.840  0.00  0.00    -0.374 OA
BRANCH  32  33
ATOM     33  C   UNL     1       7.492   8.182  -0.261  0.00  0.00    +0.141 C 
BRANCH  33  34
ATOM     34  C   UNL     1       8.581   7.545  -1.126  0.00  0.00    -0.058 C 
BRANCH  34  37
ATOM     35  H   UNL     1       9.321   7.797  -3.031  0.00  0.00    -0.090 HD
ATOM     36  H   UNL     1       7.704   8.159  -2.884  0.00  0.00    -0.090 HD
ATOM     37  N   UNL     1       8.615   8.224  -2.433  0.00  0.00    +0.380 N 
ATOM     38  H   UNL     1       8.849   9.214  -2.293  0.00  0.00    -0.090 HD
ENDBRANCH  34  37
ENDBRANCH  33  34
ENDBRANCH  32  33
ENDBRANCH  19  32
TORSDOF 9
