REMARK  Name = ZINC04729881
REMARK  14 active torsions:
REMARK  status: ('A' for Active; 'I' for Inactive)
REMARK    1  A    between atoms: C_1  and  C_2
REMARK    2  A    between atoms: C_2  and  C_3
REMARK    3  A    between atoms: C_3  and  C_4
REMARK    4  A    between atoms: C_4  and  C_5
REMARK    5  A    between atoms: C_5  and  C_6
REMARK    6  A    between atoms: C_6  and  C_7
REMARK    7  A    between atoms: C_7  and  C_30
REMARK    8  A    between atoms: C_8  and  C_21
REMARK    9  A    between atoms: C_11  and  C_13
REMARK   10  A    between atoms: C_16  and  O_19
REMARK   11  A    between atoms: O_19  and  C_20
REMARK   12  A    between atoms: C_25  and  O_28
REMARK   13  A    between atoms: C_26  and  O_27
REMARK   14  A    between atoms: O_28  and  C_29
REMARK                            x       y       z     vdW  Elec       q    Type
REMARK                         _______ _______ _______ _____ _____    ______ ____
ROOT
ATOM      1  C   UNL     1      -2.330  -2.860  -0.621  0.00  0.00    +0.026 C 
ATOM      2  C   UNL     1      -1.293  -0.775   0.010  0.00  0.00    -0.028 C 
ATOM      3  C   UNL     1      -1.844  -0.845   1.437  0.00  0.00    +0.044 C 
ATOM      4  C   UNL     1      -2.946  -1.867   1.499  0.00  0.00    +0.040 C 
ATOM      5  N   UNL     1      -3.138  -2.744   0.587  0.00  0.00    -0.300 NA
ATOM      6  C   UNL     1      -3.096  -2.257  -1.800  0.00  0.00    +0.014 C 
ATOM      7  N   UNL     1      -1.050  -2.153  -0.461  0.00  0.00    +0.400 N 
ATOM      8  H   UNL     1      -0.563  -2.123  -1.364  0.00  0.00    -0.081 HD
ATOM      9  H   UNL     1      -0.470  -2.650   0.225  0.00  0.00    -0.081 HD
ENDROOT
BRANCH   4  10
ATOM     10  C   UNL     1      -3.848  -1.857   2.666  0.00  0.00    -0.004 A 
ATOM     11  C   UNL     1      -3.665  -0.918   3.684  0.00  0.00    +0.013 A 
ATOM     12  C   UNL     1      -4.513  -0.908   4.769  0.00  0.00    +0.046 A 
ATOM     13  C   UNL     1      -5.543  -1.837   4.857  0.00  0.00    +0.120 A 
ATOM     14  C   UNL     1      -5.724  -2.777   3.850  0.00  0.00    +0.046 A 
ATOM     15  C   UNL     1      -4.884  -2.790   2.758  0.00  0.00    +0.013 A 
BRANCH  13  16
ATOM     16  O   UNL     1      -6.373  -1.828   5.931  0.00  0.00    -0.495 OA
ATOM     17  C   UNL     1      -6.131  -0.835   6.930  0.00  0.00    +0.277 C 
ENDBRANCH  13  16
ENDBRANCH   4  10
BRANCH   2  18
ATOM     18  C   UNL     1       0.002  -0.004   0.002  0.00  0.00    -0.016 A 
ATOM     19  C   UNL     1       1.209  -0.679  -0.013  0.00  0.00    +0.006 A 
ATOM     20  C   UNL     1       2.398   0.025  -0.020  0.00  0.00    +0.004 A 
ATOM     21  C   UNL     1       2.386   1.408  -0.013  0.00  0.00    +0.049 A 
ATOM     22  C   UNL     1       1.181   2.090   0.002  0.00  0.00    +0.161 A 
ATOM     23  C   UNL     1      -0.017   1.381   0.010  0.00  0.00    +0.160 A 
BRANCH  23  24
ATOM     24  O   UNL     1      -1.203   2.046   0.019  0.00  0.00    -0.503 OA
ATOM     25  H   UNL     1      -1.542   2.234   0.905  0.00  0.00    +0.292 HD
ENDBRANCH  23  24
BRANCH  22  26
ATOM     26  O   UNL     1       1.168   3.450   0.009  0.00  0.00    -0.491 OA
ATOM     27  C   UNL     1       2.434   4.111   0.001  0.00  0.00    +0.277 C 
ENDBRANCH  22  26
ENDBRANCH   2  18
BRANCH   1  28
ATOM     28  C   UNL     1      -2.053  -4.338  -0.902  0.00  0.00    +0.010 C 
BRANCH  28  29
ATOM     29  C   UNL     1      -3.372  -5.057  -1.193  0.00  0.00    +0.000 C 
BRANCH  29  30
ATOM     30  C   UNL     1      -3.095  -6.535  -1.474  0.00  0.00    -0.000 C 
BRANCH  30  31
ATOM     31  C   UNL     1      -4.414  -7.255  -1.765  0.00  0.00    -0.000 C 
BRANCH  31  33
ATOM     32  C   UNL     1      -5.456  -9.452  -2.338  0.00  0.00    +0.004 C 
ATOM     33  C   UNL     1      -4.137  -8.733  -2.046  0.00  0.00    -0.003 C 
ENDBRANCH  31  33
ENDBRANCH  30  31
ENDBRANCH  29  30
ENDBRANCH  28  29
ENDBRANCH   1  28
TORSDOF 10
