REMARK  Name = ZINC39678387
REMARK  7 active torsions:
REMARK  status: ('A' for Active; 'I' for Inactive)
REMARK    1  A    between atoms: C_1  and  C_2
REMARK    2  A    between atoms: C_7  and  C_8
REMARK    3  A    between atoms: C_8  and  C_9
REMARK    4  A    between atoms: C_13  and  C_22
REMARK    5  A    between atoms: N_24  and  C_25
REMARK    6  A    between atoms: C_25  and  C_26
REMARK    7  A    between atoms: C_31  and  N_32
REMARK                            x       y       z     vdW  Elec       q    Type
REMARK                         _______ _______ _______ _____ _____    ______ ____
ROOT
ATOM      1  C   UNL     1      -0.965   0.293   2.862  0.00  0.00    +0.220 C 
ATOM      2  O   UNL     1      -1.973  -0.195   2.398  0.00  0.00    -0.275 OA
ATOM      3  N   UNL     1      -1.018   0.967   4.028  0.00  0.00    -0.300 N 
ATOM      4  C   UNL     1       0.110   1.551   4.792  0.00  0.00    +0.121 C 
ATOM      5  C   UNL     1      -0.432   2.897   5.322  0.00  0.00    +0.100 C 
ATOM      6  C   UNL     1      -1.960   2.721   5.350  0.00  0.00    -0.004 C 
ATOM      7  C   UNL     1      -2.219   1.298   4.833  0.00  0.00    +0.115 C 
ATOM      8  C   UNL     1      -2.626   3.740   4.431  0.00  0.00    -0.010 C 
ATOM      9  C   UNL     1      -4.147   3.582   4.519  0.00  0.00    -0.082 C 
ATOM     10  N   UNL     1      -4.582   3.787   5.906  0.00  0.00    +0.379 N 
ATOM     11  C   UNL     1      -4.010   2.747   6.769  0.00  0.00    -0.082 C 
ATOM     12  C   UNL     1      -2.483   2.868   6.776  0.00  0.00    -0.010 C 
ATOM     13  H   UNL     1      -4.273   4.693   6.224  0.00  0.00    -0.086 HD
ATOM     14  H   UNL     1      -5.589   3.743   5.951  0.00  0.00    -0.086 HD
ENDROOT
BRANCH   5  15
ATOM     15  C   UNL     1      -0.048   4.020   4.394  0.00  0.00    +0.218 C 
ATOM     16  O   UNL     1       0.034   3.818   3.200  0.00  0.00    -0.275 OA
ATOM     17  N   UNL     1       0.203   5.248   4.889  0.00  0.00    -0.311 N 
ATOM     18  H   UNL     1       0.205   5.393   5.848  0.00  0.00    +0.149 HD
BRANCH  17  19
ATOM     19  C   UNL     1       0.475   6.363   3.978  0.00  0.00    +0.141 C 
BRANCH  19  20
ATOM     20  C   UNL     1       0.842   7.586   4.778  0.00  0.00    -0.009 A 
ATOM     21  C   UNL     1      -0.093   8.581   4.987  0.00  0.00    +0.007 A 
ATOM     22  C   UNL     1       0.242   9.704   5.721  0.00  0.00    +0.000 A 
ATOM     23  C   UNL     1       1.514   9.835   6.248  0.00  0.00    +0.002 A 
ATOM     24  C   UNL     1       2.453   8.844   6.043  0.00  0.00    +0.023 A 
ATOM     25  C   UNL     1       2.118   7.712   5.311  0.00  0.00    +0.034 A 
BRANCH  25  26
ATOM     26  N   UNL     1       3.064   6.705   5.107  0.00  0.00    -0.330 N 
ATOM     27  C   UNL     1       4.015   6.787   3.989  0.00  0.00    +0.105 C 
ATOM     28  C   UNL     1       5.436   6.636   4.540  0.00  0.00    +0.019 C 
ATOM     29  C   UNL     1       5.530   5.341   5.351  0.00  0.00    +0.003 C 
ATOM     30  C   UNL     1       4.559   5.407   6.532  0.00  0.00    +0.019 C 
ATOM     31  C   UNL     1       3.132   5.547   6.008  0.00  0.00    +0.105 C 
ENDBRANCH  25  26
ENDBRANCH  19  20
ENDBRANCH  17  19
ENDBRANCH   5  15
BRANCH   1  32
ATOM     32  C   UNL     1       0.347   0.145   2.136  0.00  0.00    +0.131 C 
BRANCH  32  39
ATOM     33  C   UNL     1      -0.414   1.710  -0.170  0.00  0.00    +0.044 C 
ATOM     34  C   UNL     1      -0.250   0.217  -0.293  0.00  0.00    -0.047 A 
ATOM     35  C   UNL     1      -0.458  -0.403  -1.511  0.00  0.00    +0.003 A 
ATOM     36  C   UNL     1      -0.307  -1.772  -1.624  0.00  0.00    +0.000 A 
ATOM     37  C   UNL     1       0.052  -2.522  -0.519  0.00  0.00    +0.000 A 
ATOM     38  C   UNL     1       0.261  -1.902   0.698  0.00  0.00    +0.004 A 
ATOM     39  C   UNL     1       0.115  -0.531   0.810  0.00  0.00    -0.036 A 
ENDBRANCH  32  39
ENDBRANCH   1  32
TORSDOF 6
