REMARK  Name = ZINC35955661
REMARK  11 active torsions:
REMARK  status: ('A' for Active; 'I' for Inactive)
REMARK    1  A    between atoms: C_1  and  C_2
REMARK    2  A    between atoms: C_7  and  C_8
REMARK    3  A    between atoms: N_10  and  C_11
REMARK    4  A    between atoms: C_17  and  N_19
REMARK    5  A    between atoms: C_20  and  C_22
REMARK    6  A    between atoms: N_27  and  S_29
REMARK    7  A    between atoms: S_29  and  C_32
REMARK    8  A    between atoms: C_35  and  C_38
REMARK    9  A    between atoms: C_38  and  C_39
REMARK   10  A    between atoms: C_38  and  C_40
REMARK   11  A    between atoms: C_38  and  C_41
REMARK                            x       y       z     vdW  Elec       q    Type
REMARK                         _______ _______ _______ _____ _____    ______ ____
ROOT
ATOM      1  N   UNL     1      -1.169  -1.336   5.873  0.00  0.00    -0.310 N 
ATOM      2  C   UNL     1      -1.887  -1.731   6.943  0.00  0.00    +0.218 C 
ATOM      3  O   UNL     1      -1.393  -1.699   8.050  0.00  0.00    -0.275 OA
ATOM      4  H   UNL     1      -1.565  -1.362   4.988  0.00  0.00    +0.149 HD
ENDROOT
BRANCH   1  10
ATOM      5  C   UNL     1       0.578   0.067   4.894  0.00  0.00    +0.093 C 
ATOM      6  C   UNL     1       2.016   0.556   5.076  0.00  0.00    +0.024 C 
ATOM      7  C   UNL     1       2.966  -0.644   5.086  0.00  0.00    +0.002 C 
ATOM      8  C   UNL     1       2.595  -1.578   6.239  0.00  0.00    +0.002 C 
ATOM      9  C   UNL     1       1.157  -2.067   6.057  0.00  0.00    +0.024 C 
ATOM     10  C   UNL     1       0.207  -0.868   6.048  0.00  0.00    +0.093 C 
BRANCH   5  13
ATOM     11  C   UNL     1       0.242   0.021   2.481  0.00  0.00    +0.245 C 
ATOM     12  O   UNL     1       0.135   1.232   2.503  0.00  0.00    -0.270 OA
ATOM     13  N   UNL     1       0.465  -0.656   3.625  0.00  0.00    -0.307 N 
ATOM     14  H   UNL     1       0.551  -1.622   3.607  0.00  0.00    +0.149 HD
BRANCH  11  21
ATOM     15  C   UNL     1      -0.511   1.452   0.082  0.00  0.00    +0.044 C 
ATOM     16  C   UNL     1      -0.234  -0.028   0.036  0.00  0.00    -0.038 A 
ATOM     17  C   UNL     1      -0.334  -0.714  -1.157  0.00  0.00    +0.004 A 
ATOM     18  C   UNL     1      -0.080  -2.073  -1.200  0.00  0.00    +0.000 A 
ATOM     19  C   UNL     1       0.275  -2.754  -0.049  0.00  0.00    +0.001 A 
ATOM     20  C   UNL     1       0.378  -2.080   1.150  0.00  0.00    +0.013 A 
ATOM     21  C   UNL     1       0.128  -0.708   1.200  0.00  0.00    +0.040 A 
ENDBRANCH  11  21
ENDBRANCH   5  13
ENDBRANCH   1  10
BRANCH   2  22
ATOM     22  C   UNL     1      -3.304  -2.213   6.764  0.00  0.00    +0.091 C 
ATOM     23  C   UNL     1      -4.149  -1.097   6.146  0.00  0.00    +0.015 C 
ATOM     24  C   UNL     1      -5.580  -1.596   5.933  0.00  0.00    +0.018 C 
ATOM     25  C   UNL     1      -6.191  -1.973   7.286  0.00  0.00    +0.109 C 
ATOM     26  N   UNL     1      -5.308  -2.939   7.952  0.00  0.00    -0.176 NA
ATOM     27  C   UNL     1      -3.889  -2.597   8.127  0.00  0.00    +0.122 C 
BRANCH  26  28
ATOM     28  S   UNL     1      -5.899  -4.388   8.496  0.00  0.00    +0.061 S 
ATOM     29  O   UNL     1      -5.026  -4.820   9.530  0.00  0.00    -0.153 OA
ATOM     30  O   UNL     1      -7.293  -4.205   8.703  0.00  0.00    -0.153 OA
BRANCH  28  31
ATOM     31  C   UNL     1      -5.732  -5.546   7.179  0.00  0.00    +0.105 A 
ATOM     32  C   UNL     1      -6.755  -5.701   6.261  0.00  0.00    +0.029 A 
ATOM     33  C   UNL     1      -6.624  -6.610   5.228  0.00  0.00    +0.006 A 
ATOM     34  C   UNL     1      -5.471  -7.363   5.112  0.00  0.00    -0.042 A 
ATOM     35  C   UNL     1      -4.448  -7.208   6.029  0.00  0.00    +0.006 A 
ATOM     36  C   UNL     1      -4.577  -6.296   7.060  0.00  0.00    +0.029 A 
BRANCH  34  37
ATOM     37  C   UNL     1      -5.329  -8.355   3.986  0.00  0.00    -0.013 C 
ATOM     38  C   UNL     1      -5.428  -7.623   2.647  0.00  0.00    +0.015 C 
ATOM     39  C   UNL     1      -3.970  -9.051   4.088  0.00  0.00    +0.015 C 
ATOM     40  C   UNL     1      -6.444  -9.398   4.082  0.00  0.00    +0.015 C 
ENDBRANCH  34  37
ENDBRANCH  28  31
ENDBRANCH  26  28
ENDBRANCH   2  22
TORSDOF 7
