REMARK  Name = ZINC35745852
REMARK  15 active torsions:
REMARK  status: ('A' for Active; 'I' for Inactive)
REMARK    1  A    between atoms: C_1  and  C_2
REMARK    2  A    between atoms: C_7  and  C_8
REMARK    3  A    between atoms: C_17  and  C_19
REMARK    4  A    between atoms: C_19  and  N_20
REMARK    5  A    between atoms: N_20  and  C_21
REMARK    6  A    between atoms: N_20  and  C_26
REMARK    7  A    between atoms: C_21  and  C_22
REMARK    8  A    between atoms: C_22  and  C_23
REMARK    9  A    between atoms: C_23  and  C_24
REMARK   10  A    between atoms: C_23  and  C_25
REMARK   11  A    between atoms: C_26  and  C_27
REMARK   12  A    between atoms: C_27  and  C_29
REMARK   13  A    between atoms: C_27  and  O_32
REMARK   14  A    between atoms: C_29  and  C_30
REMARK   15  A    between atoms: C_29  and  C_31
REMARK                            x       y       z     vdW  Elec       q    Type
REMARK                         _______ _______ _______ _____ _____    ______ ____
ROOT
ATOM      1  C   UNL     1       2.109   2.391   3.392  0.00  0.00    +0.004 A 
ATOM      2  C   UNL     1       2.869   2.615   4.491  0.00  0.00    +0.056 A 
ATOM      3  S   UNL     1       1.694   3.218   5.688  0.00  0.00    -0.076 S 
ATOM      4  C   UNL     1       0.225   3.156   4.695  0.00  0.00    +0.116 A 
ATOM      5  C   UNL     1       0.680   2.675   3.457  0.00  0.00    +0.080 A 
ATOM      6  C   UNL     1      -0.320   2.528   2.443  0.00  0.00    +0.260 A 
ATOM      7  O   UNL     1      -0.022   2.112   1.336  0.00  0.00    -0.267 OA
ATOM      8  N   UNL     1      -1.593   2.855   2.731  0.00  0.00    -0.312 N 
ATOM      9  H   UNL     1      -2.275   2.757   2.048  0.00  0.00    +0.170 HD
ATOM     10  C   UNL     1      -1.942   3.318   3.958  0.00  0.00    +0.094 A 
ATOM     11  N   UNL     1      -1.054   3.455   4.906  0.00  0.00    -0.229 NA
ENDROOT
BRANCH   1  18
ATOM     12  C   UNL     1       2.141   4.044   1.018  0.00  0.00    +0.044 C 
ATOM     13  C   UNL     1       2.740   2.662   0.995  0.00  0.00    -0.043 A 
ATOM     14  C   UNL     1       3.316   2.176  -0.162  0.00  0.00    +0.004 A 
ATOM     15  C   UNL     1       3.866   0.907  -0.184  0.00  0.00    +0.000 A 
ATOM     16  C   UNL     1       3.843   0.117   0.952  0.00  0.00    +0.001 A 
ATOM     17  C   UNL     1       3.270   0.592   2.114  0.00  0.00    +0.009 A 
ATOM     18  C   UNL     1       2.720   1.873   2.144  0.00  0.00    -0.014 A 
ENDBRANCH   1  18
BRANCH  10  19
ATOM     19  C   UNL     1      -3.381   3.672   4.235  0.00  0.00    -0.003 C 
BRANCH  19  20
ATOM     20  N   UNL     1      -3.541   3.997   5.659  0.00  0.00    +0.386 N 
ATOM     21  H   UNL     1      -2.870   4.704   5.920  0.00  0.00    -0.081 HD
BRANCH  20  22
ATOM     22  C   UNL     1      -3.317   2.788   6.464  0.00  0.00    -0.078 C 
BRANCH  22  23
ATOM     23  C   UNL     1      -4.415   1.765   6.164  0.00  0.00    -0.016 C 
BRANCH  23  24
ATOM     24  C   UNL     1      -4.108   0.458   6.897  0.00  0.00    -0.019 C 
ATOM     25  C   UNL     1      -4.175   0.693   8.407  0.00  0.00    +0.007 C 
ATOM     26  C   UNL     1      -5.136  -0.603   6.499  0.00  0.00    +0.007 C 
ENDBRANCH  23  24
ENDBRANCH  22  23
ENDBRANCH  20  22
BRANCH  20  27
ATOM     27  C   UNL     1      -4.900   4.499   5.897  0.00  0.00    -0.046 C 
BRANCH  27  28
ATOM     28  C   UNL     1      -5.018   4.984   7.343  0.00  0.00    +0.101 C 
BRANCH  28  29
ATOM     29  C   UNL     1      -6.375   5.662   7.545  0.00  0.00    +0.010 C 
ATOM     30  C   UNL     1      -7.492   4.630   7.370  0.00  0.00    +0.010 C 
ATOM     31  C   UNL     1      -6.444   6.256   8.953  0.00  0.00    +0.010 C 
ENDBRANCH  28  29
BRANCH  28  32
ATOM     32  O   UNL     1      -4.907   3.869   8.230  0.00  0.00    -0.393 OA
ATOM     33  H   UNL     1      -5.586   3.193   8.099  0.00  0.00    +0.210 HD
ENDBRANCH  28  32
ENDBRANCH  27  28
ENDBRANCH  20  27
ENDBRANCH  19  20
ENDBRANCH  10  19
TORSDOF 10
