REMARK  Name = ZINC20168002
REMARK  10 active torsions:
REMARK  status: ('A' for Active; 'I' for Inactive)
REMARK    1  A    between atoms: C_1  and  C_2
REMARK    2  A    between atoms: C_2  and  O_3
REMARK    3  A    between atoms: O_3  and  C_4
REMARK    4  A    between atoms: C_4  and  C_6
REMARK    5  A    between atoms: C_7  and  C_35
REMARK    6  A    between atoms: C_8  and  C_25
REMARK    7  A    between atoms: C_10  and  N_11
REMARK    8  A    between atoms: C_12  and  C_14
REMARK    9  A    between atoms: C_14  and  C_15
REMARK   10  A    between atoms: N_27  and  C_28
REMARK                            x       y       z     vdW  Elec       q    Type
REMARK                         _______ _______ _______ _____ _____    ______ ____
ROOT
ATOM      1  C   UNL     1      -4.071   5.891   0.467  0.00  0.00    +0.091 A 
ATOM      2  C   UNL     1      -2.756   5.464   0.368  0.00  0.00    -0.015 A 
ATOM      3  C   UNL     1      -2.532   4.119   0.248  0.00  0.00    +0.080 A 
ATOM      4  S   UNL     1      -4.181   3.443   0.268  0.00  0.00    -0.068 S 
ATOM      5  C   UNL     1      -5.076   4.918   0.438  0.00  0.00    +0.087 A 
ATOM      6  C   UNL     1      -1.613   6.446   0.390  0.00  0.00    +0.046 C 
ENDROOT
BRANCH   5   7
ATOM      7  N   UNL     1      -6.444   5.090   0.519  0.00  0.00    -0.279 N 
ATOM      8  C   UNL     1      -7.262   4.020   0.473  0.00  0.00    +0.218 C 
ATOM      9  O   UNL     1      -6.797   2.906   0.360  0.00  0.00    -0.275 OA
ATOM     10  H   UNL     1      -6.866   6.101   0.620  0.00  0.00    +0.155 HD
BRANCH   8  11
ATOM     11  C   UNL     1      -8.755   4.208   0.561  0.00  0.00    +0.103 C 
BRANCH  11  12
ATOM     12  C   UNL     1      -9.446   2.845   0.485  0.00  0.00    -0.020 C 
ATOM     13  C   UNL     1      -9.094   2.168  -0.841  0.00  0.00    +0.011 C 
ATOM     14  C   UNL     1      -9.785   0.806  -0.917  0.00  0.00    -0.010 C 
ATOM     15  C   UNL     1     -11.301   0.997  -0.828  0.00  0.00    +0.007 C 
ATOM     16  C   UNL     1     -11.652   1.674   0.499  0.00  0.00    -0.010 C 
ATOM     17  C   UNL     1     -10.961   3.037   0.574  0.00  0.00    +0.011 C 
ATOM     18  C   UNL     1     -11.179   0.797   1.660  0.00  0.00    +0.007 C 
ATOM     19  C   UNL     1      -9.664   0.606   1.571  0.00  0.00    -0.010 C 
ATOM     20  C   UNL     1      -9.312  -0.071   0.244  0.00  0.00    +0.007 C 
ATOM     21  C   UNL     1      -8.973   1.969   1.646  0.00  0.00    +0.011 C 
ENDBRANCH  11  12
ENDBRANCH   8  11
ENDBRANCH   5   7
BRANCH   3  22
ATOM     22  C   UNL     1      -1.255   3.412   0.128  0.00  0.00    +0.255 C 
ATOM     23  O   UNL     1      -0.211   4.037   0.127  0.00  0.00    -0.269 OA
ATOM     24  N   UNL     1      -1.237   2.069   0.019  0.00  0.00    -0.281 N 
ATOM     25  H   UNL     1      -2.181   1.510  -0.056  0.00  0.00    +0.155 HD
BRANCH  24  26
ATOM     26  C   UNL     1      -0.017   1.385   0.002  0.00  0.00    +0.034 A 
ATOM     27  C   UNL     1       1.091   1.954  -0.615  0.00  0.00    +0.025 A 
ATOM     28  C   UNL     1       2.293   1.274  -0.636  0.00  0.00    +0.022 A 
ATOM     29  C   UNL     1       2.395   0.028  -0.042  0.00  0.00    +0.041 A 
ATOM     30  C   UNL     1       1.293  -0.540   0.573  0.00  0.00    +0.022 A 
ATOM     31  C   UNL     1       0.089   0.135   0.597  0.00  0.00    +0.025 A 
ATOM     32 CL   UNL     1       3.908  -0.823  -0.070  0.00  0.00    -0.084 Cl
ENDBRANCH  24  26
ENDBRANCH   3  22
BRANCH   1  33
ATOM     33  C   UNL     1      -4.399   7.316   0.598  0.00  0.00    +0.342 C 
ATOM     34  O   UNL     1      -4.585   7.991  -0.396  0.00  0.00    -0.245 OA
BRANCH  33  35
ATOM     35  O   UNL     1      -4.492   7.876   1.821  0.00  0.00    -0.461 OA
BRANCH  35  37
ATOM     36  C   UNL     1      -4.880   9.743   3.335  0.00  0.00    +0.048 C 
ATOM     37  C   UNL     1      -4.819   9.290   1.875  0.00  0.00    +0.229 C 
ENDBRANCH  35  37
ENDBRANCH  33  35
ENDBRANCH   1  33
TORSDOF 8
