REMARK  Name = ZINC31159517
REMARK  13 active torsions:
REMARK  status: ('A' for Active; 'I' for Inactive)
REMARK    1  A    between atoms: C_1  and  C_2
REMARK    2  A    between atoms: N_4  and  C_5
REMARK    3  A    between atoms: C_7  and  O_43
REMARK    4  A    between atoms: C_9  and  O_42
REMARK    5  A    between atoms: C_11  and  C_39
REMARK    6  A    between atoms: C_14  and  O_16
REMARK    7  A    between atoms: O_16  and  C_17
REMARK    8  A    between atoms: C_19  and  C_33
REMARK    9  A    between atoms: C_20  and  C_24
REMARK   10  A    between atoms: C_24  and  C_26
REMARK   11  A    between atoms: C_24  and  O_32
REMARK   12  A    between atoms: C_39  and  O_40
REMARK   13  A    between atoms: O_40  and  C_41
REMARK                            x       y       z     vdW  Elec       q    Type
REMARK                         _______ _______ _______ _____ _____    ______ ____
ROOT
ATOM      1  C   UNL     1      -0.337   5.367   3.184  0.00  0.00    +0.346 C 
ATOM      2  C   UNL     1      -0.513   6.194   1.932  0.00  0.00    +0.040 C 
ATOM      3  C   UNL     1      -1.455   7.121   2.215  0.00  0.00    +0.079 C 
ATOM      4  C   UNL     1      -1.899   6.936   3.593  0.00  0.00    +0.341 C 
ATOM      5  O   UNL     1      -2.741   7.613   4.151  0.00  0.00    -0.245 OA
ATOM      6  O   UNL     1      -1.240   5.906   4.155  0.00  0.00    -0.427 OA
ENDROOT
BRANCH   2   7
ATOM      7  C   UNL     1       0.201   6.024   0.657  0.00  0.00    -0.015 A 
ATOM      8  C   UNL     1       0.025   4.859  -0.097  0.00  0.00    +0.008 A 
ATOM      9  C   UNL     1       0.693   4.710  -1.294  0.00  0.00    +0.001 A 
ATOM     10  C   UNL     1       1.545   5.703  -1.744  0.00  0.00    +0.000 A 
ATOM     11  C   UNL     1       1.728   6.857  -1.001  0.00  0.00    +0.001 A 
ATOM     12  C   UNL     1       1.063   7.024   0.195  0.00  0.00    +0.008 A 
ENDBRANCH   2   7
BRANCH   1  13
ATOM     13  O   UNL     1      -0.661   4.000   2.919  0.00  0.00    -0.306 OA
BRANCH  13  19
ATOM     14  C   UNL     1      -0.927   1.718   3.671  0.00  0.00    +0.160 C 
ATOM     15  C   UNL     1      -0.625   0.772   4.837  0.00  0.00    +0.171 C 
ATOM     16  C   UNL     1       0.879   0.802   5.128  0.00  0.00    +0.176 C 
ATOM     17  C   UNL     1       1.304   2.243   5.424  0.00  0.00    +0.178 C 
ATOM     18  O   UNL     1       0.966   3.076   4.313  0.00  0.00    -0.341 OA
ATOM     19  C   UNL     1      -0.432   3.124   4.024  0.00  0.00    +0.278 C 
BRANCH  14  23
ATOM     20  C   UNL     1      -0.013   1.086   0.008  0.00  0.00    +0.109 C 
ATOM     21  C   UNL     1      -0.718   1.572   1.248  0.00  0.00    +0.210 C 
ATOM     22  O   UNL     1      -1.714   2.256   1.150  0.00  0.00    -0.276 OA
ATOM     23  N   UNL     1      -0.242   1.246   2.466  0.00  0.00    -0.305 N 
ATOM     24  H   UNL     1       0.662   0.625   2.555  0.00  0.00    +0.149 HD
ENDBRANCH  14  23
BRANCH  16  25
ATOM     25  O   UNL     1       1.163  -0.022   6.260  0.00  0.00    -0.387 OA
ATOM     26  H   UNL     1       2.197  -0.124   6.620  0.00  0.00    +0.210 HD
ENDBRANCH  16  25
BRANCH  15  27
ATOM     27  O   UNL     1      -1.017  -0.557   4.487  0.00  0.00    -0.387 OA
ATOM     28  H   UNL     1      -0.875  -1.379   5.204  0.00  0.00    +0.210 HD
ENDBRANCH  15  27
BRANCH  17  29
ATOM     29  C   UNL     1       2.815   2.291   5.657  0.00  0.00    +0.193 C 
BRANCH  29  30
ATOM     30  O   UNL     1       3.195   3.613   6.048  0.00  0.00    -0.380 OA
ATOM     31  C   UNL     1       4.595   3.767   6.291  0.00  0.00    +0.194 C 
ENDBRANCH  29  30
ENDBRANCH  17  29
ENDBRANCH  13  19
ENDBRANCH   1  13
BRANCH   3  32
ATOM     32  C   UNL     1      -1.963   8.174   1.264  0.00  0.00    +0.182 C 
BRANCH  32  33
ATOM     33  C   UNL     1      -1.585   9.540   1.778  0.00  0.00    -0.015 A 
ATOM     34  C   UNL     1      -2.336  10.135   2.775  0.00  0.00    +0.006 A 
ATOM     35  C   UNL     1      -1.986  11.386   3.248  0.00  0.00    +0.000 A 
ATOM     36  C   UNL     1      -0.893  12.045   2.719  0.00  0.00    +0.000 A 
ATOM     37  C   UNL     1      -0.145  11.451   1.719  0.00  0.00    +0.000 A 
ATOM     38  C   UNL     1      -0.492  10.199   1.248  0.00  0.00    +0.006 A 
ENDBRANCH  32  33
BRANCH  32  39
ATOM     39  O   UNL     1      -3.386   8.079   1.165  0.00  0.00    -0.382 OA
ATOM     40  H   UNL     1      -3.939   8.771   0.512  0.00  0.00    +0.211 HD
ENDBRANCH  32  39
ENDBRANCH   3  32
TORSDOF 11
