REMARK  Name = ZINC05437062
REMARK  8 active torsions:
REMARK  status: ('A' for Active; 'I' for Inactive)
REMARK    1  A    between atoms: C_1  and  C_2
REMARK    2  A    between atoms: C_2  and  C_3
REMARK    3  A    between atoms: C_3  and  C_4
REMARK    4  A    between atoms: C_4  and  N_5
REMARK    5  A    between atoms: C_18  and  S_19
REMARK    6  A    between atoms: S_19  and  C_20
REMARK    7  A    between atoms: C_20  and  C_22
REMARK    8  A    between atoms: C_20  and  C_23
REMARK                            x       y       z     vdW  Elec       q    Type
REMARK                         _______ _______ _______ _____ _____    ______ ____
ROOT
ATOM      1  N   UNL     1      -1.542  -3.185   0.000  0.00  0.00    -0.277 N 
ATOM      2  C   UNL     1      -2.875  -2.980   0.015  0.00  0.00    +0.263 A 
ATOM      3  O   UNL     1      -3.646  -3.921   0.018  0.00  0.00    -0.267 OA
ATOM      4  C   UNL     1      -3.381  -1.595   0.027  0.00  0.00    +0.064 A 
ATOM      5  C   UNL     1      -4.749  -1.325   0.043  0.00  0.00    +0.015 A 
ATOM      6  C   UNL     1      -5.184  -0.017   0.054  0.00  0.00    +0.001 A 
ATOM      7  C   UNL     1      -4.271   1.026   0.051  0.00  0.00    +0.002 A 
ATOM      8  C   UNL     1      -2.914   0.771   0.035  0.00  0.00    +0.027 A 
ATOM      9  C   UNL     1      -2.458  -0.539   0.022  0.00  0.00    +0.064 A 
ATOM     10  N   UNL     1      -1.094  -0.824   0.008  0.00  0.00    -0.256 N 
ATOM     11  C   UNL     1      -0.655  -2.119  -0.003  0.00  0.00    +0.240 A 
ATOM     12  N   UNL     1       0.659  -2.098  -0.015  0.00  0.00    -0.109 NA
ATOM     13  N   UNL     1       1.073  -0.760  -0.018  0.00  0.00    -0.120 NA
ATOM     14  C   UNL     1       0.002  -0.004   0.002  0.00  0.00    +0.198 A 
ENDROOT
BRANCH   1  15
ATOM     15  C   UNL     1      -1.024  -4.555  -0.012  0.00  0.00    +0.128 C 
BRANCH  15  16
ATOM     16  C   UNL     1      -0.829  -5.040   1.426  0.00  0.00    +0.021 C 
BRANCH  16  18
ATOM     17  C   UNL     1      -0.092  -6.955   2.851  0.00  0.00    +0.004 C 
ATOM     18  C   UNL     1      -0.287  -6.470   1.413  0.00  0.00    -0.002 C 
ENDBRANCH  16  18
ENDBRANCH  15  16
ENDBRANCH   1  15
BRANCH  14  19
ATOM     19  S   UNL     1      -0.022   1.758   0.012  0.00  0.00    -0.073 S 
BRANCH  19  20
ATOM     20  C   UNL     1       1.732   2.220  -0.003  0.00  0.00    +0.137 C 
ATOM     21  C   UNL     1       2.368   1.768  -1.319  0.00  0.00    +0.029 C 
BRANCH  20  22
ATOM     22  C   UNL     1       1.858   3.716   0.128  0.00  0.00    +0.233 C 
ATOM     23  O   UNL     1       0.915   4.430  -0.138  0.00  0.00    -0.274 OA
ATOM     24  N   UNL     1       3.019   4.262   0.541  0.00  0.00    -0.239 N 
ATOM     25  C   UNL     1       3.132   5.599   0.658  0.00  0.00    +0.303 C 
ATOM     26  O   UNL     1       2.186   6.315   0.391  0.00  0.00    -0.253 OA
ATOM     27  N   UNL     1       4.293   6.144   1.071  0.00  0.00    -0.313 N 
ATOM     28  H   UNL     1       3.774   3.691   0.754  0.00  0.00    +0.159 HD
ATOM     29  H   UNL     1       5.048   5.574   1.284  0.00  0.00    +0.146 HD
ATOM     30  H   UNL     1       4.374   7.107   1.155  0.00  0.00    +0.146 HD
ENDBRANCH  20  22
ENDBRANCH  19  20
ENDBRANCH  14  19
TORSDOF 6
