REMARK  Name = ZINC35777954
REMARK  17 active torsions:
REMARK  status: ('A' for Active; 'I' for Inactive)
REMARK    1  A    between atoms: C_1  and  C_2
REMARK    2  A    between atoms: C_6  and  O_8
REMARK    3  A    between atoms: O_8  and  C_9
REMARK    4  A    between atoms: C_10  and  C_21
REMARK    5  A    between atoms: C_11  and  C_20
REMARK    6  A    between atoms: N_13  and  C_14
REMARK    7  A    between atoms: C_21  and  N_22
REMARK    8  A    between atoms: N_22  and  C_23
REMARK    9  A    between atoms: N_22  and  C_27
REMARK   10  A    between atoms: C_23  and  C_24
REMARK   11  A    between atoms: C_24  and  O_25
REMARK   12  A    between atoms: O_25  and  C_26
REMARK   13  A    between atoms: C_27  and  C_28
REMARK   14  A    between atoms: C_28  and  C_30
REMARK   15  A    between atoms: C_28  and  O_38
REMARK   16  A    between atoms: C_30  and  O_31
REMARK   17  A    between atoms: O_31  and  C_32
REMARK                            x       y       z     vdW  Elec       q    Type
REMARK                         _______ _______ _______ _____ _____    ______ ____
ROOT
ATOM      1  C   UNL     1      -0.625  -3.624   2.060  0.00  0.00    +0.225 A 
ATOM      2  C   UNL     1      -0.502  -4.665   2.927  0.00  0.00    +0.021 A 
ATOM      3  C   UNL     1      -0.881  -5.831   2.254  0.00  0.00    +0.065 A 
ATOM      4  N   UNL     1      -1.220  -5.512   1.031  0.00  0.00    -0.168 NA
ATOM      5  N   UNL     1      -1.076  -4.127   0.879  0.00  0.00    -0.200 N 
ATOM      6  C   UNL     1      -0.895  -7.220   2.839  0.00  0.00    +0.068 C 
ENDROOT
BRANCH   5   7
ATOM      7  C   UNL     1      -1.344  -3.391  -0.283  0.00  0.00    +0.069 A 
ATOM      8  C   UNL     1      -1.959  -2.150  -0.194  0.00  0.00    +0.028 A 
ATOM      9  C   UNL     1      -2.223  -1.427  -1.341  0.00  0.00    +0.002 A 
ATOM     10  C   UNL     1      -1.875  -1.939  -2.577  0.00  0.00    +0.000 A 
ATOM     11  C   UNL     1      -1.262  -3.175  -2.670  0.00  0.00    +0.002 A 
ATOM     12  C   UNL     1      -0.991  -3.900  -1.526  0.00  0.00    +0.028 A 
ENDBRANCH   5   7
BRANCH   1  13
ATOM     13  O   UNL     1      -0.355  -2.321   2.327  0.00  0.00    -0.438 OA
BRANCH  13  19
ATOM     14  C   UNL     1       2.711   1.459   1.955  0.00  0.00    +0.044 C 
ATOM     15  C   UNL     1       2.400  -0.006   1.789  0.00  0.00    -0.047 A 
ATOM     16  C   UNL     1       3.363  -0.864   1.289  0.00  0.00    +0.003 A 
ATOM     17  C   UNL     1       3.081  -2.209   1.136  0.00  0.00    +0.004 A 
ATOM     18  C   UNL     1       1.837  -2.700   1.482  0.00  0.00    +0.046 A 
ATOM     19  C   UNL     1       0.870  -1.841   1.985  0.00  0.00    +0.131 A 
ATOM     20  C   UNL     1       1.157  -0.493   2.143  0.00  0.00    +0.049 A 
ENDBRANCH  13  19
ENDBRANCH   1  13
BRANCH   2  21
ATOM     21  C   UNL     1      -0.038  -4.577   4.358  0.00  0.00    -0.036 C 
BRANCH  21  22
ATOM     22  N   UNL     1      -1.197  -4.361   5.235  0.00  0.00    +0.386 N 
ATOM     23  H   UNL     1      -1.705  -3.546   4.926  0.00  0.00    -0.081 HD
BRANCH  22  24
ATOM     24  C   UNL     1      -2.077  -5.536   5.183  0.00  0.00    -0.050 C 
BRANCH  24  25
ATOM     25  C   UNL     1      -3.350  -5.255   5.983  0.00  0.00    +0.141 C 
BRANCH  25  26
ATOM     26  O   UNL     1      -4.074  -4.188   5.367  0.00  0.00    -0.385 OA
ATOM     27  C   UNL     1      -5.287  -3.845   6.040  0.00  0.00    +0.193 C 
ENDBRANCH  25  26
ENDBRANCH  24  25
ENDBRANCH  22  24
BRANCH  22  28
ATOM     28  C   UNL     1      -0.735  -4.156   6.614  0.00  0.00    -0.043 C 
BRANCH  28  29
ATOM     29  C   UNL     1       0.057  -2.849   6.698  0.00  0.00    +0.135 C 
BRANCH  29  30
ATOM     30  O   UNL     1      -0.795  -1.754   6.358  0.00  0.00    -0.390 OA
ATOM     31  H   UNL     1      -1.522  -1.612   6.980  0.00  0.00    +0.210 HD
ENDBRANCH  29  30
BRANCH  29  32
ATOM     32  C   UNL     1       0.583  -2.663   8.123  0.00  0.00    +0.258 C 
BRANCH  32  33
ATOM     33  O   UNL     1       1.419  -1.505   8.174  0.00  0.00    -0.489 OA
BRANCH  33  34
ATOM     34  C   UNL     1       1.971  -1.195   9.376  0.00  0.00    +0.121 A 
ATOM     35  C   UNL     1       1.719  -1.992  10.483  0.00  0.00    +0.045 A 
ATOM     36  C   UNL     1       2.282  -1.676  11.704  0.00  0.00    +0.004 A 
ATOM     37  C   UNL     1       3.096  -0.564  11.824  0.00  0.00    +0.000 A 
ATOM     38  C   UNL     1       3.349   0.232  10.722  0.00  0.00    +0.004 A 
ATOM     39  C   UNL     1       2.793  -0.084   9.498  0.00  0.00    +0.045 A 
ENDBRANCH  33  34
ENDBRANCH  32  33
ENDBRANCH  29  32
ENDBRANCH  28  29
ENDBRANCH  22  28
ENDBRANCH  21  22
ENDBRANCH   2  21
TORSDOF 14
