REMARK  Name = ZINC16238003
REMARK  10 active torsions:
REMARK  status: ('A' for Active; 'I' for Inactive)
REMARK    1  A    between atoms: C_5  and  N_7
REMARK    2  A    between atoms: N_7  and  C_8
REMARK    3  A    between atoms: C_8  and  N_10
REMARK    4  A    between atoms: N_10  and  C_11
REMARK    5  A    between atoms: C_11  and  C_12
REMARK    6  A    between atoms: C_15  and  C_18
REMARK    7  A    between atoms: C_18  and  N_19
REMARK    8  A    between atoms: N_19  and  C_20
REMARK    9  A    between atoms: C_20  and  N_22
REMARK   10  A    between atoms: N_22  and  C_23
REMARK                            x       y       z     vdW  Elec       q    Type
REMARK                         _______ _______ _______ _____ _____    ______ ____
ROOT
ATOM      1  C   UNL     1      -2.152   0.537  -0.807  0.00  0.00    -0.030 A 
ATOM      2  C   UNL     1      -2.716   0.102  -1.992  0.00  0.00    +0.005 A 
ATOM      3  C   UNL     1      -3.720  -0.848  -1.972  0.00  0.00    +0.005 A 
ATOM      4  C   UNL     1      -4.167  -1.357  -0.767  0.00  0.00    -0.030 A 
ATOM      5  C   UNL     1      -3.607  -0.918   0.418  0.00  0.00    +0.005 A 
ATOM      6  C   UNL     1      -2.600   0.029   0.398  0.00  0.00    +0.005 A 
ENDROOT
BRANCH   1   7
ATOM      7  C   UNL     1      -1.054   1.569  -0.830  0.00  0.00    +0.138 C 
BRANCH   7   8
ATOM      8  N   UNL     1       0.245   0.897  -0.910  0.00  0.00    -0.322 N 
ATOM      9  H   UNL     1       0.290  -0.071  -0.940  0.00  0.00    +0.148 HD
BRANCH   8  10
ATOM     10  C   UNL     1       1.379   1.626  -0.948  0.00  0.00    +0.135 C 
ATOM     11  S   UNL     1       1.300   3.335  -0.896  0.00  0.00    -0.019 S 
BRANCH  10  12
ATOM     12  N   UNL     1       2.574   1.008  -1.028  0.00  0.00    -0.296 N 
ATOM     13  H   UNL     1       2.624   0.041  -0.987  0.00  0.00    +0.154 HD
BRANCH  12  18
ATOM     14  C   UNL     1       5.103   3.629  -0.519  0.00  0.00    +0.002 A 
ATOM     15  C   UNL     1       6.056   3.259  -1.451  0.00  0.00    +0.002 A 
ATOM     16  C   UNL     1       5.856   2.143  -2.243  0.00  0.00    +0.022 A 
ATOM     17  C   UNL     1       4.702   1.394  -2.105  0.00  0.00    +0.062 A 
ATOM     18  C   UNL     1       3.744   1.764  -1.170  0.00  0.00    +0.051 A 
ATOM     19  C   UNL     1       3.946   2.888  -0.380  0.00  0.00    +0.025 A 
ATOM     20 CL   UNL     1       4.451  -0.006  -3.100  0.00  0.00    -0.082 Cl
ENDBRANCH  12  18
ENDBRANCH  10  12
ENDBRANCH   8  10
ENDBRANCH   7   8
ENDBRANCH   1   7
BRANCH   4  21
ATOM     21  C   UNL     1      -5.264  -2.389  -0.745  0.00  0.00    +0.138 C 
BRANCH  21  22
ATOM     22  N   UNL     1      -6.564  -1.719  -0.663  0.00  0.00    -0.322 N 
ATOM     23  H   UNL     1      -6.609  -0.751  -0.633  0.00  0.00    +0.148 HD
BRANCH  22  24
ATOM     24  C   UNL     1      -7.697  -2.448  -0.630  0.00  0.00    +0.135 C 
ATOM     25  S   UNL     1      -7.617  -4.157  -0.684  0.00  0.00    -0.019 S 
BRANCH  24  26
ATOM     26  N   UNL     1      -8.893  -1.831  -0.555  0.00  0.00    -0.296 N 
ATOM     27  H   UNL     1      -8.941  -0.863  -0.574  0.00  0.00    +0.154 HD
BRANCH  26  28
ATOM     28  C   UNL     1     -10.066  -2.589  -0.451  0.00  0.00    +0.051 A 
ATOM     29  C   UNL     1     -10.082  -3.743   0.322  0.00  0.00    +0.025 A 
ATOM     30  C   UNL     1     -11.242  -4.486   0.427  0.00  0.00    +0.002 A 
ATOM     31  C   UNL     1     -12.383  -4.087  -0.244  0.00  0.00    +0.002 A 
ATOM     32  C   UNL     1     -12.370  -2.941  -1.018  0.00  0.00    +0.022 A 
ATOM     33  C   UNL     1     -11.214  -2.191  -1.123  0.00  0.00    +0.062 A 
ATOM     34 CL   UNL     1     -11.198  -0.753  -2.096  0.00  0.00    -0.082 Cl
ENDBRANCH  26  28
ENDBRANCH  24  26
ENDBRANCH  22  24
ENDBRANCH  21  22
ENDBRANCH   4  21
TORSDOF 10
