REMARK  Name = ZINC49418371
REMARK  6 active torsions:
REMARK  status: ('A' for Active; 'I' for Inactive)
REMARK    1  A    between atoms: C_1  and  S_2
REMARK    2  A    between atoms: S_2  and  C_3
REMARK    3  A    between atoms: C_6  and  C_8
REMARK    4  A    between atoms: C_8  and  S_9
REMARK    5  A    between atoms: S_9  and  C_10
REMARK    6  A    between atoms: C_14  and  N_16
REMARK                            x       y       z     vdW  Elec       q    Type
REMARK                         _______ _______ _______ _____ _____    ______ ____
ROOT
ATOM      1  C   UNL     1       2.550  -3.377   7.242  0.00  0.00    +0.192 A 
ATOM      2  N   UNL     1       3.836  -3.612   7.024  0.00  0.00    -0.207 NA
ATOM      3  C   UNL     1       4.570  -4.267   7.921  0.00  0.00    +0.122 A 
ATOM      4  C   UNL     1       3.970  -4.704   9.098  0.00  0.00    +0.086 A 
ATOM      5  C   UNL     1       2.618  -4.438   9.292  0.00  0.00    +0.122 A 
ATOM      6  N   UNL     1       1.948  -3.774   8.353  0.00  0.00    -0.207 NA
ATOM      7  N   UNL     1       5.914  -4.509   7.685  0.00  0.00    -0.343 N 
ATOM      8  H   UNL     1       6.326  -4.202   6.862  0.00  0.00    +0.144 HD
ATOM      9  H   UNL     1       6.444  -4.987   8.343  0.00  0.00    +0.144 HD
ENDROOT
BRANCH   5  10
ATOM     10  N   UNL     1       1.979  -4.856  10.449  0.00  0.00    -0.343 N 
ATOM     11  H   UNL     1       2.474  -5.337  11.130  0.00  0.00    +0.144 HD
ATOM     12  H   UNL     1       1.036  -4.667  10.577  0.00  0.00    +0.144 HD
ENDBRANCH   5  10
BRANCH   1  13
ATOM     13  S   UNL     1       1.619  -2.506   6.026  0.00  0.00    -0.079 S 
BRANCH  13  14
ATOM     14  C   UNL     1       2.822  -2.169   4.710  0.00  0.00    +0.142 C 
BRANCH  14  18
ATOM     15  C   UNL     1       0.877  -0.427   1.472  0.00  0.00    +0.158 A 
ATOM     16  N   UNL     1       1.407   0.355   2.405  0.00  0.00    -0.135 NA
ATOM     17  N   UNL     1       2.008  -0.121   3.407  0.00  0.00    -0.145 NA
ATOM     18  C   UNL     1       2.147  -1.418   3.592  0.00  0.00    +0.113 A 
ATOM     19  S   UNL     1       1.298  -2.033   2.141  0.00  0.00    -0.043 S 
BRANCH  15  21
ATOM     20  C   UNL     1      -0.022   1.810   0.012  0.00  0.00    +0.092 C 
ATOM     21  S   UNL     1       0.002  -0.004   0.002  0.00  0.00    -0.100 S 
ENDBRANCH  15  21
ENDBRANCH  14  18
ENDBRANCH  13  14
ENDBRANCH   1  13
TORSDOF 5
