REMARK  Name = ZINC63182711
REMARK  6 active torsions:
REMARK  status: ('A' for Active; 'I' for Inactive)
REMARK    1  A    between atoms: C_4  and  C_7
REMARK    2  A    between atoms: C_7  and  C_9
REMARK    3  A    between atoms: C_7  and  C_25
REMARK    4  A    between atoms: C_9  and  N_10
REMARK    5  A    between atoms: N_10  and  S_11
REMARK    6  A    between atoms: S_11  and  C_14
REMARK                            x       y       z     vdW  Elec       q    Type
REMARK                         _______ _______ _______ _____ _____    ______ ____
ROOT
ATOM      1  C   UNL     1       3.817  -1.592   1.206  0.00  0.00    +0.118 C 
ENDROOT
BRANCH   1   2
ATOM      2  N   UNL     1       3.861  -0.748   2.403  0.00  0.00    -0.189 NA
ATOM      3  H   UNL     1       4.041   0.201   2.321  0.00  0.00    +0.148 HD
BRANCH   2   4
ATOM      4  S   UNL     1       3.603  -1.416   3.897  0.00  0.00    +0.058 S 
ATOM      5  O   UNL     1       3.735  -0.362   4.841  0.00  0.00    -0.153 OA
ATOM      6  O   UNL     1       2.423  -2.201   3.792  0.00  0.00    -0.153 OA
BRANCH   4   7
ATOM      7  C   UNL     1       4.928  -2.536   4.203  0.00  0.00    +0.106 A 
ATOM      8  C   UNL     1       4.817  -3.858   3.812  0.00  0.00    +0.030 A 
ATOM      9  C   UNL     1       5.854  -4.739   4.051  0.00  0.00    +0.025 A 
ATOM     10  C   UNL     1       7.008  -4.296   4.682  0.00  0.00    +0.037 A 
ATOM     11  C   UNL     1       7.116  -2.968   5.072  0.00  0.00    -0.024 A 
ATOM     12  C   UNL     1       6.078  -2.090   4.827  0.00  0.00    +0.034 A 
ATOM     13  C   UNL     1       8.368  -2.486   5.757  0.00  0.00    +0.046 C 
ATOM     14  C   UNL     1       8.937  -3.607   6.629  0.00  0.00    +0.101 C 
ATOM     15  C   UNL     1       9.004  -4.886   5.839  0.00  0.00    +0.218 C 
ATOM     16  O   UNL     1       9.919  -5.660   6.028  0.00  0.00    -0.275 OA
ATOM     17  N   UNL     1       8.061  -5.182   4.926  0.00  0.00    -0.285 N 
ATOM     18  H   UNL     1       8.112  -6.017   4.434  0.00  0.00    +0.155 HD
ENDBRANCH   4   7
ENDBRANCH   2   4
ENDBRANCH   1   2
BRANCH   1  19
ATOM     19  C   UNL     1       3.711  -0.707  -0.038  0.00  0.00    +0.063 C 
BRANCH  19  20
ATOM     20  C   UNL     1       3.790  -1.566  -1.273  0.00  0.00    -0.033 C 
ATOM     21  C   UNL     1       4.716  -1.494  -2.256  0.00  0.00    -0.000 A 
ATOM     22  C   UNL     1       5.883  -0.628  -2.461  0.00  0.00    +0.010 A 
ATOM     23  C   UNL     1       6.640  -0.798  -3.569  0.00  0.00    +0.001 A 
ATOM     24  C   UNL     1       6.338  -1.778  -4.524  0.00  0.00    +0.002 A 
ATOM     25  C   UNL     1       5.284  -2.612  -4.405  0.00  0.00    +0.026 A 
ATOM     26  C   UNL     1       4.420  -2.522  -3.279  0.00  0.00    +0.043 A 
ATOM     27  N   UNL     1       3.352  -3.203  -2.942  0.00  0.00    -0.380 N 
ATOM     28  C   UNL     1       2.853  -2.687  -1.662  0.00  0.00    +0.145 C 
ATOM     29  H   UNL     1       2.959  -3.929  -3.451  0.00  0.00    +0.160 HD
ENDBRANCH  19  20
BRANCH  19  33
ATOM     30  C   UNL     1      -0.017   1.378   0.010  0.00  0.00    +0.000 A 
ATOM     31  C   UNL     1       1.171   2.086   0.002  0.00  0.00    +0.000 A 
ATOM     32  C   UNL     1       2.377   1.411  -0.013  0.00  0.00    +0.004 A 
ATOM     33  C   UNL     1       2.396   0.029  -0.020  0.00  0.00    -0.039 A 
ATOM     34  C   UNL     1       1.208  -0.679  -0.012  0.00  0.00    +0.004 A 
ATOM     35  C   UNL     1       0.002  -0.004   0.002  0.00  0.00    +0.000 A 
ENDBRANCH  19  33
ENDBRANCH   1  19
TORSDOF 6
