REMARK  Name = ZINC14649953
REMARK  13 active torsions:
REMARK  status: ('A' for Active; 'I' for Inactive)
REMARK    1  A    between atoms: C_1  and  C_2
REMARK    2  A    between atoms: C_2  and  C_3
REMARK    3  A    between atoms: C_2  and  C_4
REMARK    4  A    between atoms: N_6  and  C_7
REMARK    5  A    between atoms: C_10  and  C_13
REMARK    6  A    between atoms: N_15  and  N_16
REMARK    7  A    between atoms: C_17  and  C_19
REMARK    8  A    between atoms: C_19  and  O_20
REMARK    9  A    between atoms: O_20  and  C_21
REMARK   10  A    between atoms: C_24  and  C_28
REMARK   11  A    between atoms: C_28  and  C_29
REMARK   12  A    between atoms: C_28  and  C_30
REMARK   13  A    between atoms: C_28  and  C_31
REMARK                            x       y       z     vdW  Elec       q    Type
REMARK                         _______ _______ _______ _____ _____    ______ ____
ROOT
ATOM      1  C   UNL     1      -0.024   1.194   0.037  0.00  0.00    +0.260 C 
ATOM      2  O   UNL     1      -0.012  -0.021   0.040  0.00  0.00    -0.269 OA
ATOM      3  N   UNL     1       1.136   1.880   0.026  0.00  0.00    -0.230 N 
ATOM      4  H   UNL     1       1.127   2.850   0.024  0.00  0.00    +0.173 HD
ENDROOT
BRANCH   1   8
ATOM      5  C   UNL     1      -3.723   3.281   0.045  0.00  0.00    +0.033 A 
ATOM      6  C   UNL     1      -3.711   1.889   0.048  0.00  0.00    +0.024 A 
ATOM      7  C   UNL     1      -2.514   1.210   0.045  0.00  0.00    +0.015 A 
ATOM      8  C   UNL     1      -1.310   1.919   0.040  0.00  0.00    +0.038 A 
ATOM      9  C   UNL     1      -1.325   3.317   0.042  0.00  0.00    +0.015 A 
ATOM     10  C   UNL     1      -2.526   3.990   0.039  0.00  0.00    +0.024 A 
BRANCH   5  13
ATOM     11  C   UNL     1      -5.996   3.464  -0.621  0.00  0.00    +0.220 C 
ATOM     12  O   UNL     1      -5.917   2.377  -1.153  0.00  0.00    -0.275 OA
ATOM     13  N   UNL     1      -4.938   3.966   0.047  0.00  0.00    -0.285 N 
ATOM     14  H   UNL     1      -5.021   4.803   0.529  0.00  0.00    +0.155 HD
BRANCH  11  16
ATOM     15  C   UNL     1      -7.006   5.592  -1.394  0.00  0.00    +0.017 C 
ATOM     16  C   UNL     1      -7.277   4.253  -0.705  0.00  0.00    +0.069 C 
ATOM     17  C   UNL     1      -8.309   3.464  -1.512  0.00  0.00    +0.017 C 
ENDBRANCH  11  16
ENDBRANCH   5  13
ENDBRANCH   1   8
BRANCH   3  18
ATOM     18  N   UNL     1       2.357   1.192   0.018  0.00  0.00    -0.231 N 
ATOM     19  C   UNL     1       3.517   1.877   0.006  0.00  0.00    +0.267 C 
ATOM     20  O   UNL     1       3.505   3.090   0.004  0.00  0.00    -0.271 OA
ATOM     21  H   UNL     1       2.366   0.222   0.020  0.00  0.00    +0.173 HD
BRANCH  19  22
ATOM     22  C   UNL     1       4.829   1.137  -0.002  0.00  0.00    +0.326 C 
BRANCH  22  23
ATOM     23  O   UNL     1       5.906   2.076  -0.013  0.00  0.00    -0.482 OA
BRANCH  23  24
ATOM     24  C   UNL     1       7.167   1.569  -0.022  0.00  0.00    +0.135 A 
ATOM     25  C   UNL     1       7.364   0.196  -0.021  0.00  0.00    +0.047 A 
ATOM     26  C   UNL     1       8.647  -0.317  -0.031  0.00  0.00    +0.008 A 
ATOM     27  C   UNL     1       9.735   0.537  -0.042  0.00  0.00    -0.041 A 
ATOM     28  C   UNL     1       9.542   1.906  -0.044  0.00  0.00    +0.023 A 
ATOM     29  C   UNL     1       8.260   2.425  -0.039  0.00  0.00    +0.060 A 
ATOM     30 BR   UNL     1       7.997   4.297  -0.049  0.00  0.00    -0.047 Br
BRANCH  27  31
ATOM     31  C   UNL     1      11.133  -0.025  -0.053  0.00  0.00    -0.013 C 
ATOM     32  C   UNL     1      11.325  -0.888  -1.302  0.00  0.00    +0.015 C 
ATOM     33  C   UNL     1      12.144   1.123  -0.065  0.00  0.00    +0.015 C 
ATOM     34  C   UNL     1      11.348  -0.882   1.196  0.00  0.00    +0.015 C 
ENDBRANCH  27  31
ENDBRANCH  23  24
ENDBRANCH  22  23
ENDBRANCH  19  22
ENDBRANCH   3  18
TORSDOF 8
