REMARK  Name = ZINC39685837
REMARK  11 active torsions:
REMARK  status: ('A' for Active; 'I' for Inactive)
REMARK    1  A    between atoms: C_1  and  C_2
REMARK    2  A    between atoms: C_2  and  C_3
REMARK    3  A    between atoms: C_2  and  C_4
REMARK    4  A    between atoms: C_4  and  C_6
REMARK    5  A    between atoms: C_4  and  N_13
REMARK    6  A    between atoms: N_8  and  C_9
REMARK    7  A    between atoms: C_9  and  C_10
REMARK    8  A    between atoms: C_9  and  C_11
REMARK    9  A    between atoms: C_9  and  C_12
REMARK   10  A    between atoms: C_14  and  C_16
REMARK   11  A    between atoms: C_27  and  C_29
REMARK                            x       y       z     vdW  Elec       q    Type
REMARK                         _______ _______ _______ _____ _____    ______ ____
ROOT
ATOM      1  C   UNL     1      -0.394  -3.521   1.916  0.00  0.00    +0.100 C 
ATOM      2  C   UNL     1       0.873  -3.940   1.136  0.00  0.00    +0.121 C 
ATOM      3  N   UNL     1       1.948  -3.963   2.155  0.00  0.00    -0.296 N 
ATOM      4  C   UNL     1       1.303  -4.536   3.360  0.00  0.00    +0.115 C 
ATOM      5  C   UNL     1      -0.109  -3.917   3.374  0.00  0.00    -0.004 C 
ATOM      6  C   UNL     1      -1.131  -4.944   3.852  0.00  0.00    -0.010 C 
ATOM      7  C   UNL     1      -0.863  -5.278   5.322  0.00  0.00    -0.082 C 
ATOM      8  N   UNL     1      -0.955  -4.055   6.129  0.00  0.00    +0.379 N 
ATOM      9  C   UNL     1       0.093  -3.109   5.724  0.00  0.00    -0.082 C 
ATOM     10  C   UNL     1      -0.135  -2.683   4.271  0.00  0.00    -0.010 C 
ATOM     11  C   UNL     1       3.226  -3.557   2.017  0.00  0.00    +0.249 C 
ATOM     12  O   UNL     1       4.016  -3.714   2.927  0.00  0.00    -0.270 OA
ATOM     13  H   UNL     1      -1.860  -3.631   5.992  0.00  0.00    -0.086 HD
ATOM     14  H   UNL     1      -0.838  -4.287   7.104  0.00  0.00    -0.086 HD
ENDROOT
BRANCH  11  15
ATOM     15  C   UNL     1       3.666  -2.919   0.759  0.00  0.00    +0.073 A 
ATOM     16  C   UNL     1       3.112  -3.316  -0.460  0.00  0.00    +0.036 A 
ATOM     17  C   UNL     1       3.527  -2.716  -1.631  0.00  0.00    +0.042 A 
ATOM     18  C   UNL     1       4.491  -1.722  -1.601  0.00  0.00    +0.023 A 
ATOM     19  C   UNL     1       5.045  -1.323  -0.399  0.00  0.00    +0.040 A 
ATOM     20  C   UNL     1       4.635  -1.911   0.784  0.00  0.00    +0.136 A 
ATOM     21  F   UNL     1       5.172  -1.517   1.959  0.00  0.00    -0.205 F 
ATOM     22 CL   UNL     1       2.839  -3.209  -3.147  0.00  0.00    -0.084 Cl
ENDBRANCH  11  15
BRANCH   1  24
ATOM     23  N   UNL     1      -1.843  -1.517   1.966  0.00  0.00    -0.303 N 
ATOM     24  C   UNL     1      -0.608  -2.033   1.808  0.00  0.00    +0.219 C 
ATOM     25  O   UNL     1       0.331  -1.301   1.579  0.00  0.00    -0.275 OA
ATOM     26  H   UNL     1      -2.594  -2.103   2.150  0.00  0.00    +0.149 HD
BRANCH  23  27
ATOM     27  C   UNL     1      -2.050  -0.070   1.862  0.00  0.00    +0.161 C 
BRANCH  27  28
ATOM     28  C   UNL     1      -3.279   0.318   2.643  0.00  0.00    +0.234 C 
ATOM     29  O   UNL     1      -4.043  -0.537   3.038  0.00  0.00    -0.274 OA
ATOM     30  N   UNL     1      -3.529   1.617   2.904  0.00  0.00    -0.309 N 
ATOM     31  H   UNL     1      -2.884   2.296   2.649  0.00  0.00    +0.149 HD
BRANCH  30  32
ATOM     32  C   UNL     1      -4.775   2.004   3.570  0.00  0.00    +0.026 C 
ATOM     33  C   UNL     1      -4.849   1.331   4.942  0.00  0.00    +0.031 C 
ATOM     34  C   UNL     1      -4.809   3.523   3.745  0.00  0.00    +0.031 C 
ATOM     35  C   UNL     1      -5.967   1.561   2.720  0.00  0.00    +0.031 C 
ENDBRANCH  30  32
ENDBRANCH  27  28
BRANCH  27  37
ATOM     36  C   UNL     1      -0.934   0.067  -0.369  0.00  0.00    +0.009 C 
ATOM     37  C   UNL     1      -2.238   0.313   0.392  0.00  0.00    +0.012 C 
ATOM     38  C   UNL     1      -3.354  -0.538  -0.218  0.00  0.00    +0.009 C 
ENDBRANCH  27  37
ENDBRANCH  23  27
ENDBRANCH   1  24
TORSDOF 6
