REMARK  Name = ZINC08845572
REMARK  13 active torsions:
REMARK  status: ('A' for Active; 'I' for Inactive)
REMARK    1  A    between atoms: C_1  and  C_2
REMARK    2  A    between atoms: C_2  and  O_3
REMARK    3  A    between atoms: O_3  and  C_4
REMARK    4  A    between atoms: C_4  and  C_5
REMARK    5  A    between atoms: C_5  and  C_6
REMARK    6  A    between atoms: C_6  and  N_7
REMARK    7  A    between atoms: C_8  and  C_10
REMARK    8  A    between atoms: C_14  and  N_15
REMARK    9  A    between atoms: C_16  and  C_18
REMARK   10  A    between atoms: C_20  and  C_24
REMARK   11  A    between atoms: C_26  and  C_32
REMARK   12  A    between atoms: C_28  and  C_31
REMARK   13  A    between atoms: C_29  and  O_30
REMARK                            x       y       z     vdW  Elec       q    Type
REMARK                         _______ _______ _______ _____ _____    ______ ____
ROOT
ATOM      1  N   UNL     1       7.284  -3.625  -0.081  0.00  0.00    -0.274 N 
ATOM      2  C   UNL     1       5.936  -3.589  -0.070  0.00  0.00    +0.266 C 
ATOM      3  O   UNL     1       5.300  -4.625  -0.069  0.00  0.00    -0.268 OA
ATOM      4  H   UNL     1       7.791  -2.798  -0.082  0.00  0.00    +0.156 HD
ENDROOT
BRANCH   1   9
ATOM      5  C   UNL     1       9.311  -5.083  -0.111  0.00  0.00    +0.069 A 
ATOM      6  C   UNL     1       9.749  -6.468  -0.116  0.00  0.00    -0.023 A 
ATOM      7  C   UNL     1       8.757  -7.386  -0.112  0.00  0.00    -0.004 A 
ATOM      8  S   UNL     1       7.263  -6.436  -0.094  0.00  0.00    -0.077 S 
ATOM      9  C   UNL     1       7.944  -4.843  -0.092  0.00  0.00    +0.085 A 
ATOM     10  C   UNL     1       8.905  -8.876  -0.121  0.00  0.00    +0.043 C 
ATOM     11  C   UNL     1      10.350  -9.216  -0.514  0.00  0.00    +0.005 C 
ATOM     12  C   UNL     1      11.304  -8.354   0.318  0.00  0.00    +0.005 C 
ATOM     13  C   UNL     1      11.212  -6.895  -0.131  0.00  0.00    +0.037 C 
BRANCH   5  15
ATOM     14  N   UNL     1      10.704  -3.470  -1.294  0.00  0.00    -0.311 N 
ATOM     15  C   UNL     1      10.276  -3.980  -0.121  0.00  0.00    +0.247 C 
ATOM     16  O   UNL     1      10.691  -3.525   0.928  0.00  0.00    -0.270 OA
ATOM     17  H   UNL     1      10.373  -3.833  -2.130  0.00  0.00    +0.149 HD
BRANCH  14  18
ATOM     18  C   UNL     1      11.669  -2.368  -1.304  0.00  0.00    +0.107 C 
BRANCH  18  19
ATOM     19  C   UNL     1      11.986  -1.981  -2.750  0.00  0.00    +0.047 C 
BRANCH  19  20
ATOM     20  C   UNL     1      12.993  -0.830  -2.761  0.00  0.00    +0.161 C 
BRANCH  20  21
ATOM     21  O   UNL     1      13.289  -0.469  -4.112  0.00  0.00    -0.380 OA
BRANCH  21  23
ATOM     22  C   UNL     1      14.466   0.903  -5.716  0.00  0.00    +0.034 C 
ATOM     23  C   UNL     1      14.226   0.603  -4.235  0.00  0.00    +0.156 C 
ENDBRANCH  21  23
ENDBRANCH  20  21
ENDBRANCH  19  20
ENDBRANCH  18  19
ENDBRANCH  14  18
ENDBRANCH   5  15
ENDBRANCH   1   9
BRANCH   2  24
ATOM     24  C   UNL     1       5.236  -2.295  -0.058  0.00  0.00    +0.121 A 
ATOM     25  C   UNL     1       3.868  -2.095  -0.039  0.00  0.00    +0.062 A 
ATOM     26  C   UNL     1       3.697  -0.699  -0.036  0.00  0.00    +0.097 A 
ATOM     27  N   UNL     1       4.895  -0.152  -0.044  0.00  0.00    -0.173 NA
ATOM     28  N   UNL     1       5.808  -1.054  -0.057  0.00  0.00    -0.272 N 
ATOM     29  H   UNL     1       6.792  -0.875  -0.065  0.00  0.00    +0.189 HD
BRANCH  26  30
ATOM     30  C   UNL     1       2.402   0.026  -0.021  0.00  0.00    +0.044 A 
ATOM     31  C   UNL     1       1.204  -0.683  -0.013  0.00  0.00    +0.017 A 
ATOM     32  C   UNL     1       0.002  -0.004   0.002  0.00  0.00    -0.049 A 
ATOM     33  C   UNL     1      -0.017   1.379   0.010  0.00  0.00    +0.010 A 
ATOM     34  C   UNL     1       1.167   2.093   0.002  0.00  0.00    -0.008 A 
ATOM     35  C   UNL     1       2.380   1.424  -0.013  0.00  0.00    +0.129 A 
ATOM     36  C   UNL     1       1.138   3.599   0.011  0.00  0.00    +0.047 C 
ATOM     37  C   UNL     1      -1.294  -0.773   0.010  0.00  0.00    +0.044 C 
BRANCH  35  38
ATOM     38  O   UNL     1       3.545   2.124  -0.020  0.00  0.00    -0.506 OA
ATOM     39  H   UNL     1       3.873   2.331  -0.906  0.00  0.00    +0.292 HD
ENDBRANCH  35  38
ENDBRANCH  26  30
ENDBRANCH   2  24
TORSDOF 10
