REMARK  Name = ZINC13854257
REMARK  8 active torsions:
REMARK  status: ('A' for Active; 'I' for Inactive)
REMARK    1  A    between atoms: C_1  and  C_2
REMARK    2  A    between atoms: N_4  and  C_5
REMARK    3  A    between atoms: C_8  and  C_11
REMARK    4  A    between atoms: N_13  and  C_14
REMARK    5  A    between atoms: C_14  and  C_15
REMARK    6  A    between atoms: C_15  and  N_16
REMARK    7  A    between atoms: C_17  and  C_19
REMARK    8  A    between atoms: C_22  and  N_26
REMARK                            x       y       z     vdW  Elec       q    Type
REMARK                         _______ _______ _______ _____ _____    ______ ____
ROOT
ATOM      1  C   UNL     1       0.151   9.896   0.519  0.00  0.00    +0.123 C 
ENDROOT
BRANCH   1   4
ATOM      2  C   UNL     1      -1.064   7.786   0.424  0.00  0.00    +0.244 C 
ATOM      3  O   UNL     1      -2.102   8.413   0.519  0.00  0.00    -0.270 OA
ATOM      4  N   UNL     1       0.117   8.435   0.415  0.00  0.00    -0.310 N 
ATOM      5  H   UNL     1       0.945   7.935   0.339  0.00  0.00    +0.149 HD
BRANCH   2   9
ATOM      6  C   UNL     1      -1.162   3.551   0.119  0.00  0.00    +0.033 A 
ATOM      7  C   UNL     1       0.058   4.219   0.115  0.00  0.00    +0.024 A 
ATOM      8  C   UNL     1       0.093   5.592   0.208  0.00  0.00    +0.015 A 
ATOM      9  C   UNL     1      -1.098   6.314   0.318  0.00  0.00    +0.037 A 
ATOM     10  C   UNL     1      -2.322   5.640   0.328  0.00  0.00    +0.015 A 
ATOM     11  C   UNL     1      -2.350   4.267   0.229  0.00  0.00    +0.024 A 
BRANCH   6  15
ATOM     12  C   UNL     1      -0.231   0.010  -0.731  0.00  0.00    +0.109 C 
ATOM     13  C   UNL     1      -0.267   1.516  -0.716  0.00  0.00    +0.214 C 
ATOM     14  O   UNL     1       0.535   2.149  -1.370  0.00  0.00    -0.276 OA
ATOM     15  N   UNL     1      -1.195   2.161   0.019  0.00  0.00    -0.286 N 
ATOM     16  H   UNL     1      -1.884   1.657   0.480  0.00  0.00    +0.155 HD
ENDBRANCH   6  15
ENDBRANCH   2   9
ENDBRANCH   1   4
BRANCH   1  17
ATOM     17  C   UNL     1       1.603  10.376   0.485  0.00  0.00    +0.123 C 
BRANCH  17  18
ATOM     18  N   UNL     1       1.637  11.837   0.590  0.00  0.00    -0.310 N 
ATOM     19  C   UNL     1       2.818  12.486   0.580  0.00  0.00    +0.246 C 
ATOM     20  O   UNL     1       3.855  11.860   0.485  0.00  0.00    -0.270 OA
ATOM     21  H   UNL     1       0.809  12.337   0.666  0.00  0.00    +0.149 HD
BRANCH  19  22
ATOM     22  C   UNL     1       2.852  13.960   0.686  0.00  0.00    +0.055 A 
ATOM     23  C   UNL     1       1.663  14.683   0.796  0.00  0.00    +0.017 A 
ATOM     24  C   UNL     1       1.702  16.058   0.894  0.00  0.00    +0.033 A 
ATOM     25  C   UNL     1       2.916  16.722   0.884  0.00  0.00    +0.128 A 
ATOM     26  C   UNL     1       4.098  16.014   0.776  0.00  0.00    +0.053 A 
ATOM     27  C   UNL     1       4.075  14.636   0.683  0.00  0.00    +0.055 A 
ATOM     28 CL   UNL     1       5.560  13.746   0.555  0.00  0.00    -0.083 Cl
BRANCH  25  29
ATOM     29  N   UNL     1       2.949  18.198   0.991  0.00  0.00    +0.056 N 
ATOM     30  O   UNL     1       1.909  18.825   1.087  0.00  0.00    -0.126 OA
ATOM     31  O   UNL     1       4.016  18.786   0.984  0.00  0.00    -0.126 OA
ENDBRANCH  25  29
ENDBRANCH  19  22
ENDBRANCH  17  18
ENDBRANCH   1  17
TORSDOF 7
