REMARK  Name = ZINC26540771
REMARK  9 active torsions:
REMARK  status: ('A' for Active; 'I' for Inactive)
REMARK    1  A    between atoms: C_1  and  C_2
REMARK    2  A    between atoms: C_2  and  C_3
REMARK    3  A    between atoms: C_3  and  N_4
REMARK    4  A    between atoms: N_4  and  C_5
REMARK    5  A    between atoms: C_8  and  S_22
REMARK    6  A    between atoms: C_10  and  N_11
REMARK    7  A    between atoms: N_11  and  S_12
REMARK    8  A    between atoms: S_12  and  C_15
REMARK    9  A    between atoms: S_22  and  N_25
REMARK                            x       y       z     vdW  Elec       q    Type
REMARK                         _______ _______ _______ _____ _____    ______ ____
ROOT
ATOM      1  C   UNL     1       1.486  -2.571  -2.039  0.00  0.00    +0.050 A 
ATOM      2  C   UNL     1       2.185  -1.782  -2.939  0.00  0.00    +0.027 A 
ATOM      3  C   UNL     1       2.868  -2.369  -3.989  0.00  0.00    +0.030 A 
ATOM      4  C   UNL     1       2.855  -3.742  -4.144  0.00  0.00    +0.107 A 
ATOM      5  C   UNL     1       2.161  -4.537  -3.251  0.00  0.00    +0.054 A 
ATOM      6  C   UNL     1       1.478  -3.958  -2.193  0.00  0.00    +0.071 A 
ENDROOT
BRANCH   4   7
ATOM      7  S   UNL     1       3.728  -4.482  -5.485  0.00  0.00    +0.056 S 
ATOM      8  O   UNL     1       3.111  -5.740  -5.725  0.00  0.00    -0.153 OA
ATOM      9  O   UNL     1       3.845  -3.486  -6.492  0.00  0.00    -0.153 OA
BRANCH   7  10
ATOM     10  N   UNL     1       5.263  -4.801  -4.953  0.00  0.00    -0.204 NA
ATOM     11  H   UNL     1       5.519  -4.576  -4.045  0.00  0.00    +0.144 HD
ATOM     12  H   UNL     1       5.907  -5.214  -5.550  0.00  0.00    +0.144 HD
ENDBRANCH   7  10
ENDBRANCH   4   7
BRANCH   1  13
ATOM     13  N   UNL     1       0.794  -1.979  -0.975  0.00  0.00    -0.342 N 
ATOM     14  H   UNL     1       0.308  -2.533  -0.344  0.00  0.00    +0.146 HD
BRANCH  13  15
ATOM     15  C   UNL     1       0.803  -0.523  -0.816  0.00  0.00    +0.101 C 
BRANCH  15  17
ATOM     16  C   UNL     1      -0.011   1.381   0.582  0.00  0.00    +0.005 C 
ATOM     17  C   UNL     1      -0.021  -0.139   0.415  0.00  0.00    +0.015 C 
ENDBRANCH  15  17
ENDBRANCH  13  15
ENDBRANCH   1  13
BRANCH   6  18
ATOM     18  N   UNL     1       0.778  -4.761  -1.284  0.00  0.00    -0.214 N 
ATOM     19  H   UNL     1      -0.056  -4.447  -0.901  0.00  0.00    +0.174 HD
BRANCH  18  20
ATOM     20  S   UNL     1       1.374  -6.248  -0.865  0.00  0.00    +0.072 S 
ATOM     21  O   UNL     1       0.523  -6.753   0.156  0.00  0.00    -0.150 OA
ATOM     22  O   UNL     1       1.606  -6.950  -2.078  0.00  0.00    -0.150 OA
BRANCH  20  23
ATOM     23  C   UNL     1       2.951  -5.987  -0.124  0.00  0.00    +0.109 A 
ATOM     24  C   UNL     1       4.089  -5.974  -0.908  0.00  0.00    +0.030 A 
ATOM     25  C   UNL     1       5.326  -5.769  -0.327  0.00  0.00    +0.017 A 
ATOM     26  C   UNL     1       5.426  -5.577   1.039  0.00  0.00    +0.018 A 
ATOM     27  C   UNL     1       4.286  -5.590   1.824  0.00  0.00    +0.017 A 
ATOM     28  C   UNL     1       3.049  -5.790   1.241  0.00  0.00    +0.030 A 
ATOM     29 BR   UNL     1       7.118  -5.297   1.835  0.00  0.00    -0.050 Br
ENDBRANCH  20  23
ENDBRANCH  18  20
ENDBRANCH   6  18
TORSDOF 8
