REMARK  Name = ZINC24215686
REMARK  11 active torsions:
REMARK  status: ('A' for Active; 'I' for Inactive)
REMARK    1  A    between atoms: C_1  and  C_2
REMARK    2  A    between atoms: C_3  and  C_14
REMARK    3  A    between atoms: C_4  and  C_13
REMARK    4  A    between atoms: N_5  and  C_7
REMARK    5  A    between atoms: N_21  and  C_22
REMARK    6  A    between atoms: C_22  and  C_23
REMARK    7  A    between atoms: N_25  and  C_26
REMARK    8  A    between atoms: C_28  and  C_31
REMARK    9  A    between atoms: C_31  and  C_32
REMARK   10  A    between atoms: C_31  and  C_33
REMARK   11  A    between atoms: C_31  and  C_34
REMARK                            x       y       z     vdW  Elec       q    Type
REMARK                         _______ _______ _______ _____ _____    ______ ____
ROOT
ATOM      1  C   UNL     1       0.915   2.279   0.150  0.00  0.00    +0.054 C 
ATOM      2  C   UNL     1      -0.429   1.615   0.258  0.00  0.00    +0.204 C 
ATOM      3  O   UNL     1      -0.472   0.418   0.444  0.00  0.00    -0.277 OA
ATOM      4  N   UNL     1      -1.579   2.290   0.153  0.00  0.00    -0.318 N 
ATOM      5  C   UNL     1      -1.636   3.726  -0.101  0.00  0.00    +0.085 C 
ATOM      6  C   UNL     1      -0.284   4.370   0.212  0.00  0.00    -0.058 C 
ATOM      7  N   UNL     1       0.773   3.604  -0.468  0.00  0.00    +0.397 N 
ATOM      8  H   UNL     1      -2.509   1.713   0.266  0.00  0.00    +0.149 HD
ATOM      9  H   UNL     1       0.485   3.467  -1.521  0.00  0.00    -0.079 HD
ENDROOT
BRANCH   1  12
ATOM     10  C   UNL     1       0.797   1.989  -3.003  0.00  0.00    +0.068 C 
ATOM     11  C   UNL     1       1.775   1.299  -2.088  0.00  0.00    +0.063 A 
ATOM     12  C   UNL     1       1.827   1.428  -0.696  0.00  0.00    -0.009 A 
ATOM     13  C   UNL     1       2.843   0.657  -0.244  0.00  0.00    +0.044 A 
ATOM     14  N   UNL     1       3.410   0.055  -1.313  0.00  0.00    -0.237 N 
ATOM     15  N   UNL     1       2.724   0.477  -2.459  0.00  0.00    -0.171 NA
ATOM     16  C   UNL     1       3.265   0.496   1.194  0.00  0.00    +0.066 C 
BRANCH  14  17
ATOM     17  C   UNL     1       4.497  -0.831  -1.282  0.00  0.00    +0.066 A 
ATOM     18  C   UNL     1       5.499  -0.735  -2.237  0.00  0.00    +0.028 A 
ATOM     19  C   UNL     1       6.571  -1.606  -2.201  0.00  0.00    +0.002 A 
ATOM     20  C   UNL     1       6.640  -2.579  -1.220  0.00  0.00    +0.000 A 
ATOM     21  C   UNL     1       5.640  -2.679  -0.270  0.00  0.00    +0.002 A 
ATOM     22  C   UNL     1       4.569  -1.808  -0.299  0.00  0.00    +0.028 A 
ENDBRANCH  14  17
ENDBRANCH   1  12
BRANCH   7  23
ATOM     23  C   UNL     1       2.047   4.334  -0.448  0.00  0.00    +0.021 C 
BRANCH  23  24
ATOM     24  C   UNL     1       2.438   4.624   0.978  0.00  0.00    +0.203 C 
ATOM     25  O   UNL     1       1.783   4.168   1.891  0.00  0.00    -0.277 OA
ATOM     26  N   UNL     1       3.517   5.389   1.238  0.00  0.00    -0.256 N 
ATOM     27  H   UNL     1       4.111   5.803   0.410  0.00  0.00    +0.158 HD
BRANCH  26  28
ATOM     28  C   UNL     1       3.876   5.657   2.551  0.00  0.00    +0.224 A 
ATOM     29  C   UNL     1       4.937   6.405   2.974  0.00  0.00    +0.092 A 
ATOM     30  C   UNL     1       4.845   6.360   4.380  0.00  0.00    +0.091 A 
ATOM     31  N   UNL     1       3.805   5.625   4.660  0.00  0.00    -0.081 NA
ATOM     32  O   UNL     1       3.255   5.226   3.661  0.00  0.00    -0.339 OA
BRANCH  30  33
ATOM     33  C   UNL     1       5.771   7.025   5.365  0.00  0.00    +0.008 C 
ATOM     34  C   UNL     1       5.480   8.526   5.406  0.00  0.00    +0.017 C 
ATOM     35  C   UNL     1       5.552   6.425   6.756  0.00  0.00    +0.017 C 
ATOM     36  C   UNL     1       7.222   6.798   4.935  0.00  0.00    +0.017 C 
ENDBRANCH  30  33
ENDBRANCH  26  28
ENDBRANCH  23  24
ENDBRANCH   7  23
TORSDOF 6
