REMARK  Name = ZINC36637298
REMARK  16 active torsions:
REMARK  status: ('A' for Active; 'I' for Inactive)
REMARK    1  A    between atoms: C_1  and  C_2
REMARK    2  A    between atoms: C_2  and  C_3
REMARK    3  A    between atoms: C_3  and  C_4
REMARK    4  A    between atoms: C_4  and  N_5
REMARK    5  A    between atoms: N_5  and  C_6
REMARK    6  A    between atoms: N_5  and  S_8
REMARK    7  A    between atoms: C_6  and  C_7
REMARK    8  A    between atoms: S_8  and  C_11
REMARK    9  A    between atoms: C_14  and  C_17
REMARK   10  A    between atoms: N_19  and  C_20
REMARK   11  A    between atoms: C_20  and  C_21
REMARK   12  A    between atoms: C_21  and  N_22
REMARK   13  A    between atoms: N_22  and  C_23
REMARK   14  A    between atoms: N_22  and  C_24
REMARK   15  A    between atoms: C_30  and  O_34
REMARK   16  A    between atoms: O_34  and  C_35
REMARK                            x       y       z     vdW  Elec       q    Type
REMARK                         _______ _______ _______ _____ _____    ______ ____
ROOT
ATOM      1  C   UNL     1      -6.143   1.872   3.518  0.00  0.00    +0.252 C 
ATOM      2  O   UNL     1      -5.583   2.574   4.338  0.00  0.00    -0.270 OA
ATOM      3  N   UNL     1      -7.410   2.146   3.149  0.00  0.00    -0.248 N 
ATOM      4  C   UNL     1      -8.027   3.302   3.597  0.00  0.00    +0.168 A 
ATOM      5  N   UNL     1      -9.242   3.734   3.354  0.00  0.00    -0.224 NA
ATOM      6  C   UNL     1      -9.717   4.892   3.863  0.00  0.00    +0.081 A 
ATOM      7  C   UNL     1     -10.996   5.466   3.680  0.00  0.00    +0.032 A 
ATOM      8  C   UNL     1     -11.322   6.658   4.271  0.00  0.00    +0.048 A 
ATOM      9  C   UNL     1     -10.413   7.345   5.069  0.00  0.00    +0.121 A 
ATOM     10  C   UNL     1      -9.149   6.810   5.270  0.00  0.00    +0.063 A 
ATOM     11  C   UNL     1      -8.818   5.616   4.680  0.00  0.00    +0.044 A 
ATOM     12  S   UNL     1      -7.373   4.582   4.660  0.00  0.00    -0.052 S 
ENDROOT
BRANCH   1  16
ATOM     13  C   UNL     1      -4.106  -1.444   1.818  0.00  0.00    +0.106 A 
ATOM     14  C   UNL     1      -3.398  -0.310   2.174  0.00  0.00    +0.029 A 
ATOM     15  C   UNL     1      -4.054   0.771   2.727  0.00  0.00    +0.015 A 
ATOM     16  C   UNL     1      -5.434   0.718   2.926  0.00  0.00    +0.037 A 
ATOM     17  C   UNL     1      -6.143  -0.429   2.564  0.00  0.00    +0.015 A 
ATOM     18  C   UNL     1      -5.475  -1.501   2.007  0.00  0.00    +0.029 A 
BRANCH  13  19
ATOM     19  S   UNL     1      -3.261  -2.820   1.113  0.00  0.00    +0.061 S 
ATOM     20  O   UNL     1      -4.066  -3.964   1.365  0.00  0.00    -0.153 OA
ATOM     21  O   UNL     1      -1.909  -2.731   1.543  0.00  0.00    -0.153 OA
BRANCH  19  22
ATOM     22  N   UNL     1      -3.251  -2.601  -0.528  0.00  0.00    -0.177 NA
BRANCH  22  23
ATOM     23  C   UNL     1      -4.345  -3.132  -1.345  0.00  0.00    +0.106 C 
ATOM     24  C   UNL     1      -3.952  -4.505  -1.894  0.00  0.00    +0.022 C 
ENDBRANCH  22  23
BRANCH  22  25
ATOM     25  C   UNL     1      -2.148  -1.875  -1.163  0.00  0.00    +0.109 C 
BRANCH  25  26
ATOM     26  C   UNL     1      -2.537  -0.406  -1.336  0.00  0.00    +0.017 C 
BRANCH  26  28
ATOM     27  C   UNL     1      -1.774   1.822  -2.172  0.00  0.00    +0.004 C 
ATOM     28  C   UNL     1      -1.385   0.352  -2.000  0.00  0.00    -0.002 C 
ENDBRANCH  26  28
ENDBRANCH  25  26
ENDBRANCH  22  25
ENDBRANCH  19  22
ENDBRANCH  13  19
ENDBRANCH   1  16
BRANCH   9  29
ATOM     29  O   UNL     1     -10.759   8.527   5.646  0.00  0.00    -0.495 OA
ATOM     30  C   UNL     1     -12.079   9.012   5.390  0.00  0.00    +0.277 C 
ENDBRANCH   9  29
BRANCH   3  31
ATOM     31  C   UNL     1      -8.135   1.221   2.274  0.00  0.00    +0.097 C 
BRANCH  31  32
ATOM     32  C   UNL     1      -9.125   0.403   3.105  0.00  0.00    -0.060 C 
BRANCH  32  33
ATOM     33  N   UNL     1      -9.940  -0.433   2.213  0.00  0.00    +0.377 N 
ATOM     34  C   UNL     1      -9.081  -1.424   1.551  0.00  0.00    -0.097 C 
ATOM     35  C   UNL     1     -10.971  -1.125   2.997  0.00  0.00    -0.097 C 
ATOM     36  H   UNL     1     -10.380   0.149   1.517  0.00  0.00    -0.083 HD
ENDBRANCH  32  33
ENDBRANCH  31  32
ENDBRANCH   3  31
TORSDOF 11
