REMARK  Name = ZINC62977214
REMARK  12 active torsions:
REMARK  status: ('A' for Active; 'I' for Inactive)
REMARK    1  A    between atoms: C_1  and  C_2
REMARK    2  A    between atoms: C_2  and  N_3
REMARK    3  A    between atoms: N_3  and  C_4
REMARK    4  A    between atoms: N_3  and  C_6
REMARK    5  A    between atoms: C_4  and  C_5
REMARK    6  A    between atoms: C_9  and  C_12
REMARK    7  A    between atoms: C_17  and  C_38
REMARK    8  A    between atoms: C_19  and  O_37
REMARK    9  A    between atoms: C_20  and  C_23
REMARK   10  A    between atoms: C_23  and  N_24
REMARK   11  A    between atoms: N_27  and  C_30
REMARK   12  A    between atoms: C_30  and  C_31
REMARK                            x       y       z     vdW  Elec       q    Type
REMARK                         _______ _______ _______ _____ _____    ______ ____
ROOT
ATOM      1  C   UNL     1      -1.185  -6.316   0.148  0.00  0.00    +0.058 C 
ATOM      2  C   UNL     1      -1.894  -7.023   1.064  0.00  0.00    +0.176 C 
ATOM      3  C   UNL     1      -1.843  -8.479   1.268  0.00  0.00    +0.232 C 
ATOM      4  O   UNL     1      -1.169  -9.295   0.663  0.00  0.00    -0.283 OA
ATOM      5  C   UNL     1      -2.791  -8.731   2.369  0.00  0.00    +0.071 A 
ATOM      6  C   UNL     1      -3.199  -9.890   3.031  0.00  0.00    -0.033 A 
ATOM      7  C   UNL     1      -4.117  -9.811   4.039  0.00  0.00    +0.050 A 
ATOM      8  C   UNL     1      -4.646  -8.576   4.408  0.00  0.00    +0.122 A 
ATOM      9  C   UNL     1      -4.250  -7.418   3.760  0.00  0.00    +0.020 A 
ATOM     10  C   UNL     1      -3.317  -7.481   2.732  0.00  0.00    +0.145 A 
ATOM     11  O   UNL     1      -2.773  -6.515   1.960  0.00  0.00    -0.451 OA
ATOM     12  C   UNL     1      -2.628 -11.227   2.633  0.00  0.00    +0.045 C 
ENDROOT
BRANCH   1  16
ATOM     13  C   UNL     1      -1.276  -2.078   0.207  0.00  0.00    +0.013 A 
ATOM     14  C   UNL     1      -1.890  -2.793   1.220  0.00  0.00    +0.022 A 
ATOM     15  C   UNL     1      -1.865  -4.172   1.209  0.00  0.00    +0.010 A 
ATOM     16  C   UNL     1      -1.217  -4.847   0.169  0.00  0.00    -0.021 A 
ATOM     17  C   UNL     1      -0.598  -4.116  -0.852  0.00  0.00    +0.010 A 
ATOM     18  C   UNL     1      -0.637  -2.738  -0.828  0.00  0.00    +0.022 A 
BRANCH  13  19
ATOM     19  N   UNL     1      -1.306  -0.680   0.226  0.00  0.00    -0.394 NA
ATOM     20  H   UNL     1      -0.819  -0.322  -0.581  0.00  0.00    +0.126 HD
BRANCH  19  22
ATOM     21  C   UNL     1      -3.343  -0.613  -1.131  0.00  0.00    +0.022 C 
ATOM     22  C   UNL     1      -2.700  -0.220   0.201  0.00  0.00    +0.081 C 
ENDBRANCH  19  22
BRANCH  19  23
ATOM     23  C   UNL     1      -0.651  -0.193   1.448  0.00  0.00    +0.081 C 
ATOM     24  C   UNL     1       0.831  -0.572   1.419  0.00  0.00    +0.022 C 
ENDBRANCH  19  23
ENDBRANCH  13  19
ENDBRANCH   1  16
BRANCH   8  25
ATOM     25  O   UNL     1      -5.558  -8.508   5.411  0.00  0.00    -0.506 OA
ATOM     26  H   UNL     1      -5.170  -8.384   6.287  0.00  0.00    +0.292 HD
ENDBRANCH   8  25
BRANCH   9  27
ATOM     27  C   UNL     1      -4.831  -6.089   4.169  0.00  0.00    -0.035 C 
BRANCH  27  28
ATOM     28  N   UNL     1      -3.997  -5.493   5.221  0.00  0.00    +0.384 N 
ATOM     29  C   UNL     1      -4.055  -6.332   6.425  0.00  0.00    -0.063 C 
ATOM     30  C   UNL     1      -3.171  -5.721   7.515  0.00  0.00    +0.066 C 
ATOM     31  N   UNL     1      -3.643  -4.363   7.820  0.00  0.00    -0.302 NA
ATOM     32  C   UNL     1      -3.615  -3.518   6.618  0.00  0.00    +0.066 C 
ATOM     33  C   UNL     1      -4.494  -4.147   5.535  0.00  0.00    -0.063 C 
ATOM     34  H   UNL     1      -3.043  -5.432   4.899  0.00  0.00    -0.081 HD
BRANCH  31  35
ATOM     35  C   UNL     1      -2.854  -3.763   8.904  0.00  0.00    +0.119 C 
BRANCH  35  36
ATOM     36  C   UNL     1      -3.511  -2.484   9.355  0.00  0.00    -0.033 A 
ATOM     37  C   UNL     1      -3.177  -1.285   8.753  0.00  0.00    +0.005 A 
ATOM     38  C   UNL     1      -3.780  -0.112   9.167  0.00  0.00    +0.000 A 
ATOM     39  C   UNL     1      -4.717  -0.138  10.183  0.00  0.00    +0.000 A 
ATOM     40  C   UNL     1      -5.052  -1.337  10.784  0.00  0.00    +0.000 A 
ATOM     41  C   UNL     1      -4.452  -2.510  10.367  0.00  0.00    +0.005 A 
ENDBRANCH  35  36
ENDBRANCH  31  35
ENDBRANCH  27  28
ENDBRANCH   9  27
TORSDOF 9
