REMARK  Name = ZINC01280382
REMARK  11 active torsions:
REMARK  status: ('A' for Active; 'I' for Inactive)
REMARK    1  A    between atoms: C_1  and  C_2
REMARK    2  A    between atoms: C_2  and  O_3
REMARK    3  A    between atoms: O_3  and  C_4
REMARK    4  A    between atoms: C_4  and  C_6
REMARK    5  A    between atoms: C_7  and  C_36
REMARK    6  A    between atoms: C_17  and  O_34
REMARK    7  A    between atoms: C_20  and  N_33
REMARK    8  A    between atoms: C_22  and  O_29
REMARK    9  A    between atoms: O_29  and  C_30
REMARK   10  A    between atoms: C_30  and  C_32
REMARK   11  A    between atoms: O_34  and  C_35
REMARK                            x       y       z     vdW  Elec       q    Type
REMARK                         _______ _______ _______ _____ _____    ______ ____
ROOT
ATOM      1  C   UNL     1       6.553   4.500  -0.091  0.00  0.00    +0.106 A 
ATOM      2  C   UNL     1       7.883   4.405  -0.534  0.00  0.00    +0.055 A 
ATOM      3  N   UNL     1       8.485   3.279  -0.878  0.00  0.00    -0.250 NA
ATOM      4  C   UNL     1       7.836   2.117  -0.816  0.00  0.00    +0.081 A 
ATOM      5  C   UNL     1       6.598   2.180  -0.252  0.00  0.00    +0.057 A 
ATOM      6  C   UNL     1       5.827   3.286   0.008  0.00  0.00    +0.090 A 
ATOM      7  N   UNL     1       4.529   3.099   0.294  0.00  0.00    -0.245 NA
ATOM      8  C   UNL     1       3.930   1.917   0.246  0.00  0.00    +0.082 C 
ATOM      9  C   UNL     1       2.483   1.577   0.302  0.00  0.00    +0.010 A 
ATOM     10  C   UNL     1       1.339   2.339   0.473  0.00  0.00    +0.014 A 
ATOM     11  C   UNL     1       0.095   1.728   0.463  0.00  0.00    +0.046 A 
ATOM     12  C   UNL     1      -0.010   0.358   0.283  0.00  0.00    +0.121 A 
ATOM     13  C   UNL     1       1.135  -0.418   0.115  0.00  0.00    +0.056 A 
ATOM     14  C   UNL     1       2.383   0.185   0.127  0.00  0.00    +0.009 A 
ATOM     15  C   UNL     1       3.760  -0.341  -0.011  0.00  0.00    +0.042 C 
ATOM     16  C   UNL     1       4.636   0.681   0.084  0.00  0.00    +0.052 C 
ATOM     17  C   UNL     1       6.133   0.791   0.094  0.00  0.00    +0.197 C 
ATOM     18  C   UNL     1       6.901  -0.064  -0.855  0.00  0.00    +0.014 A 
ATOM     19  C   UNL     1       7.967   0.733  -1.335  0.00  0.00    +0.008 A 
ATOM     20  C   UNL     1       8.917   0.149  -2.172  0.00  0.00    +0.010 A 
ATOM     21  C   UNL     1       8.785  -1.161  -2.575  0.00  0.00    +0.001 A 
ATOM     22  C   UNL     1       7.704  -1.913  -2.152  0.00  0.00    +0.000 A 
ATOM     23  C   UNL     1       6.769  -1.360  -1.297  0.00  0.00    +0.009 A 
ATOM     24  C   UNL     1       8.682   5.680  -0.622  0.00  0.00    +0.066 C 
ENDROOT
BRANCH  15  25
ATOM     25  N   UNL     1       4.095  -1.664  -0.205  0.00  0.00    -0.357 N 
ATOM     26  H   UNL     1       5.151  -1.957  -0.296  0.00  0.00    +0.142 HD
ATOM     27  H   UNL     1       3.305  -2.427  -0.270  0.00  0.00    +0.142 HD
ENDBRANCH  15  25
BRANCH   1  28
ATOM     28  C   UNL     1       5.943   5.795   0.252  0.00  0.00    +0.343 C 
ATOM     29  O   UNL     1       6.014   6.218   1.389  0.00  0.00    -0.245 OA
BRANCH  28  30
ATOM     30  O   UNL     1       5.306   6.512  -0.695  0.00  0.00    -0.461 OA
BRANCH  30  32
ATOM     31  C   UNL     1       4.052   8.444  -1.486  0.00  0.00    +0.048 C 
ATOM     32  C   UNL     1       4.728   7.779  -0.285  0.00  0.00    +0.229 C 
ENDBRANCH  30  32
ENDBRANCH  28  30
ENDBRANCH   1  28
BRANCH  12  33
ATOM     33  O   UNL     1      -1.234  -0.231   0.271  0.00  0.00    -0.495 OA
ATOM     34  C   UNL     1      -2.366   0.623   0.449  0.00  0.00    +0.277 C 
ENDBRANCH  12  33
BRANCH  17  35
ATOM     35  O   UNL     1       6.591   0.490   1.439  0.00  0.00    -0.443 OA
BRANCH  35  36
ATOM     36  C   UNL     1       6.402  -0.763   1.881  0.00  0.00    +0.305 C 
ATOM     37  O   UNL     1       5.964  -1.607   1.135  0.00  0.00    -0.251 OA
ATOM     38  C   UNL     1       6.734  -1.117   3.308  0.00  0.00    +0.136 C 
ENDBRANCH  35  36
ENDBRANCH  17  35
TORSDOF 7
