REMARK  Name = ZINC15221711
REMARK  5 active torsions:
REMARK  status: ('A' for Active; 'I' for Inactive)
REMARK    1  A    between atoms: C_1  and  C_2
REMARK    2  A    between atoms: C_4  and  C_31
REMARK    3  A    between atoms: N_13  and  N_14
REMARK    4  A    between atoms: C_15  and  C_16
REMARK    5  A    between atoms: N_24  and  C_25
REMARK                            x       y       z     vdW  Elec       q    Type
REMARK                         _______ _______ _______ _____ _____    ______ ____
ROOT
ATOM      1  C   UNL     1       2.493   1.299   0.018  0.00  0.00    +0.067 C 
ATOM      2  C   UNL     1       2.343  -0.201   0.033  0.00  0.00    +0.061 A 
ATOM      3  C   UNL     1       2.587  -1.059  -1.046  0.00  0.00    +0.048 A 
ATOM      4  C   UNL     1       2.340  -2.324  -0.637  0.00  0.00    +0.045 A 
ATOM      5  N   UNL     1       1.951  -2.267   0.665  0.00  0.00    -0.202 N 
ATOM      6  N   UNL     1       1.969  -0.922   1.058  0.00  0.00    -0.169 NA
ATOM      7  C   UNL     1       1.603  -3.351   1.466  0.00  0.00    +0.257 A 
ATOM      8  N   UNL     1       1.234  -3.154   2.726  0.00  0.00    -0.177 NA
ATOM      9  C   UNL     1       0.901  -4.189   3.492  0.00  0.00    +0.226 A 
ATOM     10  N   UNL     1       0.938  -5.421   2.995  0.00  0.00    -0.179 NA
ATOM     11  C   UNL     1       1.306  -5.618   1.734  0.00  0.00    +0.239 A 
ATOM     12  N   UNL     1       1.634  -4.581   0.968  0.00  0.00    -0.176 NA
ATOM     13  N   UNL     1       1.345  -6.897   1.217  0.00  0.00    -0.228 N 
ATOM     14  N   UNL     1       0.519  -3.983   4.803  0.00  0.00    -0.283 N 
ATOM     15  C   UNL     1       2.471  -3.571  -1.472  0.00  0.00    +0.066 C 
ATOM     16  H   UNL     1       1.810  -7.070   0.384  0.00  0.00    +0.175 HD
ATOM     17  H   UNL     1       0.198  -4.726   5.337  0.00  0.00    +0.155 HD
ENDROOT
BRANCH  14  18
ATOM     18  C   UNL     1       0.593  -2.703   5.361  0.00  0.00    +0.034 A 
ATOM     19  C   UNL     1       0.337  -1.586   4.575  0.00  0.00    +0.023 A 
ATOM     20  C   UNL     1       0.410  -0.323   5.129  0.00  0.00    +0.002 A 
ATOM     21  C   UNL     1       0.738  -0.169   6.464  0.00  0.00    +0.000 A 
ATOM     22  C   UNL     1       0.994  -1.279   7.248  0.00  0.00    +0.002 A 
ATOM     23  C   UNL     1       0.916  -2.545   6.702  0.00  0.00    +0.023 A 
ENDBRANCH  14  18
BRANCH  13  24
ATOM     24  N   UNL     1       0.712  -7.946   1.897  0.00  0.00    -0.311 N 
ATOM     25  C   UNL     1       0.826  -9.203   1.444  0.00  0.00    +0.111 C 
ATOM     26  H   UNL     1       0.191  -7.763   2.695  0.00  0.00    +0.184 HD
BRANCH  25  27
ATOM     27  C   UNL     1       0.271 -10.260   2.171  0.00  0.00    +0.040 A 
ATOM     28  C   UNL     1       0.480 -11.599   1.771  0.00  0.00    +0.028 A 
ATOM     29  C   UNL     1      -0.068 -12.614   2.491  0.00  0.00    +0.019 A 
ATOM     30  C   UNL     1      -0.839 -12.367   3.625  0.00  0.00    +0.019 A 
ATOM     31  C   UNL     1      -1.077 -11.101   4.063  0.00  0.00    +0.052 A 
ATOM     32  C   UNL     1      -0.536 -10.004   3.370  0.00  0.00    +0.188 A 
ATOM     33  O   UNL     1      -0.737  -8.861   3.755  0.00  0.00    -0.287 OA
ATOM     34 BR   UNL     1       0.222 -14.399   1.941  0.00  0.00    -0.050 Br
ENDBRANCH  25  27
ENDBRANCH  13  24
TORSDOF 3
