REMARK  Name = ZINC11996484
REMARK  8 active torsions:
REMARK  status: ('A' for Active; 'I' for Inactive)
REMARK    1  A    between atoms: C_1  and  C_2
REMARK    2  A    between atoms: C_7  and  C_8
REMARK    3  A    between atoms: C_11  and  C_14
REMARK    4  A    between atoms: C_14  and  N_63
REMARK    5  A    between atoms: C_20  and  C_24
REMARK    6  A    between atoms: C_24  and  C_26
REMARK    7  A    between atoms: C_24  and  N_27
REMARK    8  A    between atoms: C_28  and  C_30
REMARK                            x       y       z     vdW  Elec       q    Type
REMARK                         _______ _______ _______ _____ _____    ______ ____
ROOT
ATOM      1  C   UNL     1       4.684  -1.264   2.460  0.00  0.00    -0.071 C 
ATOM      2  C   UNL     1       3.478  -1.998   3.056  0.00  0.00    +0.058 C 
ATOM      3  C   UNL     1       2.216  -1.350   2.550  0.00  0.00    +0.132 A 
ATOM      4  N   UNL     1       1.161  -1.020   3.236  0.00  0.00    -0.134 NA
ATOM      5  N   UNL     1       0.276  -0.513   2.449  0.00  0.00    -0.132 NA
ATOM      6  C   UNL     1       0.731  -0.503   1.223  0.00  0.00    +0.154 A 
ATOM      7  N   UNL     1       1.978  -1.019   1.257  0.00  0.00    -0.315 N 
ATOM      8  C   UNL     1       2.911  -1.182   0.142  0.00  0.00    +0.106 C 
ATOM      9  C   UNL     1       3.857  -2.347   0.444  0.00  0.00    -0.056 C 
ATOM     10  N   UNL     1       5.061  -1.885   1.172  0.00  0.00    +0.384 N 
ATOM     11  H   UNL     1       5.665  -2.694   1.360  0.00  0.00    -0.081 HD
ENDROOT
BRANCH   6  12
ATOM     12  C   UNL     1       0.002  -0.004   0.002  0.00  0.00    +0.138 C 
ATOM     13  C   UNL     1      -0.019   1.526   0.010  0.00  0.00    +0.036 C 
BRANCH  12  14
ATOM     14  N   UNL     1      -1.372  -0.511   0.012  0.00  0.00    -0.299 N 
ATOM     15  C   UNL     1      -2.051  -0.643  -1.145  0.00  0.00    +0.280 C 
ATOM     16  O   UNL     1      -1.522  -0.340  -2.198  0.00  0.00    -0.267 OA
ATOM     17  H   UNL     1      -1.794  -0.752   0.852  0.00  0.00    +0.150 HD
BRANCH  15  18
ATOM     18  C   UNL     1      -3.427  -1.150  -1.134  0.00  0.00    +0.189 A 
ATOM     19  C   UNL     1      -4.223  -1.332  -2.228  0.00  0.00    +0.054 A 
ATOM     20  C   UNL     1      -5.448  -1.832  -1.758  0.00  0.00    +0.042 A 
ATOM     21  C   UNL     1      -5.346  -1.932  -0.414  0.00  0.00    +0.196 A 
ATOM     22  O   UNL     1      -4.125  -1.525  -0.043  0.00  0.00    -0.458 OA
ENDBRANCH  15  18
ENDBRANCH  12  14
ENDBRANCH   6  12
BRANCH  10  23
ATOM     23  C   UNL     1       5.805  -0.916   0.347  0.00  0.00    -0.043 C 
BRANCH  23  27
ATOM     24  C   UNL     1       9.592  -0.180   2.191  0.00  0.00    -0.018 A 
ATOM     25  C   UNL     1       9.449  -1.224   1.279  0.00  0.00    +0.009 A 
ATOM     26  C   UNL     1       8.225  -1.457   0.686  0.00  0.00    +0.002 A 
ATOM     27  C   UNL     1       7.140  -0.657   0.997  0.00  0.00    -0.064 A 
ATOM     28  C   UNL     1       7.277   0.384   1.899  0.00  0.00    +0.002 A 
ATOM     29  C   UNL     1       8.495   0.622   2.501  0.00  0.00    +0.009 A 
BRANCH  24  36
ATOM     30  C   UNL     1      10.697   2.493   2.181  0.00  0.00    +0.044 C 
ATOM     31  C   UNL     1      11.446   1.359   2.832  0.00  0.00    -0.043 A 
ATOM     32  C   UNL     1      12.666   1.592   3.434  0.00  0.00    +0.004 A 
ATOM     33  C   UNL     1      13.357   0.551   4.026  0.00  0.00    +0.000 A 
ATOM     34  C   UNL     1      12.829  -0.728   4.024  0.00  0.00    +0.001 A 
ATOM     35  C   UNL     1      11.607  -0.971   3.430  0.00  0.00    +0.009 A 
ATOM     36  C   UNL     1      10.906   0.075   2.832  0.00  0.00    -0.015 A 
ENDBRANCH  24  36
ENDBRANCH  23  27
ENDBRANCH  10  23
TORSDOF 6
