REMARK  Name = ZINC21581781
REMARK  9 active torsions:
REMARK  status: ('A' for Active; 'I' for Inactive)
REMARK    1  A    between atoms: C_1  and  C_2
REMARK    2  A    between atoms: C_2  and  C_3
REMARK    3  A    between atoms: C_3  and  C_27
REMARK    4  A    between atoms: N_6  and  N_10
REMARK    5  A    between atoms: C_11  and  C_13
REMARK    6  A    between atoms: C_13  and  N_14
REMARK    7  A    between atoms: N_14  and  C_15
REMARK    8  A    between atoms: N_14  and  C_16
REMARK    9  A    between atoms: C_16  and  C_17
REMARK                            x       y       z     vdW  Elec       q    Type
REMARK                         _______ _______ _______ _____ _____    ______ ____
ROOT
ATOM      1  N   UNL     1       1.143   1.898   0.001  0.00  0.00    -0.225 N 
ATOM      2  C   UNL     1      -0.014   1.209   0.009  0.00  0.00    +0.213 C 
ATOM      3  O   UNL     1       0.002  -0.004   0.002  0.00  0.00    -0.276 OA
ATOM      4  H   UNL     1       1.129   2.998   0.007  0.00  0.00    +0.173 HD
ENDROOT
BRANCH   1   8
ATOM      5  C   UNL     1       4.356   0.290  -0.650  0.00  0.00    +0.139 C 
ATOM      6  C   UNL     1       3.157   1.103  -1.099  0.00  0.00    +0.268 C 
ATOM      7  O   UNL     1       2.953   1.556  -2.205  0.00  0.00    -0.271 OA
ATOM      8  N   UNL     1       2.366   1.214  -0.014  0.00  0.00    -0.137 N 
ATOM      9  C   UNL     1       2.895   0.597   1.048  0.00  0.00    +0.327 C 
ATOM     10  O   UNL     1       2.368   0.564   2.143  0.00  0.00    -0.251 OA
ATOM     11  N   UNL     1       4.075   0.013   0.769  0.00  0.00    -0.280 N 
ATOM     12  H   UNL     1       4.787  -0.575   1.366  0.00  0.00    +0.152 HD
BRANCH   5  13
ATOM     13  C   UNL     1       5.624   1.092  -0.796  0.00  0.00    -0.015 A 
ATOM     14  C   UNL     1       6.351   1.027  -1.970  0.00  0.00    +0.006 A 
ATOM     15  C   UNL     1       7.512   1.766  -2.105  0.00  0.00    +0.000 A 
ATOM     16  C   UNL     1       7.950   2.562  -1.063  0.00  0.00    +0.000 A 
ATOM     17  C   UNL     1       7.226   2.622   0.113  0.00  0.00    +0.000 A 
ATOM     18  C   UNL     1       6.063   1.887   0.246  0.00  0.00    +0.006 A 
ENDBRANCH   5  13
BRANCH   5  20
ATOM     19  C   UNL     1       3.175  -1.831  -1.238  0.00  0.00    +0.007 C 
ATOM     20  C   UNL     1       4.451  -1.014  -1.445  0.00  0.00    +0.037 C 
ENDBRANCH   5  20
ENDBRANCH   1   8
BRANCH   2  21
ATOM     21  C   UNL     1      -1.330   1.944   0.019  0.00  0.00    +0.020 C 
BRANCH  21  22
ATOM     22  N   UNL     1      -2.433   0.975   0.019  0.00  0.00    +0.386 N 
ATOM     23  C   UNL     1      -2.455   0.202   1.268  0.00  0.00    -0.095 C 
ATOM     24  H   UNL     1      -2.265   0.272  -0.810  0.00  0.00    -0.081 HD
BRANCH  22  25
ATOM     25  C   UNL     1      -3.721   1.643  -0.209  0.00  0.00    -0.043 C 
BRANCH  25  26
ATOM     26  C   UNL     1      -4.789   0.607  -0.447  0.00  0.00    -0.063 A 
ATOM     27  C   UNL     1      -5.506   0.099   0.635  0.00  0.00    +0.002 A 
ATOM     28  C   UNL     1      -6.477  -0.838   0.455  0.00  0.00    +0.009 A 
ATOM     29  C   UNL     1      -6.764  -1.302  -0.841  0.00  0.00    -0.018 A 
ATOM     30  C   UNL     1      -7.759  -2.267  -1.066  0.00  0.00    +0.008 A 
ATOM     31  C   UNL     1      -8.010  -2.692  -2.335  0.00  0.00    +0.001 A 
ATOM     32  C   UNL     1      -7.294  -2.184  -3.417  0.00  0.00    +0.001 A 
ATOM     33  C   UNL     1      -6.323  -1.247  -3.236  0.00  0.00    +0.008 A 
ATOM     34  C   UNL     1      -6.035  -0.784  -1.941  0.00  0.00    -0.018 A 
ATOM     35  C   UNL     1      -5.044   0.186  -1.716  0.00  0.00    +0.010 A 
ENDBRANCH  25  26
ENDBRANCH  22  25
ENDBRANCH  21  22
ENDBRANCH   2  21
TORSDOF 7
