REMARK  Name = ZINC36316130
REMARK  19 active torsions:
REMARK  status: ('A' for Active; 'I' for Inactive)
REMARK    1  A    between atoms: C_1  and  C_2
REMARK    2  A    between atoms: C_2  and  C_3
REMARK    3  A    between atoms: C_2  and  C_4
REMARK    4  A    between atoms: C_2  and  O_5
REMARK    5  A    between atoms: O_5  and  C_6
REMARK    6  A    between atoms: C_6  and  C_7
REMARK    7  A    between atoms: C_7  and  C_9
REMARK    8  A    between atoms: C_7  and  O_37
REMARK    9  A    between atoms: C_9  and  N_10
REMARK   10  A    between atoms: N_10  and  C_11
REMARK   11  A    between atoms: N_10  and  C_15
REMARK   12  A    between atoms: C_11  and  C_12
REMARK   13  A    between atoms: C_12  and  O_13
REMARK   14  A    between atoms: O_13  and  C_14
REMARK   15  A    between atoms: C_15  and  C_16
REMARK   16  A    between atoms: C_17  and  C_31
REMARK   17  A    between atoms: N_19  and  C_30
REMARK   18  A    between atoms: C_20  and  O_21
REMARK   19  A    between atoms: O_21  and  C_22
REMARK                            x       y       z     vdW  Elec       q    Type
REMARK                         _______ _______ _______ _____ _____    ______ ____
ROOT
ATOM      1  C   UNL     1       7.522  -1.127  -2.905  0.00  0.00    +0.025 A 
ATOM      2  C   UNL     1       8.051  -0.648  -1.692  0.00  0.00    +0.098 A 
ATOM      3  N   UNL     1       8.858  -1.566  -1.206  0.00  0.00    -0.168 NA
ATOM      4  N   UNL     1       8.869  -2.653  -2.089  0.00  0.00    -0.235 N 
ATOM      5  C   UNL     1       8.037  -2.364  -3.122  0.00  0.00    +0.221 A 
ATOM      6  C   UNL     1       9.639  -3.889  -1.923  0.00  0.00    +0.176 C 
ENDROOT
BRANCH   2   7
ATOM      7  C   UNL     1       7.750   0.666  -1.069  0.00  0.00    +0.002 A 
ATOM      8  C   UNL     1       7.701   1.816  -1.853  0.00  0.00    +0.010 A 
ATOM      9  C   UNL     1       7.421   3.035  -1.269  0.00  0.00    +0.001 A 
ATOM     10  C   UNL     1       7.189   3.115   0.092  0.00  0.00    +0.000 A 
ATOM     11  C   UNL     1       7.237   1.976   0.875  0.00  0.00    +0.001 A 
ATOM     12  C   UNL     1       7.510   0.751   0.300  0.00  0.00    +0.010 A 
ENDBRANCH   2   7
BRANCH   1  13
ATOM     13  C   UNL     1       6.552  -0.400  -3.800  0.00  0.00    -0.035 C 
BRANCH  13  14
ATOM     14  N   UNL     1       5.184  -0.849  -3.507  0.00  0.00    +0.386 N 
ATOM     15  H   UNL     1       5.134  -1.853  -3.592  0.00  0.00    -0.081 HD
BRANCH  14  16
ATOM     16  C   UNL     1       4.822  -0.454  -2.139  0.00  0.00    -0.044 C 
BRANCH  16  17
ATOM     17  C   UNL     1       3.448  -1.028  -1.789  0.00  0.00    +0.124 C 
BRANCH  17  18
ATOM     18  O   UNL     1       3.520  -2.455  -1.765  0.00  0.00    -0.391 OA
ATOM     19  H   UNL     1       4.148  -2.807  -1.119  0.00  0.00    +0.210 HD
ENDBRANCH  17  18
BRANCH  17  20
ATOM     20  C   UNL     1       3.016  -0.516  -0.414  0.00  0.00    +0.189 C 
BRANCH  20  21
ATOM     21  O   UNL     1       1.685  -0.957  -0.138  0.00  0.00    -0.372 OA
BRANCH  21  23
ATOM     22  C   UNL     1       1.172   0.998   1.186  0.00  0.00    +0.041 C 
ATOM     23  C   UNL     1       1.183  -0.531   1.130  0.00  0.00    +0.061 C 
ATOM     24  C   UNL     1       2.079  -1.076   2.244  0.00  0.00    +0.041 C 
ATOM     25  C   UNL     1      -0.242  -1.058   1.318  0.00  0.00    +0.041 C 
ENDBRANCH  21  23
ENDBRANCH  20  21
ENDBRANCH  17  20
ENDBRANCH  16  17
ENDBRANCH  14  16
BRANCH  14  26
ATOM     26  C   UNL     1       4.251  -0.230  -4.458  0.00  0.00    -0.050 C 
BRANCH  26  27
ATOM     27  C   UNL     1       4.538  -0.752  -5.867  0.00  0.00    +0.141 C 
BRANCH  27  28
ATOM     28  O   UNL     1       4.278  -2.156  -5.916  0.00  0.00    -0.385 OA
ATOM     29  C   UNL     1       4.516  -2.747  -7.195  0.00  0.00    +0.193 C 
ENDBRANCH  27  28
ENDBRANCH  26  27
ENDBRANCH  14  26
ENDBRANCH  13  14
ENDBRANCH   1  13
BRANCH   5  30
ATOM     30  O   UNL     1       7.771  -3.167  -4.184  0.00  0.00    -0.435 OA
BRANCH  30  31
ATOM     31  C   UNL     1       8.626  -3.133  -5.240  0.00  0.00    +0.166 A 
ATOM     32  C   UNL     1       9.782  -2.370  -5.174  0.00  0.00    +0.052 A 
ATOM     33  C   UNL     1      10.650  -2.336  -6.248  0.00  0.00    +0.042 A 
ATOM     34  C   UNL     1      10.368  -3.063  -7.392  0.00  0.00    +0.126 A 
ATOM     35  C   UNL     1       9.215  -3.826  -7.462  0.00  0.00    +0.080 A 
ATOM     36  C   UNL     1       8.346  -3.867  -6.386  0.00  0.00    +0.168 A 
ATOM     37  F   UNL     1       7.224  -4.617  -6.451  0.00  0.00    -0.202 F 
ATOM     38  F   UNL     1      11.218  -3.028  -8.441  0.00  0.00    -0.205 F 
ENDBRANCH  30  31
ENDBRANCH   5  30
TORSDOF 14
