REMARK  Name = ZINC09373211
REMARK  11 active torsions:
REMARK  status: ('A' for Active; 'I' for Inactive)
REMARK    1  A    between atoms: C_1  and  C_2
REMARK    2  A    between atoms: C_5  and  S_26
REMARK    3  A    between atoms: C_7  and  N_8
REMARK    4  A    between atoms: N_8  and  C_9
REMARK    5  A    between atoms: C_9  and  N_11
REMARK    6  A    between atoms: N_11  and  C_12
REMARK    7  A    between atoms: C_16  and  S_18
REMARK    8  A    between atoms: S_18  and  N_21
REMARK    9  A    between atoms: S_26  and  N_29
REMARK   10  A    between atoms: N_29  and  C_30
REMARK   11  A    between atoms: N_29  and  C_31
REMARK                            x       y       z     vdW  Elec       q    Type
REMARK                         _______ _______ _______ _____ _____    ______ ____
ROOT
ATOM      1  N   UNL     1       3.491   5.918  -0.204  0.00  0.00    -0.297 N 
ATOM      2  H   UNL     1       4.294   5.441  -0.468  0.00  0.00    +0.154 HD
ENDROOT
BRANCH   1   3
ATOM      3  C   UNL     1       3.479   7.316  -0.196  0.00  0.00    +0.034 A 
ATOM      4  C   UNL     1       4.069   8.023  -1.236  0.00  0.00    +0.023 A 
ATOM      5  C   UNL     1       4.051   9.404  -1.229  0.00  0.00    +0.004 A 
ATOM      6  C   UNL     1       3.455  10.083  -0.181  0.00  0.00    +0.029 A 
ATOM      7  C   UNL     1       2.872   9.383   0.858  0.00  0.00    +0.110 A 
ATOM      8  C   UNL     1       2.882   8.001   0.854  0.00  0.00    +0.052 A 
BRANCH   7   9
ATOM      9  S   UNL     1       2.114  10.253   2.190  0.00  0.00    +0.073 S 
ATOM     10  O   UNL     1       1.758  11.533   1.688  0.00  0.00    -0.150 OA
ATOM     11  O   UNL     1       1.163   9.367   2.765  0.00  0.00    -0.150 OA
BRANCH   9  12
ATOM     12  N   UNL     1       3.282  10.503   3.338  0.00  0.00    -0.205 N 
ATOM     13  C   UNL     1       4.356  11.305   3.059  0.00  0.00    +0.088 C 
ATOM     14  C   UNL     1       5.780  12.698   1.929  0.00  0.00    +0.114 C 
ATOM     15  C   UNL     1       6.601  12.177   3.132  0.00  0.00    +0.028 C 
ATOM     16  C   UNL     1       5.475  11.607   4.031  0.00  0.00    +0.072 C 
ATOM     17  H   UNL     1       3.204  10.081   4.208  0.00  0.00    +0.175 HD
ATOM     18  N   UNL     1       4.533  11.905   1.922  0.00  0.00    -0.375 N 
ATOM     19  H   UNL     1       3.891  11.838   1.124  0.00  0.00    +0.161 HD
ENDBRANCH   9  12
ENDBRANCH   7   9
ENDBRANCH   1   3
BRANCH   1  20
ATOM     20  C   UNL     1       2.389   5.232   0.157  0.00  0.00    +0.139 C 
ATOM     21  S   UNL     1       0.925   6.065   0.466  0.00  0.00    -0.018 S 
BRANCH  20  22
ATOM     22  N   UNL     1       2.438   3.890   0.274  0.00  0.00    -0.296 N 
ATOM     23  H   UNL     1       3.279   3.423   0.153  0.00  0.00    +0.154 HD
BRANCH  22  30
ATOM     24  C   UNL     1       2.617   1.765   2.158  0.00  0.00    +0.045 C 
ATOM     25  C   UNL     1       1.318   2.126   1.486  0.00  0.00    -0.029 A 
ATOM     26  C   UNL     1       0.168   1.418   1.777  0.00  0.00    +0.007 A 
ATOM     27  C   UNL     1      -1.023   1.745   1.156  0.00  0.00    +0.029 A 
ATOM     28  C   UNL     1      -1.070   2.789   0.249  0.00  0.00    +0.107 A 
ATOM     29  C   UNL     1       0.076   3.501  -0.046  0.00  0.00    +0.052 A 
ATOM     30  C   UNL     1       1.275   3.171   0.572  0.00  0.00    +0.037 A 
BRANCH  28  31
ATOM     31  S   UNL     1      -2.592   3.206  -0.534  0.00  0.00    +0.060 S 
ATOM     32  O   UNL     1      -3.629   2.743   0.321  0.00  0.00    -0.153 OA
ATOM     33  O   UNL     1      -2.484   4.565  -0.933  0.00  0.00    -0.153 OA
BRANCH  31  34
ATOM     34  N   UNL     1      -2.689   2.310  -1.924  0.00  0.00    -0.183 NA
ATOM     35  C   UNL     1      -3.315   0.986  -1.900  0.00  0.00    +0.131 C 
ATOM     36  C   UNL     1      -2.149   2.843  -3.177  0.00  0.00    +0.131 C 
ENDBRANCH  31  34
ENDBRANCH  28  31
ENDBRANCH  22  30
ENDBRANCH  20  22
ENDBRANCH   1  20
TORSDOF 8
