REMARK  Name = ZINC39609289
REMARK  12 active torsions:
REMARK  status: ('A' for Active; 'I' for Inactive)
REMARK    1  A    between atoms: C_1  and  C_2
REMARK    2  A    between atoms: C_2  and  C_3
REMARK    3  A    between atoms: C_3  and  C_4
REMARK    4  A    between atoms: C_4  and  C_5
REMARK    5  A    between atoms: C_5  and  C_6
REMARK    6  A    between atoms: C_6  and  C_7
REMARK    7  A    between atoms: C_11  and  C_20
REMARK    8  A    between atoms: N_22  and  C_23
REMARK    9  A    between atoms: C_23  and  C_24
REMARK   10  A    between atoms: C_24  and  C_25
REMARK   11  A    between atoms: C_28  and  C_32
REMARK   12  A    between atoms: C_29  and  C_31
REMARK                            x       y       z     vdW  Elec       q    Type
REMARK                         _______ _______ _______ _____ _____    ______ ____
ROOT
ATOM      1  C   UNL     1       2.007  -4.613   3.490  0.00  0.00    +0.216 C 
ATOM      2  O   UNL     1       2.400  -3.752   4.248  0.00  0.00    -0.276 OA
ATOM      3  N   UNL     1       2.239  -5.911   3.767  0.00  0.00    -0.300 N 
ATOM      4  C   UNL     1       1.847  -7.095   2.966  0.00  0.00    +0.121 C 
ATOM      5  C   UNL     1       3.053  -8.055   3.071  0.00  0.00    +0.100 C 
ATOM      6  C   UNL     1       3.768  -7.646   4.370  0.00  0.00    -0.004 C 
ATOM      7  C   UNL     1       2.949  -6.478   4.939  0.00  0.00    +0.115 C 
ATOM      8  C   UNL     1       5.191  -7.187   4.069  0.00  0.00    -0.010 C 
ATOM      9  C   UNL     1       5.899  -6.841   5.382  0.00  0.00    -0.082 C 
ATOM     10  N   UNL     1       5.918  -8.020   6.256  0.00  0.00    +0.379 N 
ATOM     11  C   UNL     1       4.547  -8.399   6.616  0.00  0.00    -0.082 C 
ATOM     12  C   UNL     1       3.781  -8.811   5.355  0.00  0.00    -0.010 C 
ATOM     13  H   UNL     1       6.362  -8.787   5.773  0.00  0.00    -0.086 HD
ATOM     14  H   UNL     1       6.438  -7.808   7.094  0.00  0.00    -0.086 HD
ENDROOT
BRANCH   5  15
ATOM     15  C   UNL     1       3.970  -7.877   1.888  0.00  0.00    +0.218 C 
ATOM     16  O   UNL     1       4.055  -6.796   1.344  0.00  0.00    -0.275 OA
ATOM     17  N   UNL     1       4.694  -8.919   1.434  0.00  0.00    -0.315 N 
ATOM     18  H   UNL     1       4.625  -9.784   1.869  0.00  0.00    +0.149 HD
BRANCH  17  19
ATOM     19  C   UNL     1       5.584  -8.747   0.284  0.00  0.00    +0.109 C 
BRANCH  19  20
ATOM     20  C   UNL     1       6.283 -10.073  -0.024  0.00  0.00    +0.054 C 
BRANCH  20  21
ATOM     21  C   UNL     1       7.199  -9.895  -1.207  0.00  0.00    -0.046 A 
ATOM     22  C   UNL     1       6.724 -10.108  -2.488  0.00  0.00    +0.004 A 
ATOM     23  C   UNL     1       7.564  -9.945  -3.573  0.00  0.00    +0.004 A 
ATOM     24  C   UNL     1       8.880  -9.569  -3.378  0.00  0.00    -0.048 A 
ATOM     25  C   UNL     1       9.355  -9.355  -2.098  0.00  0.00    -0.047 A 
ATOM     26  C   UNL     1       8.513  -9.514  -1.013  0.00  0.00    +0.007 A 
ATOM     27  C   UNL     1      10.790  -8.945  -1.885  0.00  0.00    +0.044 C 
ATOM     28  C   UNL     1       9.796  -9.392  -4.561  0.00  0.00    +0.044 C 
ENDBRANCH  20  21
ENDBRANCH  19  20
ENDBRANCH  17  19
ENDBRANCH   5  15
BRANCH   1  29
ATOM     29  C   UNL     1       1.261  -4.231   2.238  0.00  0.00    +0.096 C 
BRANCH  29  30
ATOM     30  C   UNL     1       1.135  -2.708   2.164  0.00  0.00    +0.009 C 
BRANCH  30  31
ATOM     31  C   UNL     1       0.377  -2.321   0.892  0.00  0.00    +0.000 C 
BRANCH  31  32
ATOM     32  C   UNL     1       0.251  -0.797   0.818  0.00  0.00    -0.000 C 
BRANCH  32  34
ATOM     33  C   UNL     1      -0.633   1.113  -0.527  0.00  0.00    +0.004 C 
ATOM     34  C   UNL     1      -0.507  -0.410  -0.453  0.00  0.00    -0.003 C 
ENDBRANCH  32  34
ENDBRANCH  31  32
ENDBRANCH  30  31
ENDBRANCH  29  30
ENDBRANCH   1  29
TORSDOF 9
