REMARK  Name = ZINC31854415
REMARK  7 active torsions:
REMARK  status: ('A' for Active; 'I' for Inactive)
REMARK    1  A    between atoms: C_1  and  C_2
REMARK    2  A    between atoms: C_3  and  C_8
REMARK    3  A    between atoms: N_10  and  N_11
REMARK    4  A    between atoms: C_12  and  C_13
REMARK    5  A    between atoms: C_15  and  O_21
REMARK    6  A    between atoms: C_16  and  O_20
REMARK    7  A    between atoms: O_21  and  C_22
REMARK                            x       y       z     vdW  Elec       q    Type
REMARK                         _______ _______ _______ _____ _____    ______ ____
ROOT
ATOM      1  C   UNL     1      -3.579   1.920   0.349  0.00  0.00    +0.272 C 
ATOM      2  O   UNL     1      -4.605   1.291   0.539  0.00  0.00    -0.268 OA
ATOM      3  N   UNL     1      -2.420   1.268   0.131  0.00  0.00    -0.202 N 
ATOM      4  H   UNL     1      -1.493   1.836  -0.040  0.00  0.00    +0.178 HD
ENDROOT
BRANCH   1   7
ATOM      5  C   UNL     1      -6.064   3.725   0.803  0.00  0.00    +0.067 C 
ATOM      6  C   UNL     1      -4.672   4.248   0.552  0.00  0.00    +0.060 A 
ATOM      7  C   UNL     1      -3.606   3.381   0.357  0.00  0.00    +0.100 A 
ATOM      8  S   UNL     1      -2.275   4.549   0.111  0.00  0.00    -0.048 S 
ATOM      9  C   UNL     1      -3.211   6.001   0.288  0.00  0.00    +0.156 A 
ATOM     10  N   UNL     1      -4.429   5.532   0.514  0.00  0.00    -0.230 NA
ATOM     11  N   UNL     1      -2.792   7.312   0.212  0.00  0.00    -0.337 N 
ATOM     12  H   UNL     1      -3.515   8.129   0.348  0.00  0.00    +0.144 HD
ATOM     13  H   UNL     1      -1.734   7.541   0.014  0.00  0.00    +0.144 HD
ENDBRANCH   1   7
BRANCH   3  14
ATOM     14  N   UNL     1      -2.394  -0.132   0.123  0.00  0.00    -0.187 NA
ATOM     15  C   UNL     1      -1.261  -0.760   0.042  0.00  0.00    +0.138 C 
BRANCH  15  16
ATOM     16  C   UNL     1      -0.025  -0.117   0.524  0.00  0.00    -0.001 A 
ATOM     17  C   UNL     1       1.222  -0.634   0.160  0.00  0.00    +0.059 A 
ATOM     18  C   UNL     1       2.377  -0.027   0.615  0.00  0.00    +0.163 A 
ATOM     19  C   UNL     1       2.298   1.098   1.434  0.00  0.00    +0.173 A 
ATOM     20  C   UNL     1       1.061   1.612   1.795  0.00  0.00    +0.063 A 
ATOM     21  C   UNL     1      -0.097   1.011   1.345  0.00  0.00    +0.028 A 
ATOM     22 BR   UNL     1       0.961   3.139   2.906  0.00  0.00    -0.046 Br
BRANCH  19  23
ATOM     23  O   UNL     1       3.436   1.693   1.880  0.00  0.00    -0.503 OA
ATOM     24  H   UNL     1       3.375   2.581   2.526  0.00  0.00    +0.292 HD
ENDBRANCH  19  23
BRANCH  18  25
ATOM     25  O   UNL     1       3.591  -0.527   0.263  0.00  0.00    -0.491 OA
ATOM     26  C   UNL     1       3.598  -1.682  -0.579  0.00  0.00    +0.277 C 
ENDBRANCH  18  25
ENDBRANCH  15  16
ENDBRANCH   3  14
TORSDOF 5
