REMARK  Name = ZINC36206472
REMARK  13 active torsions:
REMARK  status: ('A' for Active; 'I' for Inactive)
REMARK    1  A    between atoms: C_1  and  C_2
REMARK    2  A    between atoms: C_2  and  C_3
REMARK    3  A    between atoms: C_3  and  N_4
REMARK    4  A    between atoms: N_4  and  C_5
REMARK    5  A    between atoms: N_4  and  C_25
REMARK    6  A    between atoms: C_5  and  C_6
REMARK    7  A    between atoms: C_12  and  C_17
REMARK    8  A    between atoms: C_20  and  C_24
REMARK    9  A    between atoms: C_22  and  C_23
REMARK   10  A    between atoms: C_25  and  C_26
REMARK   11  A    between atoms: C_26  and  C_27
REMARK   12  A    between atoms: C_26  and  C_28
REMARK   13  A    between atoms: C_26  and  O_30
REMARK                            x       y       z     vdW  Elec       q    Type
REMARK                         _______ _______ _______ _____ _____    ______ ____
ROOT
ATOM      1  C   UNL     1       3.097  -1.635  -1.089  0.00  0.00    +0.094 A 
ATOM      2  N   UNL     1       4.290  -1.672  -1.737  0.00  0.00    -0.312 N 
ATOM      3  H   UNL     1       4.325  -2.004  -2.648  0.00  0.00    +0.170 HD
ATOM      4  C   UNL     1       5.423  -1.257  -1.141  0.00  0.00    +0.260 A 
ATOM      5  O   UNL     1       6.485  -1.295  -1.738  0.00  0.00    -0.267 OA
ATOM      6  C   UNL     1       5.361  -0.768   0.203  0.00  0.00    +0.080 A 
ATOM      7  C   UNL     1       6.435  -0.269   1.053  0.00  0.00    +0.004 A 
ATOM      8  C   UNL     1       6.133   0.146   2.307  0.00  0.00    +0.056 A 
ATOM      9  S   UNL     1       4.374  -0.116   2.417  0.00  0.00    -0.076 S 
ATOM     10  C   UNL     1       4.086  -0.768   0.792  0.00  0.00    +0.116 A 
ATOM     11  N   UNL     1       3.008  -1.190   0.136  0.00  0.00    -0.229 NA
ENDROOT
BRANCH   7  12
ATOM     12  C   UNL     1       7.830  -0.215   0.555  0.00  0.00    -0.014 A 
ATOM     13  C   UNL     1       8.813  -1.013   1.138  0.00  0.00    +0.009 A 
ATOM     14  C   UNL     1      10.110  -0.959   0.670  0.00  0.00    +0.004 A 
ATOM     15  C   UNL     1      10.435  -0.115  -0.377  0.00  0.00    -0.050 A 
ATOM     16  C   UNL     1       9.464   0.679  -0.960  0.00  0.00    +0.007 A 
ATOM     17  C   UNL     1       8.163   0.630  -0.503  0.00  0.00    -0.042 A 
ATOM     18  C   UNL     1       7.105   1.491  -1.144  0.00  0.00    +0.044 C 
ATOM     19  C   UNL     1      11.854  -0.060  -0.883  0.00  0.00    +0.044 C 
ENDBRANCH   7  12
BRANCH   1  20
ATOM     20  C   UNL     1       1.855  -2.110  -1.796  0.00  0.00    -0.003 C 
BRANCH  20  21
ATOM     21  N   UNL     1       0.698  -1.969  -0.902  0.00  0.00    +0.386 N 
ATOM     22  H   UNL     1       0.877  -2.462  -0.040  0.00  0.00    -0.081 HD
BRANCH  21  23
ATOM     23  C   UNL     1       0.471  -0.546  -0.615  0.00  0.00    -0.078 C 
BRANCH  23  25
ATOM     24  C   UNL     1      -0.785   1.063   0.825  0.00  0.00    +0.002 C 
ATOM     25  C   UNL     1      -0.642  -0.407   0.425  0.00  0.00    -0.022 C 
ENDBRANCH  23  25
ENDBRANCH  21  23
BRANCH  21  26
ATOM     26  C   UNL     1      -0.494  -2.533  -1.550  0.00  0.00    -0.039 C 
BRANCH  26  27
ATOM     27  C   UNL     1      -0.346  -4.053  -1.655  0.00  0.00    +0.067 C 
ATOM     28  C   UNL     1      -0.013  -4.629  -0.278  0.00  0.00    +0.044 C 
BRANCH  27  29
ATOM     29  C   UNL     1      -1.638  -4.650  -2.151  0.00  0.00    -0.003 C 
ATOM     30  C   UNL     1      -1.657  -5.333  -3.268  0.00  0.00    +0.006 C 
ENDBRANCH  27  29
BRANCH  27  31
ATOM     31  O   UNL     1       0.706  -4.367  -2.570  0.00  0.00    -0.387 OA
ATOM     32  H   UNL     1       0.562  -4.031  -3.465  0.00  0.00    +0.210 HD
ENDBRANCH  27  31
ENDBRANCH  26  27
ENDBRANCH  21  26
ENDBRANCH  20  21
ENDBRANCH   1  20
TORSDOF 9
