REMARK  Name = ZINC37624849
REMARK  17 active torsions:
REMARK  status: ('A' for Active; 'I' for Inactive)
REMARK    1  A    between atoms: C_1  and  C_2
REMARK    2  A    between atoms: C_2  and  C_3
REMARK    3  A    between atoms: C_5  and  C_40
REMARK    4  A    between atoms: C_6  and  C_9
REMARK    5  A    between atoms: C_9  and  C_31
REMARK    6  A    between atoms: N_10  and  N_11
REMARK    7  A    between atoms: C_12  and  C_13
REMARK    8  A    between atoms: C_12  and  C_22
REMARK    9  A    between atoms: C_14  and  C_21
REMARK   10  A    between atoms: C_16  and  C_19
REMARK   11  A    between atoms: C_19  and  C_20
REMARK   12  A    between atoms: C_23  and  C_30
REMARK   13  A    between atoms: C_25  and  C_28
REMARK   14  A    between atoms: C_28  and  C_29
REMARK   15  A    between atoms: C_32  and  C_39
REMARK   16  A    between atoms: C_34  and  C_37
REMARK   17  A    between atoms: C_37  and  C_38
REMARK                            x       y       z     vdW  Elec       q    Type
REMARK                         _______ _______ _______ _____ _____    ______ ____
ROOT
ATOM      1  C   UNL     1       2.412  -0.259   4.587  0.00  0.00    +0.133 C 
ATOM      2  N   UNL     1       3.434  -0.550   5.379  0.00  0.00    -0.145 NA
ENDROOT
BRANCH   1   6
ATOM      3  C   UNL     1       3.336   0.667   1.182  0.00  0.00    +0.016 A 
ATOM      4  C   UNL     1       2.686   1.792   1.558  0.00  0.00    +0.026 A 
ATOM      5  C   UNL     1       2.248   1.613   2.877  0.00  0.00    -0.023 A 
ATOM      6  C   UNL     1       2.653   0.357   3.274  0.00  0.00    +0.072 A 
ATOM      7  N   UNL     1       3.317  -0.217   2.217  0.00  0.00    -0.356 N 
ATOM      8  H   UNL     1       3.710  -1.104   2.211  0.00  0.00    +0.166 HD
ATOM      9  C   UNL     1       1.478   2.609   3.707  0.00  0.00    +0.046 C 
BRANCH   3  11
ATOM     10  C   UNL     1       2.911  -0.081  -1.144  0.00  0.00    +0.010 C 
ATOM     11  C   UNL     1       3.970   0.429  -0.164  0.00  0.00    +0.050 C 
ENDBRANCH   3  11
ENDBRANCH   1   6
BRANCH   1  12
ATOM     12  C   UNL     1       1.039  -0.551   5.020  0.00  0.00    +0.072 A 
ATOM     13  C   UNL     1       0.671  -1.168   6.196  0.00  0.00    -0.023 A 
ATOM     14  C   UNL     1      -0.729  -1.245   6.202  0.00  0.00    +0.026 A 
ATOM     15  C   UNL     1      -1.179  -0.687   5.056  0.00  0.00    +0.016 A 
ATOM     16  N   UNL     1      -0.112  -0.255   4.329  0.00  0.00    -0.356 N 
ATOM     17  H   UNL     1      -0.155   0.187   3.467  0.00  0.00    +0.166 HD
ATOM     18  C   UNL     1       1.599  -1.667   7.274  0.00  0.00    +0.046 C 
BRANCH  15  19
ATOM     19  C   UNL     1      -2.625  -0.558   4.651  0.00  0.00    +0.050 C 
ATOM     20  C   UNL     1      -3.217   0.709   5.271  0.00  0.00    +0.010 C 
ENDBRANCH  15  19
ENDBRANCH   1  12
BRANCH   2  21
ATOM     21  N   UNL     1       4.626  -0.174   5.059  0.00  0.00    -0.145 NA
ATOM     22  C   UNL     1       5.659  -0.549   5.799  0.00  0.00    +0.133 C 
BRANCH  22  23
ATOM     23  C   UNL     1       7.009  -0.067   5.473  0.00  0.00    +0.072 A 
ATOM     24  C   UNL     1       7.338   0.812   4.465  0.00  0.00    -0.023 A 
ATOM     25  C   UNL     1       8.727   0.995   4.513  0.00  0.00    +0.026 A 
ATOM     26  C   UNL     1       9.209   0.241   5.527  0.00  0.00    +0.016 A 
ATOM     27  N   UNL     1       8.171  -0.406   6.125  0.00  0.00    -0.356 N 
ATOM     28  H   UNL     1       8.240  -1.009   6.882  0.00  0.00    +0.166 HD
ATOM     29  C   UNL     1       6.384   1.456   3.492  0.00  0.00    +0.046 C 
BRANCH  26  30
ATOM     30  C   UNL     1      10.657   0.140   5.933  0.00  0.00    +0.050 C 
ATOM     31  C   UNL     1      11.002   1.289   6.883  0.00  0.00    +0.010 C 
ENDBRANCH  26  30
ENDBRANCH  22  23
BRANCH  22  32
ATOM     32  C   UNL     1       5.456  -1.448   6.944  0.00  0.00    +0.072 A 
ATOM     33  C   UNL     1       5.937  -2.734   7.065  0.00  0.00    -0.023 A 
ATOM     34  C   UNL     1       5.509  -3.219   8.308  0.00  0.00    +0.026 A 
ATOM     35  C   UNL     1       4.792  -2.243   8.910  0.00  0.00    +0.016 A 
ATOM     36  N   UNL     1       4.757  -1.156   8.091  0.00  0.00    -0.356 N 
ATOM     37  H   UNL     1       4.311  -0.316   8.283  0.00  0.00    +0.166 HD
ATOM     38  C   UNL     1       6.766  -3.479   6.051  0.00  0.00    +0.046 C 
BRANCH  35  39
ATOM     39  C   UNL     1       4.143  -2.340  10.267  0.00  0.00    +0.050 C 
ATOM     40  C   UNL     1       5.165  -1.985  11.348  0.00  0.00    +0.010 C 
ENDBRANCH  35  39
ENDBRANCH  22  32
ENDBRANCH   2  21
TORSDOF 9
