REMARK  Name = ZINC39404338
REMARK  10 active torsions:
REMARK  status: ('A' for Active; 'I' for Inactive)
REMARK    1  A    between atoms: C_1  and  C_2
REMARK    2  A    between atoms: C_2  and  O_3
REMARK    3  A    between atoms: O_3  and  C_4
REMARK    4  A    between atoms: C_4  and  C_6
REMARK    5  A    between atoms: C_8  and  N_17
REMARK    6  A    between atoms: C_18  and  C_20
REMARK    7  A    between atoms: C_20  and  S_21
REMARK    8  A    between atoms: S_21  and  C_22
REMARK    9  A    between atoms: N_28  and  N_29
REMARK   10  A    between atoms: C_30  and  C_31
REMARK                            x       y       z     vdW  Elec       q    Type
REMARK                         _______ _______ _______ _____ _____    ______ ____
ROOT
ATOM      1  C   UNL     1      -1.729  -0.595   4.362  0.00  0.00    +0.168 C 
ENDROOT
BRANCH   1   3
ATOM      2  N   UNL     1      -2.609  -1.859   2.427  0.00  0.00    -0.301 N 
ATOM      3  C   UNL     1      -2.728  -0.800   3.252  0.00  0.00    +0.224 C 
ATOM      4  O   UNL     1      -3.637  -0.012   3.101  0.00  0.00    -0.275 OA
ATOM      5  H   UNL     1      -1.881  -2.489   2.547  0.00  0.00    +0.150 HD
BRANCH   2   7
ATOM      6  C   UNL     1      -2.881  -2.427   0.017  0.00  0.00    +0.155 C 
ATOM      7  C   UNL     1      -3.579  -2.058   1.347  0.00  0.00    +0.153 C 
ATOM      8  S   UNL     1      -4.553  -3.603   1.589  0.00  0.00    -0.106 S 
ATOM      9  C   UNL     1      -3.579  -4.685   0.569  0.00  0.00    -0.013 C 
ATOM     10  C   UNL     1      -2.776  -3.921  -0.159  0.00  0.00    -0.044 C 
ATOM     11  C   UNL     1      -1.784  -4.538  -1.143  0.00  0.00    +0.032 C 
ATOM     12  C   UNL     1      -1.579  -6.010  -0.791  0.00  0.00    +0.005 C 
ATOM     13  C   UNL     1      -2.941  -6.706  -0.692  0.00  0.00    +0.005 C 
ATOM     14  C   UNL     1      -3.662  -6.186   0.551  0.00  0.00    +0.042 C 
BRANCH   6  15
ATOM     15  C   UNL     1      -1.496  -1.832   0.006  0.00  0.00    +0.317 C 
ATOM     16  O   UNL     1      -0.578  -2.429   0.517  0.00  0.00    -0.250 OA
BRANCH  15  17
ATOM     17  O   UNL     1      -1.283  -0.638  -0.569  0.00  0.00    -0.464 OA
BRANCH  17  19
ATOM     18  C   UNL     1       0.101   1.226  -1.241  0.00  0.00    +0.048 C 
ATOM     19  C   UNL     1       0.054  -0.135  -0.542  0.00  0.00    +0.229 C 
ENDBRANCH  17  19
ENDBRANCH  15  17
ENDBRANCH   6  15
ENDBRANCH   2   7
ENDBRANCH   1   3
BRANCH   1  20
ATOM     20  S   UNL     1      -2.156   0.905   5.290  0.00  0.00    -0.104 S 
BRANCH  20  21
ATOM     21  C   UNL     1      -0.877   1.008   6.571  0.00  0.00    +0.274 C 
ATOM     22  N   UNL     1       0.465   1.060   5.960  0.00  0.00    -0.281 N 
ATOM     23  C   UNL     1       1.099  -0.075   6.439  0.00  0.00    +0.231 C 
ATOM     24  N   UNL     1       0.254  -0.755   7.252  0.00  0.00    -0.116 NA
ATOM     25  N   UNL     1      -0.854  -0.222   7.377  0.00  0.00    -0.150 NA
ATOM     26  N   UNL     1       2.330  -0.438   6.149  0.00  0.00    -0.247 N 
ATOM     27  H   UNL     1       0.822   1.735   5.361  0.00  0.00    +0.152 HD
ATOM     28  H   UNL     1       2.698  -1.251   6.529  0.00  0.00    +0.192 HD
BRANCH  26  29
ATOM     29  N   UNL     1       3.047   0.288   5.360  0.00  0.00    -0.179 NA
ATOM     30  C   UNL     1       4.272  -0.073   5.072  0.00  0.00    +0.140 C 
BRANCH  30  31
ATOM     31  C   UNL     1       5.089   0.754   4.173  0.00  0.00    -0.005 A 
ATOM     32  C   UNL     1       4.563   1.931   3.628  0.00  0.00    +0.011 A 
ATOM     33  C   UNL     1       5.336   2.701   2.786  0.00  0.00    +0.020 A 
ATOM     34  C   UNL     1       6.630   2.313   2.478  0.00  0.00    +0.041 A 
ATOM     35  C   UNL     1       7.157   1.149   3.014  0.00  0.00    +0.020 A 
ATOM     36  C   UNL     1       6.399   0.371   3.862  0.00  0.00    +0.011 A 
ATOM     37 CL   UNL     1       7.595   3.290   1.416  0.00  0.00    -0.084 Cl
ENDBRANCH  30  31
ENDBRANCH  26  29
ENDBRANCH  20  21
ENDBRANCH   1  20
TORSDOF 9
