REMARK  Name = ZINC05529947
REMARK  11 active torsions:
REMARK  status: ('A' for Active; 'I' for Inactive)
REMARK    1  A    between atoms: C_1  and  C_2
REMARK    2  A    between atoms: C_17  and  C_31
REMARK    3  A    between atoms: C_22  and  C_23
REMARK    4  A    between atoms: C_22  and  O_30
REMARK    5  A    between atoms: C_23  and  N_71
REMARK    6  A    between atoms: C_24  and  C_25
REMARK    7  A    between atoms: C_24  and  N_71
REMARK    8  A    between atoms: C_25  and  O_26
REMARK    9  A    between atoms: C_27  and  C_28
REMARK   10  A    between atoms: C_27  and  N_71
REMARK   11  A    between atoms: C_28  and  O_29
REMARK                            x       y       z     vdW  Elec       q    Type
REMARK                         _______ _______ _______ _____ _____    ______ ____
ROOT
ATOM      1  C   UNL     1       4.252   0.959   1.252  0.00  0.00    +0.012 C 
ATOM      2  C   UNL     1       2.751   0.686   1.372  0.00  0.00    -0.026 C 
ATOM      3  C   UNL     1       1.974   1.802   0.671  0.00  0.00    +0.007 C 
ATOM      4  C   UNL     1       2.307   3.144   1.326  0.00  0.00    +0.001 C 
ATOM      5  C   UNL     1       1.913   3.101   2.804  0.00  0.00    +0.000 C 
ATOM      6  C   UNL     1       2.691   1.986   3.506  0.00  0.00    +0.004 C 
ATOM      7  C   UNL     1       2.363   0.644   2.851  0.00  0.00    -0.005 C 
ATOM      8  C   UNL     1       0.863   0.367   2.972  0.00  0.00    +0.004 C 
ATOM      9  C   UNL     1       0.544  -0.985   2.331  0.00  0.00    +0.004 C 
ATOM     10  C   UNL     1       0.933  -0.958   0.851  0.00  0.00    -0.004 C 
ATOM     11  C   UNL     1       2.425  -0.654   0.715  0.00  0.00    -0.001 C 
ATOM     12  C   UNL     1       3.207  -1.776   1.405  0.00  0.00    +0.005 C 
ATOM     13  C   UNL     1       2.944  -3.079   0.653  0.00  0.00    +0.010 C 
ATOM     14  C   UNL     1       1.460  -3.447   0.697  0.00  0.00    -0.002 C 
ATOM     15  C   UNL     1       0.588  -2.280   0.202  0.00  0.00    +0.001 C 
ATOM     16  C   UNL     1       0.826  -2.272  -1.319  0.00  0.00    +0.007 C 
ATOM     17  C   UNL     1       0.866  -3.775  -1.683  0.00  0.00    +0.034 C 
ATOM     18  C   UNL     1       1.240  -4.530  -0.394  0.00  0.00    +0.057 C 
ATOM     19  C   UNL     1       1.043  -3.945   2.082  0.00  0.00    +0.014 C 
ENDROOT
BRANCH  18  20
ATOM     20  O   UNL     1       0.177  -5.405  -0.011  0.00  0.00    -0.390 OA
ATOM     21  H   UNL     1       0.042  -6.147  -0.616  0.00  0.00    +0.210 HD
ENDBRANCH  18  20
BRANCH  18  22
ATOM     22  C   UNL     1       2.528  -5.329  -0.609  0.00  0.00    -0.043 C 
BRANCH  22  23
ATOM     23  N   UNL     1       3.630  -4.382  -0.883  0.00  0.00    +0.384 N 
ATOM     24  H   UNL     1       3.481  -3.529  -0.332  0.00  0.00    -0.082 HD
BRANCH  23  25
ATOM     25  C   UNL     1       4.922  -4.985  -0.494  0.00  0.00    -0.050 C 
BRANCH  25  26
ATOM     26  C   UNL     1       6.009  -3.912  -0.567  0.00  0.00    +0.137 C 
BRANCH  26  27
ATOM     27  O   UNL     1       5.747  -2.901   0.409  0.00  0.00    -0.397 OA
ATOM     28  H   UNL     1       6.397  -2.186   0.419  0.00  0.00    +0.209 HD
ENDBRANCH  26  27
ENDBRANCH  25  26
ENDBRANCH  23  25
BRANCH  23  29
ATOM     29  C   UNL     1       3.648  -4.030  -2.318  0.00  0.00    -0.050 C 
BRANCH  29  30
ATOM     30  C   UNL     1       3.441  -5.279  -3.178  0.00  0.00    +0.137 C 
BRANCH  30  31
ATOM     31  O   UNL     1       2.048  -5.591  -3.237  0.00  0.00    -0.397 OA
ATOM     32  H   UNL     1       1.849  -6.415  -3.703  0.00  0.00    +0.209 HD
ENDBRANCH  30  31
ENDBRANCH  29  30
ENDBRANCH  23  29
ENDBRANCH  22  23
ENDBRANCH  18  22
TORSDOF 9
