REMARK  Name = ZINC20873224
REMARK  14 active torsions:
REMARK  status: ('A' for Active; 'I' for Inactive)
REMARK    1  A    between atoms: C_1  and  C_2
REMARK    2  A    between atoms: C_2  and  C_3
REMARK    3  A    between atoms: C_2  and  C_4
REMARK    4  A    between atoms: C_2  and  N_5
REMARK    5  A    between atoms: C_6  and  C_8
REMARK    6  A    between atoms: C_8  and  O_9
REMARK    7  A    between atoms: O_9  and  C_10
REMARK    8  A    between atoms: C_15  and  C_16
REMARK    9  A    between atoms: C_16  and  N_17
REMARK   10  A    between atoms: N_17  and  C_18
REMARK   11  A    between atoms: C_18  and  C_19
REMARK   12  A    between atoms: C_19  and  C_20
REMARK   13  A    between atoms: C_23  and  S_26
REMARK   14  A    between atoms: S_26  and  N_29
REMARK                            x       y       z     vdW  Elec       q    Type
REMARK                         _______ _______ _______ _____ _____    ______ ____
ROOT
ATOM      1  C   UNL     1       1.179   1.786   0.000  0.00  0.00    +0.126 A 
ATOM      2  C   UNL     1      -0.013   1.076   0.008  0.00  0.00    +0.047 A 
ATOM      3  C   UNL     1      -1.218   1.751   0.017  0.00  0.00    +0.019 A 
ATOM      4  C   UNL     1      -1.237   3.134   0.030  0.00  0.00    +0.018 A 
ATOM      5  C   UNL     1      -0.050   3.844   0.023  0.00  0.00    +0.023 A 
ATOM      6  C   UNL     1       1.158   3.173   0.008  0.00  0.00    +0.009 A 
ATOM      7 BR   UNL     1      -2.888   4.055   0.050  0.00  0.00    -0.050 Br
ENDROOT
BRANCH   1   8
ATOM      8  O   UNL     1       2.366   1.124  -0.015  0.00  0.00    -0.482 OA
BRANCH   8   9
ATOM      9  C   UNL     1       2.312  -0.304  -0.023  0.00  0.00    +0.324 C 
BRANCH   9  11
ATOM     10  N   UNL     1       3.909  -2.192  -0.049  0.00  0.00    -0.308 N 
ATOM     11  C   UNL     1       3.713  -0.859  -0.040  0.00  0.00    +0.251 C 
ATOM     12  O   UNL     1       4.664  -0.106  -0.044  0.00  0.00    -0.272 OA
ATOM     13  H   UNL     1       3.047  -2.875  -0.045  0.00  0.00    +0.149 HD
BRANCH  10  15
ATOM     14  C   UNL     1       6.023  -2.257   1.179  0.00  0.00    +0.031 C 
ATOM     15  C   UNL     1       5.271  -2.732  -0.066  0.00  0.00    +0.026 C 
ATOM     16  C   UNL     1       5.214  -4.261  -0.074  0.00  0.00    +0.031 C 
ATOM     17  C   UNL     1       5.999  -2.243  -1.319  0.00  0.00    +0.031 C 
ENDBRANCH  10  15
ENDBRANCH   9  11
ENDBRANCH   8   9
ENDBRANCH   1   8
BRANCH   6  18
ATOM     18  C   UNL     1       2.450   3.947  -0.001  0.00  0.00    +0.120 C 
BRANCH  18  19
ATOM     19  N   UNL     1       2.981   4.000  -1.370  0.00  0.00    -0.312 NA
ATOM     20  H   UNL     1       3.163   2.978  -1.732  0.00  0.00    +0.122 HD
BRANCH  19  21
ATOM     21  C   UNL     1       4.243   4.749  -1.417  0.00  0.00    +0.086 C 
BRANCH  21  22
ATOM     22  C   UNL     1       4.763   4.782  -2.855  0.00  0.00    +0.050 C 
BRANCH  22  23
ATOM     23  C   UNL     1       6.059   5.550  -2.904  0.00  0.00    -0.046 A 
ATOM     24  C   UNL     1       6.046   6.914  -3.128  0.00  0.00    +0.005 A 
ATOM     25  C   UNL     1       7.234   7.620  -3.168  0.00  0.00    +0.029 A 
ATOM     26  C   UNL     1       8.436   6.960  -2.993  0.00  0.00    +0.105 A 
ATOM     27  C   UNL     1       8.449   5.595  -2.774  0.00  0.00    +0.029 A 
ATOM     28  C   UNL     1       7.261   4.890  -2.729  0.00  0.00    +0.005 A 
BRANCH  26  29
ATOM     29  S   UNL     1       9.950   7.858  -3.048  0.00  0.00    +0.056 S 
ATOM     30  O   UNL     1       9.636   9.205  -2.723  0.00  0.00    -0.153 OA
ATOM     31  O   UNL     1      10.900   7.099  -2.312  0.00  0.00    -0.153 OA
BRANCH  29  32
ATOM     32  N   UNL     1      10.462   7.858  -4.623  0.00  0.00    -0.204 NA
ATOM     33  H   UNL     1      11.410   8.412  -4.700  0.00  0.00    +0.144 HD
ATOM     34  H   UNL     1       9.703   8.341  -5.255  0.00  0.00    +0.144 HD
ENDBRANCH  29  32
ENDBRANCH  26  29
ENDBRANCH  22  23
ENDBRANCH  21  22
ENDBRANCH  19  21
ENDBRANCH  18  19
ENDBRANCH   6  18
TORSDOF 11
