REMARK  Name = ZINC15548448
REMARK  16 active torsions:
REMARK  status: ('A' for Active; 'I' for Inactive)
REMARK    1  A    between atoms: C_1  and  C_2
REMARK    2  A    between atoms: C_2  and  C_3
REMARK    3  A    between atoms: C_3  and  C_4
REMARK    4  A    between atoms: C_4  and  N_5
REMARK    5  A    between atoms: N_5  and  C_6
REMARK    6  A    between atoms: C_7  and  N_19
REMARK    7  A    between atoms: N_8  and  C_15
REMARK    8  A    between atoms: C_15  and  C_16
REMARK    9  A    between atoms: C_16  and  C_17
REMARK   10  A    between atoms: C_16  and  C_18
REMARK   11  A    between atoms: C_20  and  C_22
REMARK   12  A    between atoms: C_22  and  N_74
REMARK   13  A    between atoms: C_26  and  C_28
REMARK   14  A    between atoms: C_31  and  O_34
REMARK   15  A    between atoms: O_34  and  C_35
REMARK   16  A    between atoms: C_35  and  C_36
REMARK                            x       y       z     vdW  Elec       q    Type
REMARK                         _______ _______ _______ _____ _____    ______ ____
ROOT
ATOM      1  N   UNL     1       1.315  -2.944  -2.214  0.00  0.00    -0.266 N 
ATOM      2  C   UNL     1       0.672  -3.239  -3.363  0.00  0.00    +0.203 C 
ATOM      3  O   UNL     1       1.234  -3.881  -4.225  0.00  0.00    -0.277 OA
ENDROOT
BRANCH   1   4
ATOM      4  C   UNL     1       2.669  -3.304  -2.051  0.00  0.00    +0.140 A 
ATOM      5  C   UNL     1       3.036  -4.252  -1.118  0.00  0.00    +0.127 A 
ATOM      6  N   UNL     1       4.365  -4.582  -0.983  0.00  0.00    -0.280 N 
ATOM      7  C   UNL     1       5.295  -3.987  -1.750  0.00  0.00    +0.331 A 
ATOM      8  O   UNL     1       6.465  -4.293  -1.615  0.00  0.00    -0.246 OA
ATOM      9  N   UNL     1       4.957  -3.061  -2.664  0.00  0.00    -0.273 N 
ATOM     10  H   UNL     1       5.668  -2.630  -3.219  0.00  0.00    +0.173 HD
ATOM     11  C   UNL     1       3.669  -2.706  -2.841  0.00  0.00    +0.277 A 
ATOM     12  O   UNL     1       3.372  -1.869  -3.676  0.00  0.00    -0.266 OA
BRANCH   5  13
ATOM     13  N   UNL     1       2.085  -4.859  -0.333  0.00  0.00    -0.343 N 
ATOM     14  H   UNL     1       1.160  -4.572  -0.382  0.00  0.00    +0.144 HD
ATOM     15  H   UNL     1       2.340  -5.575   0.270  0.00  0.00    +0.144 HD
ENDBRANCH   5  13
BRANCH   6  16
ATOM     16  C   UNL     1       4.768  -5.587   0.004  0.00  0.00    +0.131 C 
BRANCH  16  17
ATOM     17  C   UNL     1       4.753  -6.973  -0.644  0.00  0.00    +0.003 C 
ATOM     18  C   UNL     1       5.816  -7.035  -1.743  0.00  0.00    +0.009 C 
ATOM     19  C   UNL     1       5.053  -8.035   0.415  0.00  0.00    +0.009 C 
ENDBRANCH  16  17
ENDBRANCH   6  16
ENDBRANCH   1   4
BRANCH   1  20
ATOM     20  C   UNL     1       0.606  -2.251  -1.135  0.00  0.00    +0.114 C 
BRANCH  20  21
ATOM     21  C   UNL     1       0.854  -0.746  -1.247  0.00  0.00    +0.019 C 
BRANCH  21  23
ATOM     22  C   UNL     1       0.362   1.484  -0.232  0.00  0.00    +0.004 C 
ATOM     23  C   UNL     1       0.114  -0.021  -0.120  0.00  0.00    -0.002 C 
ENDBRANCH  21  23
ENDBRANCH  20  21
ENDBRANCH   1  20
BRANCH   2  24
ATOM     24  C   UNL     1      -0.744  -2.769  -3.576  0.00  0.00    +0.020 C 
BRANCH  24  29
ATOM     25  C   UNL     1      -0.580  -2.432  -5.976  0.00  0.00    -0.077 C 
ATOM     26  C   UNL     1      -1.663  -2.330  -7.079  0.00  0.00    -0.020 C 
ATOM     27  C   UNL     1      -2.956  -2.179  -6.235  0.00  0.00    -0.013 C 
ATOM     28  C   UNL     1      -2.678  -3.074  -5.009  0.00  0.00    -0.037 C 
ATOM     29  N   UNL     1      -1.215  -3.227  -4.909  0.00  0.00    +0.390 N 
ATOM     30  H   UNL     1      -0.968  -4.216  -5.031  0.00  0.00    -0.080 HD
BRANCH  28  31
ATOM     31  C   UNL     1      -3.229  -2.425  -3.765  0.00  0.00    -0.061 A 
ATOM     32  C   UNL     1      -4.031  -3.152  -2.905  0.00  0.00    +0.005 A 
ATOM     33  C   UNL     1      -4.533  -2.561  -1.762  0.00  0.00    +0.046 A 
ATOM     34  C   UNL     1      -4.240  -1.234  -1.482  0.00  0.00    +0.121 A 
ATOM     35  C   UNL     1      -3.440  -0.505  -2.350  0.00  0.00    +0.046 A 
ATOM     36  C   UNL     1      -2.936  -1.102  -3.490  0.00  0.00    +0.005 A 
BRANCH  34  37
ATOM     37  O   UNL     1      -4.737  -0.649  -0.361  0.00  0.00    -0.492 OA
BRANCH  37  38
ATOM     38  C   UNL     1      -5.554  -1.460   0.486  0.00  0.00    +0.225 C 
ATOM     39  C   UNL     1      -6.018  -0.635   1.689  0.00  0.00    +0.048 C 
ENDBRANCH  37  38
ENDBRANCH  34  37
ENDBRANCH  28  31
ENDBRANCH  24  29
ENDBRANCH   2  24
TORSDOF 12
