REMARK  Name = ZINC54404292
REMARK  8 active torsions:
REMARK  status: ('A' for Active; 'I' for Inactive)
REMARK    1  A    between atoms: C_1  and  C_2
REMARK    2  A    between atoms: C_2  and  C_3
REMARK    3  A    between atoms: C_3  and  C_4
REMARK    4  A    between atoms: C_3  and  C_5
REMARK    5  A    between atoms: C_3  and  C_6
REMARK    6  A    between atoms: N_8  and  C_9
REMARK    7  A    between atoms: C_9  and  C_15
REMARK    8  A    between atoms: N_16  and  O_17
REMARK                            x       y       z     vdW  Elec       q    Type
REMARK                         _______ _______ _______ _____ _____    ______ ____
ROOT
ATOM      1  C   UNL     1       1.329  -4.140  -2.406  0.00  0.00    +0.093 C 
ATOM      2  C   UNL     1      -0.043  -4.795  -2.579  0.00  0.00    +0.033 C 
ATOM      3  C   UNL     1      -0.737  -4.206  -3.809  0.00  0.00    +0.002 C 
ATOM      4  C   UNL     1       0.115  -4.473  -5.051  0.00  0.00    +0.000 C 
ATOM      5  C   UNL     1       1.487  -3.818  -4.879  0.00  0.00    +0.002 C 
ATOM      6  C   UNL     1       2.181  -4.406  -3.649  0.00  0.00    +0.033 C 
ENDROOT
BRANCH   1   7
ATOM      7  C   UNL     1       2.013  -4.720  -1.194  0.00  0.00    +0.155 C 
ATOM      8  N   UNL     1       3.135  -5.346  -1.324  0.00  0.00    -0.075 NA
ATOM      9  N   UNL     1       1.442  -4.580   0.051  0.00  0.00    -0.342 N 
ATOM     10  H   UNL     1       0.644  -4.039   0.161  0.00  0.00    +0.144 HD
ATOM     11  H   UNL     1       1.837  -5.024   0.818  0.00  0.00    +0.144 HD
BRANCH   8  12
ATOM     12  O   UNL     1       3.777  -5.891  -0.186  0.00  0.00    -0.408 OA
ATOM     13  H   UNL     1       4.610  -6.341  -0.382  0.00  0.00    +0.328 HD
ENDBRANCH   8  12
ENDBRANCH   1   7
BRANCH   1  16
ATOM     14  C   UNL     1       2.240  -1.914  -2.016  0.00  0.00    +0.219 C 
ATOM     15  O   UNL     1       3.336  -2.415  -1.882  0.00  0.00    -0.275 OA
ATOM     16  N   UNL     1       1.162  -2.696  -2.229  0.00  0.00    -0.302 N 
ATOM     17  H   UNL     1       0.277  -2.302  -2.264  0.00  0.00    +0.150 HD
BRANCH  14  18
ATOM     18  C   UNL     1       2.082  -0.417  -1.945  0.00  0.00    +0.041 C 
ATOM     19  C   UNL     1       1.133  -0.058  -0.799  0.00  0.00    +0.020 C 
ATOM     20  C   UNL     1       1.506   0.099  -3.265  0.00  0.00    +0.020 C 
BRANCH  18  22
ATOM     21  C   UNL     1       3.287   1.748  -1.625  0.00  0.00    +0.005 C 
ATOM     22  C   UNL     1       3.447   0.228  -1.697  0.00  0.00    +0.012 C 
ENDBRANCH  18  22
ENDBRANCH  14  18
ENDBRANCH   1  16
TORSDOF 5
