REMARK  Name = ZINC40321712
REMARK  7 active torsions:
REMARK  status: ('A' for Active; 'I' for Inactive)
REMARK    1  A    between atoms: C_4  and  S_7
REMARK    2  A    between atoms: S_7  and  C_10
REMARK    3  A    between atoms: C_13  and  C_15
REMARK    4  A    between atoms: N_17  and  C_18
REMARK    5  A    between atoms: C_18  and  C_19
REMARK    6  A    between atoms: C_19  and  C_21
REMARK    7  A    between atoms: C_19  and  N_28
REMARK                            x       y       z     vdW  Elec       q    Type
REMARK                         _______ _______ _______ _____ _____    ______ ____
ROOT
ATOM      1  C   UNL     1       6.015   1.260   7.807  0.00  0.00    +0.279 C 
ATOM      2  O   UNL     1       6.334   0.090   7.702  0.00  0.00    -0.267 OA
ATOM      3  N   UNL     1       6.491   2.169   6.933  0.00  0.00    -0.310 N 
ATOM      4  H   UNL     1       6.237   3.102   7.017  0.00  0.00    +0.149 HD
ENDROOT
BRANCH   1   8
ATOM      5  C   UNL     1       3.876   2.946  10.181  0.00  0.00    +0.246 A 
ATOM      6  C   UNL     1       3.773   1.685  10.657  0.00  0.00    +0.070 A 
ATOM      7  C   UNL     1       4.563   0.867   9.833  0.00  0.00    +0.056 A 
ATOM      8  C   UNL     1       5.114   1.681   8.885  0.00  0.00    +0.192 A 
ATOM      9  O   UNL     1       4.681   2.938   9.111  0.00  0.00    -0.433 OA
BRANCH   5  10
ATOM     10  S   UNL     1       3.077   4.365  10.854  0.00  0.00    +0.058 S 
ATOM     11  O   UNL     1       1.942   3.892  11.567  0.00  0.00    -0.161 OA
ATOM     12  O   UNL     1       2.974   5.312   9.800  0.00  0.00    -0.161 OA
BRANCH  10  16
ATOM     13  C   UNL     1       5.881   6.151  13.927  0.00  0.00    +0.000 A 
ATOM     14  C   UNL     1       5.949   6.560  12.608  0.00  0.00    +0.002 A 
ATOM     15  C   UNL     1       5.093   6.014  11.670  0.00  0.00    +0.027 A 
ATOM     16  C   UNL     1       4.169   5.059  12.050  0.00  0.00    +0.097 A 
ATOM     17  C   UNL     1       4.101   4.650  13.369  0.00  0.00    +0.027 A 
ATOM     18  C   UNL     1       4.956   5.196  14.307  0.00  0.00    +0.002 A 
ENDBRANCH  10  16
ENDBRANCH   5  10
ENDBRANCH   1   8
BRANCH   3  19
ATOM     19  C   UNL     1       7.391   1.749   5.856  0.00  0.00    +0.094 C 
BRANCH  19  20
ATOM     20  C   UNL     1       7.887   2.981   5.096  0.00  0.00    -0.020 C 
BRANCH  20  21
ATOM     21  N   UNL     1       6.736   3.779   4.653  0.00  0.00    +0.385 N 
ATOM     22  C   UNL     1       5.904   2.953   3.757  0.00  0.00    -0.078 C 
ATOM     23  C   UNL     1       4.495   3.490   3.790  0.00  0.00    -0.019 C 
ATOM     24  C   UNL     1       4.232   4.456   2.619  0.00  0.00    -0.002 C 
ATOM     25  C   UNL     1       5.437   5.384   2.363  0.00  0.00    -0.002 C 
ATOM     26  C   UNL     1       6.055   5.890   3.641  0.00  0.00    -0.019 C 
ATOM     27  C   UNL     1       7.206   4.947   4.052  0.00  0.00    -0.078 C 
ATOM     28  H   UNL     1       6.186   4.029   5.462  0.00  0.00    -0.081 HD
ENDBRANCH  20  21
BRANCH  20  29
ATOM     29  C   UNL     1       8.757   3.814   6.002  0.00  0.00    -0.059 A 
ATOM     30  C   UNL     1       8.178   4.657   6.932  0.00  0.00    +0.003 A 
ATOM     31  C   UNL     1       8.976   5.421   7.763  0.00  0.00    +0.020 A 
ATOM     32  C   UNL     1      10.354   5.342   7.663  0.00  0.00    +0.041 A 
ATOM     33  C   UNL     1      10.932   4.498   6.732  0.00  0.00    +0.020 A 
ATOM     34  C   UNL     1      10.133   3.730   5.905  0.00  0.00    +0.003 A 
ATOM     35 CL   UNL     1      11.356   6.302   8.706  0.00  0.00    -0.084 Cl
ENDBRANCH  20  29
ENDBRANCH  19  20
ENDBRANCH   3  19
TORSDOF 7
