REMARK  Name = ZINC58927354
REMARK  6 active torsions:
REMARK  status: ('A' for Active; 'I' for Inactive)
REMARK    1  A    between atoms: C_6  and  C_11
REMARK    2  A    between atoms: C_11  and  C_12
REMARK    3  A    between atoms: N_14  and  N_15
REMARK    4  A    between atoms: C_16  and  C_18
REMARK    5  A    between atoms: C_18  and  N_19
REMARK    6  A    between atoms: N_22  and  C_23
REMARK                            x       y       z     vdW  Elec       q    Type
REMARK                         _______ _______ _______ _____ _____    ______ ____
ROOT
ATOM      1  N   UNL     1       7.050  -3.818   2.902  0.00  0.00    -0.233 N 
ATOM      2  C   UNL     1       8.214  -4.456   3.133  0.00  0.00    +0.246 C 
ATOM      3  O   UNL     1       8.896  -4.830   2.203  0.00  0.00    -0.273 OA
ATOM      4  H   UNL     1       6.504  -3.519   3.646  0.00  0.00    +0.173 HD
ENDROOT
BRANCH   1   7
ATOM      5  C   UNL     1       5.463  -2.949   1.355  0.00  0.00    +0.233 C 
ATOM      6  O   UNL     1       4.781  -2.575   2.285  0.00  0.00    -0.274 OA
ATOM      7  N   UNL     1       6.627  -3.587   1.586  0.00  0.00    -0.234 N 
ATOM      8  H   UNL     1       7.172  -3.886   0.842  0.00  0.00    +0.173 HD
BRANCH   5   9
ATOM      9  C   UNL     1       5.008  -2.700  -0.060  0.00  0.00    +0.132 C 
BRANCH   9  15
ATOM     10  C   UNL     1      -0.016   1.357   0.009  0.00  0.00    +0.001 A 
ATOM     11  C   UNL     1       1.169   2.091   0.002  0.00  0.00    +0.001 A 
ATOM     12  C   UNL     1       2.378   1.468  -0.013  0.00  0.00    +0.008 A 
ATOM     13  C   UNL     1       2.438   0.063  -0.021  0.00  0.00    -0.018 A 
ATOM     14  C   UNL     1       3.668  -0.615  -0.036  0.00  0.00    +0.012 A 
ATOM     15  C   UNL     1       3.687  -1.976  -0.043  0.00  0.00    -0.038 A 
ATOM     16  C   UNL     1       2.502  -2.710  -0.036  0.00  0.00    +0.005 A 
ATOM     17  C   UNL     1       1.292  -2.087  -0.021  0.00  0.00    +0.009 A 
ATOM     18  C   UNL     1       1.233  -0.683  -0.013  0.00  0.00    -0.018 A 
ATOM     19  C   UNL     1       0.002  -0.004   0.002  0.00  0.00    +0.008 A 
ENDBRANCH   9  15
ENDBRANCH   5   9
ENDBRANCH   1   7
BRANCH   2  20
ATOM     20  C   UNL     1       8.669  -4.705   4.548  0.00  0.00    +0.203 C 
BRANCH  20  21
ATOM     21  N   UNL     1       9.953  -5.409   4.532  0.00  0.00    -0.291 N 
ATOM     22  C   UNL     1      10.556  -5.739   5.692  0.00  0.00    +0.300 C 
ATOM     23  O   UNL     1      10.033  -5.452   6.752  0.00  0.00    -0.253 OA
ATOM     24  N   UNL     1      11.738  -6.387   5.677  0.00  0.00    -0.297 N 
ATOM     25  H   UNL     1      10.370  -5.638   3.687  0.00  0.00    +0.151 HD
ATOM     26  H   UNL     1      12.154  -6.615   4.831  0.00  0.00    +0.151 HD
BRANCH  24  27
ATOM     27  C   UNL     1      12.392  -6.745   6.937  0.00  0.00    +0.074 C 
ATOM     28  C   UNL     1      13.216  -5.558   7.439  0.00  0.00    +0.022 C 
ATOM     29  C   UNL     1      13.900  -5.932   8.756  0.00  0.00    +0.002 C 
ATOM     30  C   UNL     1      14.822  -7.132   8.529  0.00  0.00    +0.000 C 
ATOM     31  C   UNL     1      13.998  -8.320   8.026  0.00  0.00    +0.002 C 
ATOM     32  C   UNL     1      13.314  -7.945   6.710  0.00  0.00    +0.022 C 
ENDBRANCH  24  27
ENDBRANCH  20  21
ENDBRANCH   2  20
TORSDOF 6
