REMARK  Name = ZINC39678219
REMARK  6 active torsions:
REMARK  status: ('A' for Active; 'I' for Inactive)
REMARK    1  A    between atoms: C_1  and  C_2
REMARK    2  A    between atoms: C_6  and  C_8
REMARK    3  A    between atoms: C_12  and  C_21
REMARK    4  A    between atoms: N_23  and  C_24
REMARK    5  A    between atoms: C_24  and  C_25
REMARK    6  A    between atoms: C_30  and  N_31
REMARK                            x       y       z     vdW  Elec       q    Type
REMARK                         _______ _______ _______ _____ _____    ______ ____
ROOT
ATOM      1  C   UNL     1       0.079  -2.735   2.255  0.00  0.00    +0.247 C 
ATOM      2  O   UNL     1       0.109  -2.204   3.349  0.00  0.00    -0.270 OA
ATOM      3  N   UNL     1      -0.065  -4.071   2.159  0.00  0.00    -0.296 N 
ATOM      4  C   UNL     1       0.002  -4.906   0.936  0.00  0.00    +0.121 C 
ATOM      5  C   UNL     1       0.754  -6.182   1.375  0.00  0.00    +0.100 C 
ATOM      6  C   UNL     1       0.533  -6.264   2.895  0.00  0.00    -0.004 C 
ATOM      7  C   UNL     1      -0.321  -5.039   3.252  0.00  0.00    +0.115 C 
ATOM      8  C   UNL     1       1.870  -6.200   3.628  0.00  0.00    -0.010 C 
ATOM      9  C   UNL     1       1.629  -6.341   5.133  0.00  0.00    -0.082 C 
ATOM     10  N   UNL     1       0.959  -7.618   5.406  0.00  0.00    +0.379 N 
ATOM     11  C   UNL     1      -0.365  -7.635   4.774  0.00  0.00    -0.082 C 
ATOM     12  C   UNL     1      -0.208  -7.548   3.253  0.00  0.00    -0.010 C 
ATOM     13  H   UNL     1       1.517  -8.374   5.036  0.00  0.00    -0.086 HD
ATOM     14  H   UNL     1       0.856  -7.737   6.403  0.00  0.00    -0.086 HD
ENDROOT
BRANCH   1  20
ATOM     15  C   UNL     1       1.367   1.547   0.039  0.00  0.00    +0.044 C 
ATOM     16  C   UNL     1       0.819   0.145  -0.039  0.00  0.00    -0.050 A 
ATOM     17  C   UNL     1       0.427  -0.376  -1.260  0.00  0.00    +0.003 A 
ATOM     18  C   UNL     1      -0.076  -1.661  -1.341  0.00  0.00    +0.001 A 
ATOM     19  C   UNL     1      -0.192  -2.433  -0.203  0.00  0.00    +0.013 A 
ATOM     20  C   UNL     1       0.201  -1.914   1.032  0.00  0.00    +0.037 A 
ATOM     21  C   UNL     1       0.714  -0.617   1.105  0.00  0.00    +0.016 A 
ENDBRANCH   1  20
BRANCH   5  22
ATOM     22  C   UNL     1       2.223  -6.059   1.062  0.00  0.00    +0.218 C 
ATOM     23  O   UNL     1       2.769  -4.978   1.129  0.00  0.00    -0.275 OA
ATOM     24  N   UNL     1       2.931  -7.150   0.709  0.00  0.00    -0.311 N 
ATOM     25  H   UNL     1       2.513  -8.025   0.725  0.00  0.00    +0.149 HD
BRANCH  24  26
ATOM     26  C   UNL     1       4.331  -7.014   0.300  0.00  0.00    +0.141 C 
BRANCH  26  27
ATOM     27  C   UNL     1       4.853  -8.352  -0.158  0.00  0.00    -0.009 A 
ATOM     28  C   UNL     1       5.647  -9.109   0.681  0.00  0.00    +0.007 A 
ATOM     29  C   UNL     1       6.126 -10.336   0.262  0.00  0.00    +0.000 A 
ATOM     30  C   UNL     1       5.812 -10.810  -0.999  0.00  0.00    +0.002 A 
ATOM     31  C   UNL     1       5.018 -10.059  -1.843  0.00  0.00    +0.023 A 
ATOM     32  C   UNL     1       4.530  -8.828  -1.422  0.00  0.00    +0.034 A 
BRANCH  32  33
ATOM     33  N   UNL     1       3.723  -8.068  -2.271  0.00  0.00    -0.330 N 
ATOM     34  C   UNL     1       4.322  -7.171  -3.270  0.00  0.00    +0.105 C 
ATOM     35  C   UNL     1       3.738  -7.506  -4.646  0.00  0.00    +0.019 C 
ATOM     36  C   UNL     1       2.210  -7.440  -4.578  0.00  0.00    +0.003 C 
ATOM     37  C   UNL     1       1.698  -8.473  -3.571  0.00  0.00    +0.019 C 
ATOM     38  C   UNL     1       2.259  -8.153  -2.187  0.00  0.00    +0.105 C 
ENDBRANCH  32  33
ENDBRANCH  26  27
ENDBRANCH  24  26
ENDBRANCH   5  22
TORSDOF 5
