REMARK  Name = ZINC38547852
REMARK  10 active torsions:
REMARK  status: ('A' for Active; 'I' for Inactive)
REMARK    1  A    between atoms: C_1  and  C_2
REMARK    2  A    between atoms: C_2  and  C_3
REMARK    3  A    between atoms: C_5  and  C_16
REMARK    4  A    between atoms: C_6  and  N_8
REMARK    5  A    between atoms: C_9  and  C_11
REMARK    6  A    between atoms: C_16  and  C_18
REMARK    7  A    between atoms: C_16  and  N_27
REMARK    8  A    between atoms: C_21  and  O_24
REMARK    9  A    between atoms: O_24  and  C_25
REMARK   10  A    between atoms: C_25  and  C_26
REMARK                            x       y       z     vdW  Elec       q    Type
REMARK                         _______ _______ _______ _____ _____    ______ ____
ROOT
ATOM      1  C   UNL     1      -4.311  -1.602  -2.046  0.00  0.00    +0.135 C 
ENDROOT
BRANCH   1   2
ATOM      2  N   UNL     1      -3.724  -2.063  -3.306  0.00  0.00    -0.320 N 
ATOM      3  C   UNL     1      -3.408  -3.406  -3.475  0.00  0.00    +0.097 A 
ATOM      4  C   UNL     1      -3.584  -4.294  -2.419  0.00  0.00    +0.041 A 
ATOM      5  C   UNL     1      -3.267  -5.628  -2.601  0.00  0.00    +0.005 A 
ATOM      6  C   UNL     1      -2.781  -6.030  -3.838  0.00  0.00    +0.018 A 
ATOM      7  C   UNL     1      -2.632  -5.096  -4.843  0.00  0.00    +0.084 A 
ATOM      8  N   UNL     1      -2.948  -3.830  -4.642  0.00  0.00    -0.350 N 
ATOM      9  H   UNL     1      -3.555  -1.431  -4.022  0.00  0.00    +0.148 HD
ATOM     10  H   UNL     1      -2.837  -3.194  -5.366  0.00  0.00    +0.166 HD
ENDBRANCH   1   2
BRANCH   1  11
ATOM     11  C   UNL     1      -5.116  -0.353  -2.294  0.00  0.00    -0.023 A 
ATOM     12  C   UNL     1      -4.594   0.661  -3.076  0.00  0.00    +0.009 A 
ATOM     13  C   UNL     1      -5.330   1.807  -3.305  0.00  0.00    +0.046 A 
ATOM     14  C   UNL     1      -6.595   1.940  -2.751  0.00  0.00    +0.121 A 
ATOM     15  C   UNL     1      -7.117   0.922  -1.967  0.00  0.00    +0.046 A 
ATOM     16  C   UNL     1      -6.379  -0.225  -1.745  0.00  0.00    +0.009 A 
BRANCH  14  17
ATOM     17  O   UNL     1      -7.321   3.067  -2.974  0.00  0.00    -0.492 OA
BRANCH  17  18
ATOM     18  C   UNL     1      -8.615   3.135  -2.372  0.00  0.00    +0.225 C 
ATOM     19  C   UNL     1      -9.277   4.467  -2.733  0.00  0.00    +0.048 C 
ENDBRANCH  17  18
ENDBRANCH  14  17
ENDBRANCH   1  11
BRANCH   1  22
ATOM     20  C   UNL     1      -0.982  -0.691  -0.585  0.00  0.00    -0.008 A 
ATOM     21  C   UNL     1      -1.947  -0.954  -1.498  0.00  0.00    +0.019 A 
ATOM     22  C   UNL     1      -3.211  -1.302  -1.059  0.00  0.00    +0.006 A 
ATOM     23  C   UNL     1      -3.445  -1.369   0.281  0.00  0.00    +0.078 A 
ATOM     24  S   UNL     1      -1.849  -0.940   0.956  0.00  0.00    -0.078 S 
BRANCH  23  25
ATOM     25  N   UNL     1      -4.625  -1.694   0.953  0.00  0.00    -0.273 N 
ATOM     26  C   UNL     1      -4.652  -1.705   2.301  0.00  0.00    +0.284 C 
ATOM     27  O   UNL     1      -3.648  -1.430   2.932  0.00  0.00    -0.266 OA
ATOM     28  H   UNL     1      -5.425  -1.913   0.450  0.00  0.00    +0.156 HD
BRANCH  26  29
ATOM     29  C   UNL     1      -5.891  -2.046   3.006  0.00  0.00    +0.189 A 
ATOM     30  C   UNL     1      -6.058  -2.089   4.361  0.00  0.00    +0.054 A 
ATOM     31  C   UNL     1      -7.392  -2.458   4.593  0.00  0.00    +0.042 A 
ATOM     32  C   UNL     1      -7.975  -2.622   3.384  0.00  0.00    +0.196 A 
ATOM     33  O   UNL     1      -7.069  -2.368   2.431  0.00  0.00    -0.458 OA
ENDBRANCH  26  29
ENDBRANCH  23  25
BRANCH  20  35
ATOM     34  C   UNL     1       0.560   1.229  -0.877  0.00  0.00    +0.009 C 
ATOM     35  C   UNL     1       0.455  -0.296  -0.811  0.00  0.00    +0.039 C 
ENDBRANCH  20  35
ENDBRANCH   1  22
TORSDOF 8
