REMARK  Name = ZINC63873907
REMARK  11 active torsions:
REMARK  status: ('A' for Active; 'I' for Inactive)
REMARK    1  A    between atoms: C_1  and  C_2
REMARK    2  A    between atoms: C_5  and  C_9
REMARK    3  A    between atoms: C_6  and  C_8
REMARK    4  A    between atoms: N_11  and  N_12
REMARK    5  A    between atoms: C_13  and  C_15
REMARK    6  A    between atoms: C_15  and  C_17
REMARK    7  A    between atoms: C_15  and  N_27
REMARK    8  A    between atoms: C_17  and  C_18
REMARK    9  A    between atoms: C_28  and  O_30
REMARK   10  A    between atoms: O_30  and  C_31
REMARK   11  A    between atoms: C_31  and  C_32
REMARK                            x       y       z     vdW  Elec       q    Type
REMARK                         _______ _______ _______ _____ _____    ______ ____
ROOT
ATOM      1  C   UNL     1      -6.484  -5.135   0.177  0.00  0.00    +0.168 C 
ENDROOT
BRANCH   1   3
ATOM      2  N   UNL     1      -4.136  -4.361   0.101  0.00  0.00    -0.233 N 
ATOM      3  C   UNL     1      -5.408  -4.200  -0.313  0.00  0.00    +0.250 C 
ATOM      4  O   UNL     1      -5.687  -3.304  -1.081  0.00  0.00    -0.272 OA
ATOM      5  H   UNL     1      -3.913  -5.079   0.715  0.00  0.00    +0.173 HD
BRANCH   2   8
ATOM      6  C   UNL     1      -1.863  -3.654   0.060  0.00  0.00    +0.259 C 
ATOM      7  O   UNL     1      -1.583  -4.554   0.830  0.00  0.00    -0.269 OA
ATOM      8  N   UNL     1      -3.135  -3.493  -0.355  0.00  0.00    -0.230 N 
ATOM      9  H   UNL     1      -3.358  -2.776  -0.969  0.00  0.00    +0.173 HD
BRANCH   6  13
ATOM     10  C   UNL     1       0.662   0.190  -1.923  0.00  0.00    +0.052 C 
ATOM     11  C   UNL     1       0.430  -1.315  -1.776  0.00  0.00    +0.174 C 
ATOM     12  C   UNL     1      -1.032  -1.609  -1.359  0.00  0.00    +0.088 C 
ATOM     13  C   UNL     1      -0.851  -2.775  -0.402  0.00  0.00    +0.056 C 
ATOM     14  C   UNL     1       0.452  -2.814  -0.075  0.00  0.00    +0.103 C 
ATOM     15  O   UNL     1       1.177  -1.843  -0.664  0.00  0.00    -0.493 OA
ATOM     16  C   UNL     1       1.045  -3.842   0.854  0.00  0.00    +0.086 C 
ENDBRANCH   6  13
ENDBRANCH   2   8
ENDBRANCH   1   3
BRANCH   1  17
ATOM     17  N   UNL     1      -7.769  -4.752  -0.414  0.00  0.00    -0.269 N 
ATOM     18  C   UNL     1      -8.727  -5.682  -0.603  0.00  0.00    +0.401 C 
ATOM     19  O   UNL     1      -8.524  -6.837  -0.284  0.00  0.00    -0.226 OA
ATOM     20  H   UNL     1      -7.931  -3.831  -0.669  0.00  0.00    +0.153 HD
BRANCH  18  21
ATOM     21  O   UNL     1      -9.908  -5.330  -1.146  0.00  0.00    -0.446 OA
BRANCH  21  22
ATOM     22  C   UNL     1     -10.876  -6.367  -1.318  0.00  0.00    +0.269 C 
BRANCH  22  23
ATOM     23  C   UNL     1     -12.125  -5.790  -1.935  0.00  0.00    -0.010 A 
ATOM     24  C   UNL     1     -13.130  -5.295  -1.125  0.00  0.00    +0.007 A 
ATOM     25  C   UNL     1     -14.275  -4.766  -1.691  0.00  0.00    +0.000 A 
ATOM     26  C   UNL     1     -14.415  -4.732  -3.066  0.00  0.00    +0.000 A 
ATOM     27  C   UNL     1     -13.409  -5.227  -3.875  0.00  0.00    +0.000 A 
ATOM     28  C   UNL     1     -12.262  -5.752  -3.309  0.00  0.00    +0.007 A 
ENDBRANCH  22  23
ENDBRANCH  21  22
ENDBRANCH  18  21
ENDBRANCH   1  17
BRANCH   1  29
ATOM     29  C   UNL     1      -6.578  -5.048   1.702  0.00  0.00    +0.065 C 
BRANCH  29  30
ATOM     30  C   UNL     1      -6.972  -3.650   2.103  0.00  0.00    -0.039 C 
ATOM     31  C   UNL     1      -8.222  -3.197   2.350  0.00  0.00    -0.001 A 
ATOM     32  C   UNL     1      -9.539  -3.845   2.321  0.00  0.00    +0.010 A 
ATOM     33  C   UNL     1     -10.636  -3.115   2.623  0.00  0.00    +0.001 A 
ATOM     34  C   UNL     1     -10.548  -1.758   2.963  0.00  0.00    +0.002 A 
ATOM     35  C   UNL     1      -9.374  -1.093   3.012  0.00  0.00    +0.026 A 
ATOM     36  C   UNL     1      -8.156  -1.763   2.713  0.00  0.00    +0.043 A 
ATOM     37  N   UNL     1      -6.913  -1.346   2.690  0.00  0.00    -0.380 N 
ATOM     38  C   UNL     1      -6.049  -2.471   2.316  0.00  0.00    +0.144 C 
ATOM     39  H   UNL     1      -6.615  -0.445   2.890  0.00  0.00    +0.160 HD
ENDBRANCH  29  30
ENDBRANCH   1  29
TORSDOF 9
