REMARK  Name = ZINC22936777
REMARK  12 active torsions:
REMARK  status: ('A' for Active; 'I' for Inactive)
REMARK    1  A    between atoms: C_1  and  O_2
REMARK    2  A    between atoms: O_2  and  C_3
REMARK    3  A    between atoms: C_6  and  C_9
REMARK    4  A    between atoms: C_9  and  N_10
REMARK    5  A    between atoms: N_10  and  C_11
REMARK    6  A    between atoms: C_20  and  C_24
REMARK    7  A    between atoms: C_24  and  C_25
REMARK    8  A    between atoms: C_25  and  C_26
REMARK    9  A    between atoms: N_28  and  C_29
REMARK   10  A    between atoms: C_29  and  C_30
REMARK   11  A    between atoms: C_33  and  O_36
REMARK   12  A    between atoms: O_36  and  C_37
REMARK                            x       y       z     vdW  Elec       q    Type
REMARK                         _______ _______ _______ _____ _____    ______ ____
ROOT
ATOM      1  C   UNL     1       2.115  -3.222   6.538  0.00  0.00    +0.036 C 
ATOM      2  C   UNL     1       2.736  -2.226   7.559  0.00  0.00    +0.010 C 
ATOM      3  C   UNL     1       2.480  -2.944   8.892  0.00  0.00    +0.021 C 
ATOM      4  C   UNL     1       2.471  -2.068  10.101  0.00  0.00    +0.200 C 
ATOM      5  O   UNL     1       3.207  -1.107  10.171  0.00  0.00    -0.278 OA
ATOM      6  N   UNL     1       1.630  -2.361  11.113  0.00  0.00    -0.318 N 
ATOM      7  C   UNL     1       0.626  -3.417  11.069  0.00  0.00    +0.089 C 
ATOM      8  C   UNL     1       0.783  -4.313   9.832  0.00  0.00    -0.050 C 
ATOM      9  N   UNL     1       1.100  -3.468   8.697  0.00  0.00    +0.391 N 
ATOM     10  C   UNL     1       1.104  -4.061   7.361  0.00  0.00    -0.059 C 
ATOM     11  H   UNL     1       1.698  -1.835  11.925  0.00  0.00    +0.149 HD
ATOM     12  H   UNL     1       0.455  -2.692   8.695  0.00  0.00    -0.080 HD
ENDROOT
BRANCH   1  13
ATOM     13  N   UNL     1       1.422  -2.492   5.469  0.00  0.00    -0.311 NA
ATOM     14  H   UNL     1       0.974  -1.662   5.829  0.00  0.00    +0.122 HD
BRANCH  13  15
ATOM     15  C   UNL     1       2.345  -2.159   4.375  0.00  0.00    +0.116 C 
BRANCH  15  19
ATOM     16  C   UNL     1       0.233  -0.041   1.323  0.00  0.00    +0.120 A 
ATOM     17  C   UNL     1       0.840   0.655   2.359  0.00  0.00    +0.046 A 
ATOM     18  C   UNL     1       1.522  -0.032   3.344  0.00  0.00    +0.008 A 
ATOM     19  C   UNL     1       1.600  -1.412   3.299  0.00  0.00    -0.033 A 
ATOM     20  C   UNL     1       0.996  -2.107   2.268  0.00  0.00    +0.008 A 
ATOM     21  C   UNL     1       0.307  -1.425   1.284  0.00  0.00    +0.046 A 
BRANCH  16  23
ATOM     22  C   UNL     1      -0.475   2.058   0.458  0.00  0.00    +0.277 C 
ATOM     23  O   UNL     1      -0.439   0.633   0.353  0.00  0.00    -0.495 OA
ENDBRANCH  16  23
ENDBRANCH  15  19
ENDBRANCH  13  15
ENDBRANCH   1  13
BRANCH   8  24
ATOM     24  C   UNL     1      -0.521  -5.068   9.567  0.00  0.00    -0.005 C 
BRANCH  24  25
ATOM     25  C   UNL     1      -0.791  -6.038  10.719  0.00  0.00    +0.094 C 
BRANCH  25  26
ATOM     26  C   UNL     1      -2.007  -6.870  10.400  0.00  0.00    +0.213 C 
ATOM     27  O   UNL     1      -2.600  -6.702   9.356  0.00  0.00    -0.276 OA
ATOM     28  N   UNL     1      -2.436  -7.799  11.277  0.00  0.00    -0.311 N 
ATOM     29  H   UNL     1      -1.962  -7.933  12.113  0.00  0.00    +0.149 HD
BRANCH  28  30
ATOM     30  C   UNL     1      -3.619  -8.607  10.968  0.00  0.00    +0.139 C 
BRANCH  30  31
ATOM     31  C   UNL     1      -3.885  -9.563  12.102  0.00  0.00    -0.030 A 
ATOM     32  C   UNL     1      -3.304 -10.818  12.097  0.00  0.00    +0.009 A 
ATOM     33  C   UNL     1      -3.547 -11.696  13.136  0.00  0.00    +0.046 A 
ATOM     34  C   UNL     1      -4.373 -11.318  14.184  0.00  0.00    +0.120 A 
ATOM     35  C   UNL     1      -4.954 -10.058  14.187  0.00  0.00    +0.046 A 
ATOM     36  C   UNL     1      -4.704  -9.181  13.148  0.00  0.00    +0.009 A 
BRANCH  34  37
ATOM     37  O   UNL     1      -4.613 -12.180  15.206  0.00  0.00    -0.495 OA
ATOM     38  C   UNL     1      -5.474 -11.723  16.252  0.00  0.00    +0.277 C 
ENDBRANCH  34  37
ENDBRANCH  30  31
ENDBRANCH  28  30
ENDBRANCH  25  26
ENDBRANCH  24  25
ENDBRANCH   8  24
TORSDOF 10
