REMARK  Name = ZINC08432397
REMARK  7 active torsions:
REMARK  status: ('A' for Active; 'I' for Inactive)
REMARK    1  A    between atoms: C_1  and  O_2
REMARK    2  A    between atoms: O_2  and  C_3
REMARK    3  A    between atoms: C_3  and  C_5
REMARK    4  A    between atoms: C_5  and  N_51
REMARK    5  A    between atoms: C_6  and  C_27
REMARK    6  A    between atoms: C_15  and  C_17
REMARK    7  A    between atoms: C_20  and  N_23
REMARK                            x       y       z     vdW  Elec       q    Type
REMARK                         _______ _______ _______ _____ _____    ______ ____
ROOT
ATOM      1  C   UNL     1      -3.138   2.944  -2.171  0.00  0.00    -0.001 C 
ATOM      2  C   UNL     1      -2.673   4.242  -2.777  0.00  0.00    -0.035 A 
ATOM      3  C   UNL     1      -2.650   4.384  -4.153  0.00  0.00    +0.019 A 
ATOM      4  C   UNL     1      -2.222   5.569  -4.722  0.00  0.00    +0.018 A 
ATOM      5  C   UNL     1      -1.815   6.620  -3.919  0.00  0.00    +0.017 A 
ATOM      6  C   UNL     1      -1.837   6.486  -2.544  0.00  0.00    +0.024 A 
ATOM      7  C   UNL     1      -2.267   5.297  -1.972  0.00  0.00    +0.028 A 
ATOM      8  N   UNL     1      -2.290   5.161  -0.578  0.00  0.00    -0.353 N 
ATOM      9  C   UNL     1      -2.470   3.814  -0.015  0.00  0.00    +0.049 C 
ATOM     10 BR   UNL     1      -2.193   5.754  -6.603  0.00  0.00    -0.050 Br
ATOM     11  H   UNL     1      -2.191   5.934  -0.000  0.00  0.00    +0.145 HD
ATOM     12  N   UNL     1      -3.561   3.161  -0.774  0.00  0.00    +0.409 N 
ATOM     13  H   UNL     1      -4.386   3.772  -0.766  0.00  0.00    -0.076 HD
ENDROOT
BRANCH   9  14
ATOM     14  C   UNL     1      -1.187   3.034  -0.142  0.00  0.00    -0.044 A 
ATOM     15  C   UNL     1      -0.403   3.173  -1.272  0.00  0.00    +0.006 A 
ATOM     16  C   UNL     1       0.771   2.452  -1.391  0.00  0.00    +0.033 A 
ATOM     17  C   UNL     1       1.165   1.600  -0.376  0.00  0.00    +0.126 A 
ATOM     18  C   UNL     1       0.383   1.464   0.755  0.00  0.00    +0.033 A 
ATOM     19  C   UNL     1      -0.793   2.181   0.873  0.00  0.00    +0.006 A 
BRANCH  17  20
ATOM     20  N   UNL     1       2.425   0.833  -0.501  0.00  0.00    +0.056 N 
ATOM     21  O   UNL     1       3.114   0.953  -1.498  0.00  0.00    -0.126 OA
ATOM     22  O   UNL     1       2.772   0.083   0.393  0.00  0.00    -0.126 OA
ENDBRANCH  17  20
ENDBRANCH   9  14
BRANCH   1  23
ATOM     23  C   UNL     1      -4.312   2.420  -2.957  0.00  0.00    -0.057 A 
ATOM     24  C   UNL     1      -5.577   2.932  -2.734  0.00  0.00    +0.002 A 
ATOM     25  C   UNL     1      -6.653   2.455  -3.458  0.00  0.00    +0.000 A 
ATOM     26  C   UNL     1      -6.467   1.458  -4.398  0.00  0.00    +0.000 A 
ATOM     27  C   UNL     1      -5.204   0.942  -4.616  0.00  0.00    +0.000 A 
ATOM     28  C   UNL     1      -4.126   1.423  -3.896  0.00  0.00    +0.002 A 
ENDBRANCH   1  23
BRANCH  12  29
ATOM     29  C   UNL     1      -3.912   1.870  -0.146  0.00  0.00    +0.048 C 
BRANCH  29  30
ATOM     30  C   UNL     1      -4.752   2.140   1.076  0.00  0.00    +0.290 C 
ATOM     31  O   UNL     1      -5.013   3.277   1.391  0.00  0.00    -0.253 OA
BRANCH  30  33
ATOM     32  C   UNL     1      -6.013   1.452   2.978  0.00  0.00    +0.280 C 
ATOM     33  O   UNL     1      -5.210   1.118   1.815  0.00  0.00    -0.469 OA
ENDBRANCH  30  33
ENDBRANCH  29  30
ENDBRANCH  12  29
TORSDOF 6
