REMARK  Name = ZINC38581770
REMARK  7 active torsions:
REMARK  status: ('A' for Active; 'I' for Inactive)
REMARK    1  A    between atoms: C_1  and  C_2
REMARK    2  A    between atoms: C_4  and  C_25
REMARK    3  A    between atoms: C_30  and  O_31
REMARK    4  A    between atoms: O_31  and  C_32
REMARK    5  A    between atoms: C_32  and  C_33
REMARK    6  A    between atoms: C_33  and  C_34
REMARK    7  A    between atoms: C_33  and  C_35
REMARK                            x       y       z     vdW  Elec       q    Type
REMARK                         _______ _______ _______ _____ _____    ______ ____
ROOT
ATOM      1  C   UNL     1       0.050   1.227  -0.522  0.00  0.00    +0.062 C 
ATOM      2  C   UNL     1      -0.080  -0.274  -0.469  0.00  0.00    +0.023 C 
ATOM      3  C   UNL     1      -1.178  -0.908  -0.147  0.00  0.00    +0.005 C 
ATOM      4  C   UNL     1      -2.506  -0.309   0.291  0.00  0.00    +0.111 C 
ATOM      5  S   UNL     1      -3.812  -1.499  -0.159  0.00  0.00    -0.139 S 
ATOM      6  C   UNL     1      -3.704  -2.800   1.088  0.00  0.00    +0.165 C 
ATOM      7  C   UNL     1      -2.372  -3.106   1.606  0.00  0.00    +0.225 C 
ATOM      8  O   UNL     1      -2.365  -3.561   2.730  0.00  0.00    -0.275 OA
ATOM      9  N   UNL     1      -1.180  -2.974   1.068  0.00  0.00    -0.291 N 
ATOM     10  C   UNL     1      -0.910  -2.390  -0.239  0.00  0.00    +0.210 C 
ATOM     11  N   UNL     1       0.521  -2.479  -0.570  0.00  0.00    -0.213 N 
ATOM     12  N   UNL     1       0.947  -1.155  -0.763  0.00  0.00    -0.265 N 
ATOM     13  C   UNL     1       1.265  -3.599  -0.671  0.00  0.00    +0.150 C 
ATOM     14  N   UNL     1       0.738  -4.794  -0.474  0.00  0.00    -0.221 NA
ATOM     15  C   UNL     1       1.436  -5.924  -0.498  0.00  0.00    +0.225 C 
ATOM     16  N   UNL     1       2.761  -5.945  -0.404  0.00  0.00    -0.218 NA
ATOM     17  C   UNL     1       3.360  -4.760  -0.353  0.00  0.00    +0.164 C 
ATOM     18  N   UNL     1       4.437  -4.309   0.217  0.00  0.00    -0.219 NA
ATOM     19  C   UNL     1       4.432  -2.971   0.279  0.00  0.00    +0.218 C 
ATOM     20  N   UNL     1       3.448  -2.431  -0.384  0.00  0.00    -0.253 NA
ATOM     21  C   UNL     1       2.728  -3.536  -1.020  0.00  0.00    +0.239 C 
ATOM     22  H   UNL     1      -0.421  -3.292   1.581  0.00  0.00    +0.151 HD
ATOM     23  H   UNL     1       1.834  -0.896  -1.057  0.00  0.00    +0.170 HD
ENDROOT
BRANCH   4  24
ATOM     24  C   UNL     1      -2.737   1.000  -0.418  0.00  0.00    +0.011 A 
ATOM     25  C   UNL     1      -2.526   2.193   0.247  0.00  0.00    +0.008 A 
ATOM     26  C   UNL     1      -2.738   3.394  -0.403  0.00  0.00    +0.001 A 
ATOM     27  C   UNL     1      -3.161   3.406  -1.719  0.00  0.00    +0.004 A 
ATOM     28  C   UNL     1      -3.373   2.217  -2.388  0.00  0.00    +0.046 A 
ATOM     29  C   UNL     1      -3.155   1.009  -1.740  0.00  0.00    +0.125 A 
BRANCH  29  30
ATOM     30  O   UNL     1      -3.357  -0.163  -2.398  0.00  0.00    -0.491 OA
BRANCH  30  31
ATOM     31  C   UNL     1      -3.788  -0.077  -3.758  0.00  0.00    +0.232 C 
BRANCH  31  32
ATOM     32  C   UNL     1      -3.961  -1.486  -4.328  0.00  0.00    +0.020 C 
ATOM     33  C   UNL     1      -5.094  -2.200  -3.588  0.00  0.00    +0.010 C 
ATOM     34  C   UNL     1      -4.301  -1.396  -5.817  0.00  0.00    +0.010 C 
ENDBRANCH  31  32
ENDBRANCH  30  31
ENDBRANCH  29  30
ENDBRANCH   4  24
TORSDOF 4
