REMARK  Name = ZINC22938741
REMARK  8 active torsions:
REMARK  status: ('A' for Active; 'I' for Inactive)
REMARK    1  A    between atoms: C_4  and  C_7
REMARK    2  A    between atoms: C_7  and  N_8
REMARK    3  A    between atoms: N_11  and  C_14
REMARK    4  A    between atoms: C_14  and  C_15
REMARK    5  A    between atoms: C_15  and  C_16
REMARK    6  A    between atoms: N_18  and  N_19
REMARK    7  A    between atoms: C_20  and  C_22
REMARK    8  A    between atoms: C_23  and  C_24
REMARK                            x       y       z     vdW  Elec       q    Type
REMARK                         _______ _______ _______ _____ _____    ______ ____
ROOT
ATOM      1  C   UNL     1       4.801   1.226  -0.037  0.00  0.00    +0.230 C 
ATOM      2  O   UNL     1       4.817   0.013  -0.044  0.00  0.00    -0.274 OA
ATOM      3  N   UNL     1       3.624   1.884  -0.022  0.00  0.00    -0.234 N 
ATOM      4  H   UNL     1       3.610   2.984  -0.016  0.00  0.00    +0.173 HD
ENDROOT
BRANCH   3   5
ATOM      5  N   UNL     1       2.421   1.167  -0.015  0.00  0.00    -0.231 N 
ATOM      6  C   UNL     1       1.245   1.825   0.000  0.00  0.00    +0.253 C 
ATOM      7  O   UNL     1       1.228   3.042   0.007  0.00  0.00    -0.269 OA
ATOM      8  H   UNL     1       2.436   0.067  -0.021  0.00  0.00    +0.173 HD
BRANCH   6   9
ATOM      9  C   UNL     1      -0.013   1.076   0.008  0.00  0.00    +0.069 C 
ATOM     10  C   UNL     1      -1.190   1.734   0.017  0.00  0.00    +0.014 C 
BRANCH  10  11
ATOM     11  C   UNL     1      -2.454   0.982   0.019  0.00  0.00    -0.006 A 
ATOM     12  C   UNL     1      -2.439  -0.417   0.006  0.00  0.00    +0.011 A 
ATOM     13  C   UNL     1      -3.626  -1.116   0.013  0.00  0.00    +0.020 A 
ATOM     14  C   UNL     1      -4.835  -0.437   0.023  0.00  0.00    +0.042 A 
ATOM     15  C   UNL     1      -4.859   0.948   0.030  0.00  0.00    +0.040 A 
ATOM     16  C   UNL     1      -3.677   1.661   0.029  0.00  0.00    +0.049 A 
ATOM     17 CL   UNL     1      -3.709   3.397   0.037  0.00  0.00    -0.083 Cl
ATOM     18 CL   UNL     1      -6.325  -1.326   0.026  0.00  0.00    -0.083 Cl
ENDBRANCH  10  11
ENDBRANCH   6   9
ENDBRANCH   3   5
BRANCH   1  19
ATOM     19  C   UNL     1       6.095   1.997  -0.045  0.00  0.00    +0.112 C 
BRANCH  19  20
ATOM     20  C   UNL     1       7.272   1.019  -0.062  0.00  0.00    +0.093 C 
BRANCH  20  24
ATOM     21  N   UNL     1      11.121   2.459  -1.036  0.00  0.00    +0.384 N 
ATOM     22  C   UNL     1      10.964   1.708   0.216  0.00  0.00    -0.063 C 
ATOM     23  C   UNL     1       9.680   0.878   0.153  0.00  0.00    +0.066 C 
ATOM     24  N   UNL     1       8.534   1.770  -0.070  0.00  0.00    -0.305 NA
ATOM     25  C   UNL     1       8.691   2.522  -1.323  0.00  0.00    +0.066 C 
ATOM     26  C   UNL     1       9.975   3.352  -1.259  0.00  0.00    -0.063 C 
ATOM     27  H   UNL     1      11.155   1.736  -1.865  0.00  0.00    -0.081 HD
BRANCH  21  28
ATOM     28  C   UNL     1      12.383   3.211  -1.044  0.00  0.00    -0.043 C 
BRANCH  28  32
ATOM     29  C   UNL     1      12.429   5.883  -4.377  0.00  0.00    +0.000 A 
ATOM     30  C   UNL     1      11.919   6.302  -3.163  0.00  0.00    +0.000 A 
ATOM     31  C   UNL     1      11.904   5.437  -2.084  0.00  0.00    +0.002 A 
ATOM     32  C   UNL     1      12.399   4.154  -2.220  0.00  0.00    -0.064 A 
ATOM     33  C   UNL     1      12.915   3.737  -3.433  0.00  0.00    +0.002 A 
ATOM     34  C   UNL     1      12.925   4.599  -4.513  0.00  0.00    +0.000 A 
ENDBRANCH  28  32
ENDBRANCH  21  28
ENDBRANCH  20  24
ENDBRANCH  19  20
ENDBRANCH   1  19
TORSDOF 8
