REMARK  Name = ZINC09044575
REMARK  7 active torsions:
REMARK  status: ('A' for Active; 'I' for Inactive)
REMARK    1  A    between atoms: C_1  and  C_2
REMARK    2  A    between atoms: C_2  and  C_3
REMARK    3  A    between atoms: C_3  and  C_4
REMARK    4  A    between atoms: C_4  and  N_5
REMARK    5  A    between atoms: C_10  and  C_27
REMARK    6  A    between atoms: C_27  and  C_28
REMARK    7  A    between atoms: C_28  and  C_29
REMARK                            x       y       z     vdW  Elec       q    Type
REMARK                         _______ _______ _______ _____ _____    ______ ____
ROOT
ATOM      1  N   UNL     1       1.792   1.462  -1.299  0.00  0.00    -0.242 N 
ATOM      2  C   UNL     1       0.755   1.247  -2.172  0.00  0.00    +0.224 C 
ATOM      3  O   UNL     1       0.823   0.847  -3.314  0.00  0.00    -0.275 OA
ATOM      4  C   UNL     1      -0.453   1.606  -1.420  0.00  0.00    +0.073 C 
ATOM      5  C   UNL     1      -1.846   1.073  -1.488  0.00  0.00    -0.057 C 
ATOM      6  C   UNL     1      -1.204   1.565   0.767  0.00  0.00    +0.050 C 
ATOM      7  C   UNL     1      -0.013   1.086   0.008  0.00  0.00    +0.088 C 
ATOM      8  C   UNL     1       1.368   1.598  -0.002  0.00  0.00    +0.225 C 
ATOM      9  O   UNL     1       1.995   2.044   0.934  0.00  0.00    -0.275 OA
ATOM     10  C   UNL     1      -1.212   3.046   1.021  0.00  0.00    -0.026 A 
ATOM     11  C   UNL     1      -1.112   4.149   0.203  0.00  0.00    +0.004 A 
ATOM     12  C   UNL     1      -1.152   5.421   0.745  0.00  0.00    +0.002 A 
ATOM     13  C   UNL     1      -1.294   5.582   2.112  0.00  0.00    +0.022 A 
ATOM     14  C   UNL     1      -1.394   4.480   2.937  0.00  0.00    +0.062 A 
ATOM     15  C   UNL     1      -1.354   3.195   2.397  0.00  0.00    +0.054 A 
ATOM     16  N   UNL     1      -1.435   1.944   3.013  0.00  0.00    -0.285 N 
ATOM     17  C   UNL     1      -1.355   0.935   2.124  0.00  0.00    +0.211 C 
ATOM     18  O   UNL     1      -1.398  -0.252   2.371  0.00  0.00    -0.277 OA
ATOM     19 CL   UNL     1      -1.570   4.695   4.650  0.00  0.00    -0.082 Cl
ATOM     20  H   UNL     1      -1.535   1.817   3.970  0.00  0.00    +0.155 HD
ATOM     21  N   UNL     1      -2.337   1.165  -0.085  0.00  0.00    +0.394 N 
ATOM     22  H   UNL     1      -2.696   0.252   0.219  0.00  0.00    -0.083 HD
ATOM     23  H   UNL     1      -3.085   1.865  -0.022  0.00  0.00    -0.083 HD
ENDROOT
BRANCH   1  24
ATOM     24  C   UNL     1       3.197   1.539  -1.708  0.00  0.00    +0.116 C 
BRANCH  24  25
ATOM     25  C   UNL     1       3.819   0.142  -1.658  0.00  0.00    +0.019 C 
BRANCH  25  27
ATOM     26  C   UNL     1       5.909  -1.175  -2.035  0.00  0.00    +0.004 C 
ATOM     27  C   UNL     1       5.286   0.222  -2.085  0.00  0.00    -0.002 C 
ENDBRANCH  25  27
ENDBRANCH  24  25
ENDBRANCH   1  24
BRANCH   5  28
ATOM     28  C   UNL     1      -1.838  -0.380  -1.966  0.00  0.00    -0.006 C 
BRANCH  28  29
ATOM     29  C   UNL     1      -3.278  -0.865  -2.147  0.00  0.00    +0.094 C 
BRANCH  29  30
ATOM     30  C   UNL     1      -3.271  -2.296  -2.617  0.00  0.00    +0.210 C 
ATOM     31  O   UNL     1      -2.218  -2.873  -2.790  0.00  0.00    -0.276 OA
ATOM     32  N   UNL     1      -4.435  -2.937  -2.846  0.00  0.00    -0.329 N 
ATOM     33  H   UNL     1      -5.277  -2.476  -2.708  0.00  0.00    +0.145 HD
ATOM     34  H   UNL     1      -4.430  -3.858  -3.148  0.00  0.00    +0.145 HD
ENDBRANCH  29  30
ENDBRANCH  28  29
ENDBRANCH   5  28
TORSDOF 6
