REMARK  Name = ZINC34786759
REMARK  9 active torsions:
REMARK  status: ('A' for Active; 'I' for Inactive)
REMARK    1  A    between atoms: C_1  and  C_2
REMARK    2  A    between atoms: C_4  and  C_37
REMARK    3  A    between atoms: N_19  and  N_20
REMARK    4  A    between atoms: N_19  and  N_28
REMARK    5  A    between atoms: N_20  and  C_21
REMARK    6  A    between atoms: C_21  and  C_22
REMARK    7  A    between atoms: N_28  and  C_29
REMARK    8  A    between atoms: C_32  and  O_35
REMARK    9  A    between atoms: O_35  and  C_36
REMARK                            x       y       z     vdW  Elec       q    Type
REMARK                         _______ _______ _______ _____ _____    ______ ____
ROOT
ATOM      1  C   UNL     1       6.191  -0.838   2.325  0.00  0.00    +0.067 C 
ATOM      2  C   UNL     1       5.116  -1.765   1.820  0.00  0.00    +0.061 A 
ATOM      3  C   UNL     1       5.050  -2.321   0.536  0.00  0.00    +0.048 A 
ATOM      4  C   UNL     1       3.943  -3.095   0.474  0.00  0.00    +0.045 A 
ATOM      5  N   UNL     1       3.327  -3.031   1.684  0.00  0.00    -0.202 N 
ATOM      6  N   UNL     1       4.090  -2.193   2.508  0.00  0.00    -0.169 NA
ATOM      7  C   UNL     1       2.149  -3.687   2.042  0.00  0.00    +0.254 A 
ATOM      8  N   UNL     1       1.662  -3.523   3.265  0.00  0.00    -0.192 NA
ATOM      9  C   UNL     1       0.549  -4.119   3.663  0.00  0.00    +0.167 A 
ATOM     10  C   UNL     1      -0.148  -4.960   2.754  0.00  0.00    +0.054 A 
ATOM     11  C   UNL     1      -1.392  -5.716   2.978  0.00  0.00    -0.025 A 
ATOM     12  C   UNL     1      -1.853  -6.445   1.949  0.00  0.00    -0.004 A 
ATOM     13  S   UNL     1      -0.686  -6.180   0.634  0.00  0.00    -0.073 S 
ATOM     14  C   UNL     1       0.425  -5.086   1.476  0.00  0.00    +0.116 A 
ATOM     15  N   UNL     1       1.538  -4.454   1.153  0.00  0.00    -0.203 NA
ATOM     16  C   UNL     1      -3.123  -7.176   2.294  0.00  0.00    +0.043 C 
ATOM     17  C   UNL     1      -3.179  -7.148   3.837  0.00  0.00    +0.010 C 
ATOM     18  C   UNL     1      -2.353  -5.887   4.158  0.00  0.00    +0.037 C 
ATOM     19  N   UNL     1       0.072  -3.925   4.947  0.00  0.00    -0.166 N 
ATOM     20  C   UNL     1       3.476  -3.885  -0.722  0.00  0.00    +0.066 C 
ENDROOT
BRANCH  19  21
ATOM     21  N   UNL     1      -0.315  -2.679   5.351  0.00  0.00    -0.217 NA
ATOM     22  H   UNL     1       0.256  -1.966   4.922  0.00  0.00    +0.146 HD
BRANCH  21  23
ATOM     23  C   UNL     1      -1.739  -2.453   5.071  0.00  0.00    +0.139 C 
BRANCH  23  24
ATOM     24  C   UNL     1      -2.128  -1.071   5.529  0.00  0.00    -0.032 A 
ATOM     25  C   UNL     1      -2.583  -0.874   6.820  0.00  0.00    +0.005 A 
ATOM     26  C   UNL     1      -2.940   0.394   7.240  0.00  0.00    +0.000 A 
ATOM     27  C   UNL     1      -2.842   1.464   6.370  0.00  0.00    +0.000 A 
ATOM     28  C   UNL     1      -2.387   1.266   5.080  0.00  0.00    +0.000 A 
ATOM     29  C   UNL     1      -2.026  -0.000   4.661  0.00  0.00    +0.005 A 
ENDBRANCH  23  24
ENDBRANCH  21  23
ENDBRANCH  19  21
BRANCH  19  30
ATOM     30  N   UNL     1      -0.015  -5.007   5.833  0.00  0.00    -0.249 N 
ATOM     31  H   UNL     1      -0.883  -5.364   6.078  0.00  0.00    +0.172 HD
BRANCH  30  32
ATOM     32  C   UNL     1       1.150  -5.572   6.363  0.00  0.00    +0.046 A 
ATOM     33  C   UNL     1       2.383  -4.982   6.117  0.00  0.00    +0.028 A 
ATOM     34  C   UNL     1       3.532  -5.541   6.641  0.00  0.00    +0.047 A 
ATOM     35  C   UNL     1       3.455  -6.691   7.413  0.00  0.00    +0.120 A 
ATOM     36  C   UNL     1       2.224  -7.282   7.658  0.00  0.00    +0.047 A 
ATOM     37  C   UNL     1       1.073  -6.721   7.140  0.00  0.00    +0.028 A 
BRANCH  35  38
ATOM     38  O   UNL     1       4.587  -7.241   7.928  0.00  0.00    -0.495 OA
ATOM     39  C   UNL     1       4.434  -8.425   8.713  0.00  0.00    +0.277 C 
ENDBRANCH  35  38
ENDBRANCH  30  32
ENDBRANCH  19  30
TORSDOF 6
