REMARK  Name = ZINC09477189
REMARK  8 active torsions:
REMARK  status: ('A' for Active; 'I' for Inactive)
REMARK    1  A    between atoms: C_1  and  O_2
REMARK    2  A    between atoms: O_2  and  C_3
REMARK    3  A    between atoms: C_8  and  N_9
REMARK    4  A    between atoms: C_17  and  C_21
REMARK    5  A    between atoms: C_17  and  N_25
REMARK    6  A    between atoms: C_26  and  C_28
REMARK    7  A    between atoms: C_28  and  C_29
REMARK    8  A    between atoms: C_29  and  C_30
REMARK                            x       y       z     vdW  Elec       q    Type
REMARK                         _______ _______ _______ _____ _____    ______ ____
ROOT
ATOM      1  N   UNL     1       0.878  -1.923  -0.218  0.00  0.00    -0.246 N 
ATOM      2  C   UNL     1       1.354  -2.635  -1.300  0.00  0.00    +0.125 A 
ATOM      3  C   UNL     1       0.508  -3.502  -1.928  0.00  0.00    +0.097 A 
ATOM      4  C   UNL     1      -0.808  -3.654  -1.475  0.00  0.00    +0.262 A 
ATOM      5  N   UNL     1      -1.229  -2.936  -0.412  0.00  0.00    -0.274 N 
ATOM      6  C   UNL     1      -0.387  -2.088   0.206  0.00  0.00    +0.335 A 
ATOM      7  O   UNL     1      -0.781  -1.452   1.165  0.00  0.00    -0.246 OA
ATOM      8  O   UNL     1      -1.566  -4.427  -2.034  0.00  0.00    -0.267 OA
ATOM      9  C   UNL     1       1.292  -4.128  -3.057  0.00  0.00    +0.240 C 
ATOM     10  C   UNL     1       2.657  -3.481  -2.943  0.00  0.00    +0.256 C 
ATOM     11  O   UNL     1       3.619  -3.685  -3.652  0.00  0.00    -0.272 OA
ATOM     12  N   UNL     1       2.591  -2.636  -1.899  0.00  0.00    -0.269 N 
ATOM     13  H   UNL     1      -2.139  -3.035  -0.091  0.00  0.00    +0.173 HD
ATOM     14  H   UNL     1       3.333  -2.087  -1.601  0.00  0.00    +0.156 HD
ENDROOT
BRANCH   1  20
ATOM     15  C   UNL     1       1.783   0.307   0.047  0.00  0.00    +0.144 A 
ATOM     16  C   UNL     1       2.616   1.192   0.713  0.00  0.00    +0.048 A 
ATOM     17  C   UNL     1       3.389   0.751   1.771  0.00  0.00    +0.004 A 
ATOM     18  C   UNL     1       3.334  -0.573   2.167  0.00  0.00    +0.002 A 
ATOM     19  C   UNL     1       2.506  -1.462   1.508  0.00  0.00    +0.030 A 
ATOM     20  C   UNL     1       1.723  -1.025   0.449  0.00  0.00    +0.094 A 
BRANCH  15  22
ATOM     21  C   UNL     1       1.135   2.119  -1.351  0.00  0.00    +0.277 C 
ATOM     22  O   UNL     1       1.022   0.740  -0.994  0.00  0.00    -0.493 OA
ENDBRANCH  15  22
ENDBRANCH   1  20
BRANCH   9  23
ATOM     23  C   UNL     1       1.395  -5.643  -2.865  0.00  0.00    +0.424 C 
ATOM     24  F   UNL     1       0.122  -6.213  -2.962  0.00  0.00    -0.167 F 
ATOM     25  F   UNL     1       2.225  -6.182  -3.854  0.00  0.00    -0.167 F 
ATOM     26  F   UNL     1       1.934  -5.917  -1.604  0.00  0.00    -0.167 F 
ENDBRANCH   9  23
BRANCH   9  27
ATOM     27  N   UNL     1       0.677  -3.812  -4.349  0.00  0.00    -0.291 N 
ATOM     28  C   UNL     1       0.468  -2.527  -4.699  0.00  0.00    +0.214 C 
ATOM     29  O   UNL     1       0.870  -1.631  -3.987  0.00  0.00    -0.276 OA
ATOM     30  H   UNL     1       0.421  -4.527  -4.953  0.00  0.00    +0.150 HD
BRANCH  28  31
ATOM     31  C   UNL     1      -0.265  -2.204  -5.976  0.00  0.00    +0.096 C 
BRANCH  31  32
ATOM     32  C   UNL     1      -0.366  -0.685  -6.135  0.00  0.00    +0.013 C 
BRANCH  32  33
ATOM     33  C   UNL     1      -1.110  -0.357  -7.430  0.00  0.00    -0.011 C 
ATOM     34  C   UNL     1      -0.286  -0.835  -8.627  0.00  0.00    +0.003 C 
ATOM     35  C   UNL     1      -1.031  -0.507  -9.923  0.00  0.00    +0.000 C 
ATOM     36  C   UNL     1      -1.242   1.006 -10.021  0.00  0.00    +0.000 C 
ATOM     37  C   UNL     1      -2.066   1.484  -8.824  0.00  0.00    +0.000 C 
ATOM     38  C   UNL     1      -1.321   1.155  -7.528  0.00  0.00    +0.003 C 
ENDBRANCH  32  33
ENDBRANCH  31  32
ENDBRANCH  28  31
ENDBRANCH   9  27
TORSDOF 7
