REMARK  Name = ZINC41894549
REMARK  5 active torsions:
REMARK  status: ('A' for Active; 'I' for Inactive)
REMARK    1  A    between atoms: C_1  and  C_2
REMARK    2  A    between atoms: C_2  and  C_3
REMARK    3  A    between atoms: C_3  and  C_4
REMARK    4  A    between atoms: C_3  and  C_11
REMARK    5  A    between atoms: C_3  and  N_14
REMARK                            x       y       z     vdW  Elec       q    Type
REMARK                         _______ _______ _______ _____ _____    ______ ____
ROOT
ATOM      1  C   UNL     1       0.718  -0.497  -1.257  0.00  0.00    +0.192 C 
ENDROOT
BRANCH   1   2
ATOM      2  N   UNL     1       2.167  -0.329  -1.398  0.00  0.00    -0.204 N 
ATOM      3  C   UNL     1       2.800  -0.832  -2.477  0.00  0.00    +0.269 A 
ATOM      4  O   UNL     1       2.170  -1.429  -3.336  0.00  0.00    -0.266 OA
ATOM      5  C   UNL     1       4.194  -0.665  -2.605  0.00  0.00    +0.077 A 
ATOM      6  C   UNL     1       4.875   0.003  -1.636  0.00  0.00    +0.079 A 
ATOM      7  C   UNL     1       4.184   0.516  -0.523  0.00  0.00    +0.287 A 
ATOM      8  O   UNL     1       4.864   1.183   0.445  0.00  0.00    -0.264 OA
ATOM      9  N   UNL     1       2.888   0.360  -0.416  0.00  0.00    -0.125 NA
ENDBRANCH   1   2
BRANCH   1  10
ATOM     10  C   UNL     1       0.029   0.026  -2.490  0.00  0.00    -0.009 A 
ATOM     11  C   UNL     1      -1.273  -0.349  -2.767  0.00  0.00    +0.007 A 
ATOM     12  C   UNL     1      -1.905   0.131  -3.897  0.00  0.00    +0.015 A 
ATOM     13  C   UNL     1      -1.237   0.988  -4.753  0.00  0.00    +0.018 A 
ATOM     14  C   UNL     1       0.066   1.364  -4.476  0.00  0.00    +0.015 A 
ATOM     15  C   UNL     1       0.696   0.887  -3.342  0.00  0.00    +0.007 A 
ATOM     16 BR   UNL     1      -2.102   1.645  -6.301  0.00  0.00    -0.050 Br
ENDBRANCH   1  10
BRANCH   1  17
ATOM     17  C   UNL     1       0.397  -1.960  -1.085  0.00  0.00    +0.388 C 
ATOM     18  O   UNL     1      -0.760  -2.318  -0.950  0.00  0.00    -0.243 OA
ATOM     19  O   UNL     1       1.295  -2.785  -1.080  0.00  0.00    -0.243 OA
ENDBRANCH   1  17
BRANCH   1  21
ATOM     20  C   UNL     1       0.557   1.764  -0.207  0.00  0.00    +0.007 C 
ATOM     21  C   UNL     1       0.232   0.279  -0.032  0.00  0.00    +0.043 C 
ENDBRANCH   1  21
TORSDOF 4
