REMARK  Name = ZINC39631717
REMARK  14 active torsions:
REMARK  status: ('A' for Active; 'I' for Inactive)
REMARK    1  A    between atoms: C_1  and  C_2
REMARK    2  A    between atoms: C_2  and  C_4
REMARK    3  A    between atoms: C_2  and  N_11
REMARK    4  A    between atoms: C_4  and  C_5
REMARK    5  A    between atoms: C_5  and  C_6
REMARK    6  A    between atoms: C_6  and  C_7
REMARK    7  A    between atoms: C_7  and  C_8
REMARK    8  A    between atoms: C_7  and  C_9
REMARK    9  A    between atoms: C_7  and  O_10
REMARK   10  A    between atoms: C_12  and  C_14
REMARK   11  A    between atoms: C_25  and  C_27
REMARK   12  A    between atoms: C_31  and  N_33
REMARK   13  A    between atoms: N_33  and  C_34
REMARK   14  A    between atoms: N_33  and  C_35
REMARK                            x       y       z     vdW  Elec       q    Type
REMARK                         _______ _______ _______ _____ _____    ______ ____
ROOT
ATOM      1  C   UNL     1      10.230   0.841  -7.357  0.00  0.00    +0.100 C 
ATOM      2  C   UNL     1      11.643   0.485  -7.872  0.00  0.00    +0.121 C 
ATOM      3  N   UNL     1      11.459   0.219  -9.318  0.00  0.00    -0.296 N 
ATOM      4  C   UNL     1      10.481   1.242  -9.760  0.00  0.00    +0.115 C 
ATOM      5  C   UNL     1       9.472   1.341  -8.599  0.00  0.00    -0.004 C 
ATOM      6  C   UNL     1       8.264   0.450  -8.874  0.00  0.00    -0.010 C 
ATOM      7  C   UNL     1       7.495   1.000 -10.079  0.00  0.00    -0.082 C 
ATOM      8  N   UNL     1       7.061   2.374  -9.798  0.00  0.00    +0.379 N 
ATOM      9  C   UNL     1       8.231   3.244  -9.626  0.00  0.00    -0.082 C 
ATOM     10  C   UNL     1       9.032   2.788  -8.402  0.00  0.00    -0.010 C 
ATOM     11  C   UNL     1      12.047  -0.738 -10.063  0.00  0.00    +0.247 C 
ATOM     12  O   UNL     1      11.874  -0.763 -11.266  0.00  0.00    -0.270 OA
ATOM     13  H   UNL     1       6.503   2.713 -10.568  0.00  0.00    -0.086 HD
ATOM     14  H   UNL     1       6.508   2.385  -8.955  0.00  0.00    -0.086 HD
ENDROOT
BRANCH  11  15
ATOM     15  C   UNL     1      12.903  -1.756  -9.417  0.00  0.00    +0.039 A 
ATOM     16  C   UNL     1      12.324  -2.798  -8.690  0.00  0.00    +0.013 A 
ATOM     17  C   UNL     1      13.125  -3.747  -8.088  0.00  0.00    +0.003 A 
ATOM     18  C   UNL     1      14.501  -3.671  -8.202  0.00  0.00    +0.023 A 
ATOM     19  C   UNL     1      15.086  -2.638  -8.925  0.00  0.00    +0.030 A 
ATOM     20  C   UNL     1      14.290  -1.682  -9.538  0.00  0.00    +0.036 A 
BRANCH  19  21
ATOM     21  N   UNL     1      16.477  -2.565  -9.037  0.00  0.00    -0.336 N 
ATOM     22  C   UNL     1      17.318  -3.577  -8.393  0.00  0.00    +0.129 C 
ATOM     23  C   UNL     1      17.095  -1.476  -9.798  0.00  0.00    +0.129 C 
ENDBRANCH  19  21
ENDBRANCH  11  15
BRANCH   1  25
ATOM     24  N   UNL     1       8.640  -0.250  -5.807  0.00  0.00    -0.312 N 
ATOM     25  C   UNL     1       9.556  -0.381  -6.787  0.00  0.00    +0.218 C 
ATOM     26  O   UNL     1       9.837  -1.482  -7.211  0.00  0.00    -0.275 OA
ATOM     27  H   UNL     1       8.393   0.633  -5.489  0.00  0.00    +0.149 HD
BRANCH  24  29
ATOM     28  C   UNL     1       6.641  -1.659  -5.853  0.00  0.00    +0.028 C 
ATOM     29  C   UNL     1       8.018  -1.440  -5.222  0.00  0.00    +0.070 C 
BRANCH  29  30
ATOM     30  C   UNL     1       7.862  -1.244  -3.713  0.00  0.00    +0.022 C 
BRANCH  30  31
ATOM     31  C   UNL     1       9.207  -0.835  -3.110  0.00  0.00    +0.005 C 
BRANCH  31  32
ATOM     32  C   UNL     1       9.128  -0.916  -1.584  0.00  0.00    +0.034 C 
BRANCH  32  33
ATOM     33  C   UNL     1      10.474  -0.511  -0.981  0.00  0.00    +0.061 C 
ATOM     34  C   UNL     1      11.116   0.574  -1.847  0.00  0.00    +0.041 C 
ATOM     35  C   UNL     1      10.258   0.028   0.435  0.00  0.00    +0.041 C 
BRANCH  33  36
ATOM     36  O   UNL     1      11.335  -1.651  -0.930  0.00  0.00    -0.389 OA
ATOM     37  H   UNL     1      11.605  -1.979  -1.798  0.00  0.00    +0.210 HD
ENDBRANCH  33  36
ENDBRANCH  32  33
ENDBRANCH  31  32
ENDBRANCH  30  31
ENDBRANCH  29  30
ENDBRANCH  24  29
ENDBRANCH   1  25
TORSDOF 9
