REMARK  Name = ZINC09317014
REMARK  5 active torsions:
REMARK  status: ('A' for Active; 'I' for Inactive)
REMARK    1  A    between atoms: N_13  and  C_17
REMARK    2  A    between atoms: C_17  and  C_18
REMARK    3  A    between atoms: N_20  and  C_21
REMARK    4  A    between atoms: C_24  and  S_27
REMARK    5  A    between atoms: S_27  and  N_30
REMARK                            x       y       z     vdW  Elec       q    Type
REMARK                         _______ _______ _______ _____ _____    ______ ____
ROOT
ATOM      1  C   UNL     1       4.776   0.037  -0.145  0.00  0.00    +0.235 C 
ATOM      2  O   UNL     1       4.761   1.250  -0.139  0.00  0.00    -0.274 OA
ATOM      3  N   UNL     1       3.622  -0.651  -0.036  0.00  0.00    -0.284 N 
ATOM      4  H   UNL     1       3.638  -1.619   0.026  0.00  0.00    +0.155 HD
ENDROOT
BRANCH   3   5
ATOM      5  C   UNL     1       2.400   0.032  -0.013  0.00  0.00    +0.034 A 
ATOM      6  C   UNL     1       1.278  -0.530  -0.607  0.00  0.00    +0.025 A 
ATOM      7  C   UNL     1       0.074   0.146  -0.582  0.00  0.00    +0.030 A 
ATOM      8  C   UNL     1      -0.015   1.381   0.033  0.00  0.00    +0.106 A 
ATOM      9  C   UNL     1       1.101   1.943   0.626  0.00  0.00    +0.030 A 
ATOM     10  C   UNL     1       2.308   1.272   0.605  0.00  0.00    +0.025 A 
BRANCH   8  11
ATOM     11  S   UNL     1      -1.552   2.243   0.056  0.00  0.00    +0.061 S 
ATOM     12  O   UNL     1      -1.242   3.620   0.217  0.00  0.00    -0.153 OA
ATOM     13  O   UNL     1      -2.307   1.756  -1.044  0.00  0.00    -0.153 OA
BRANCH  11  14
ATOM     14  N   UNL     1      -2.355   1.776   1.427  0.00  0.00    -0.177 NA
ATOM     15  C   UNL     1      -3.264   0.622   1.405  0.00  0.00    +0.109 C 
ATOM     16  C   UNL     1      -2.845  -0.351   2.518  0.00  0.00    +0.017 C 
ATOM     17  C   UNL     1      -2.809   0.395   3.853  0.00  0.00    +0.003 C 
ATOM     18  C   UNL     1      -1.774   1.520   3.783  0.00  0.00    +0.017 C 
ATOM     19  C   UNL     1      -2.177   2.511   2.686  0.00  0.00    +0.109 C 
ENDBRANCH  11  14
ENDBRANCH   8  11
ENDBRANCH   3   5
BRANCH   1  20
ATOM     20  C   UNL     1       6.083  -0.701  -0.276  0.00  0.00    +0.214 C 
BRANCH  20  33
ATOM     21  C   UNL     1       7.703   5.684  -2.332  0.00  0.00    +0.000 A 
ATOM     22  C   UNL     1       6.760   4.834  -1.783  0.00  0.00    +0.000 A 
ATOM     23  C   UNL     1       7.122   3.555  -1.414  0.00  0.00    +0.006 A 
ATOM     24  C   UNL     1       8.427   3.113  -1.587  0.00  0.00    -0.012 A 
ATOM     25  C   UNL     1       9.366   3.959  -2.137  0.00  0.00    -0.042 A 
ATOM     26  C   UNL     1       8.999   5.247  -2.507  0.00  0.00    +0.004 A 
ATOM     27  C   UNL     1      10.795   3.541  -2.365  0.00  0.00    +0.035 C 
ATOM     28  C   UNL     1      11.140   2.317  -1.520  0.00  0.00    +0.008 C 
ATOM     29  C   UNL     1      10.076   1.240  -1.768  0.00  0.00    +0.040 C 
ATOM     30  C   UNL     1       8.760   1.711  -1.160  0.00  0.00    +0.138 C 
ATOM     31  C   UNL     1       7.644   0.765  -1.542  0.00  0.00    +0.251 C 
ATOM     32  O   UNL     1       7.247   0.512  -2.659  0.00  0.00    -0.272 OA
ATOM     33  N   UNL     1       7.180   0.265  -0.378  0.00  0.00    -0.215 N 
ATOM     34  C   UNL     1       7.851   0.755   0.671  0.00  0.00    +0.310 C 
ATOM     35  O   UNL     1       7.618   0.450   1.824  0.00  0.00    -0.252 OA
ATOM     36  N   UNL     1       8.812   1.624   0.306  0.00  0.00    -0.281 N 
ATOM     37  H   UNL     1       9.419   2.099   0.894  0.00  0.00    +0.152 HD
ENDBRANCH  20  33
ENDBRANCH   1  20
TORSDOF 5
