REMARK  Name = ZINC35711974
REMARK  10 active torsions:
REMARK  status: ('A' for Active; 'I' for Inactive)
REMARK    1  A    between atoms: C_1  and  C_2
REMARK    2  A    between atoms: C_2  and  C_3
REMARK    3  A    between atoms: C_3  and  N_4
REMARK    4  A    between atoms: C_5  and  C_34
REMARK    5  A    between atoms: C_6  and  C_30
REMARK    6  A    between atoms: C_7  and  C_12
REMARK    7  A    between atoms: C_15  and  N_18
REMARK    8  A    between atoms: N_21  and  C_22
REMARK    9  A    between atoms: C_30  and  O_32
REMARK   10  A    between atoms: O_32  and  C_33
REMARK                            x       y       z     vdW  Elec       q    Type
REMARK                         _______ _______ _______ _____ _____    ______ ____
ROOT
ATOM      1  C   UNL     1       3.465  -5.218   1.602  0.00  0.00    -0.022 A 
ATOM      2  C   UNL     1       4.431  -4.928   2.547  0.00  0.00    +0.007 A 
ATOM      3  C   UNL     1       4.616  -5.767   3.629  0.00  0.00    +0.024 A 
ATOM      4  C   UNL     1       3.830  -6.904   3.766  0.00  0.00    +0.035 A 
ATOM      5  C   UNL     1       2.860  -7.192   2.815  0.00  0.00    +0.024 A 
ATOM      6  C   UNL     1       2.676  -6.346   1.739  0.00  0.00    +0.007 A 
ENDROOT
BRANCH   1  10
ATOM      7  N   UNL     1       4.215  -1.713   0.196  0.00  0.00    -0.259 N 
ATOM      8  C   UNL     1       2.975  -1.885   0.742  0.00  0.00    +0.024 C 
ATOM      9  C   UNL     1       2.442  -3.117   0.887  0.00  0.00    +0.078 C 
ATOM     10  C   UNL     1       3.266  -4.301   0.423  0.00  0.00    +0.143 C 
ATOM     11  N   UNL     1       4.590  -4.008  -0.151  0.00  0.00    -0.288 N 
ATOM     12  C   UNL     1       4.983  -2.721  -0.234  0.00  0.00    +0.307 C 
ATOM     13  O   UNL     1       6.073  -2.469  -0.710  0.00  0.00    -0.252 OA
ATOM     14  C   UNL     1       2.189  -0.679   1.190  0.00  0.00    +0.061 C 
ATOM     15  H   UNL     1       5.164  -4.724  -0.466  0.00  0.00    +0.151 HD
BRANCH   9  16
ATOM     16  C   UNL     1       1.158  -3.296   1.452  0.00  0.00    +0.339 C 
ATOM     17  O   UNL     1       0.514  -2.331   1.818  0.00  0.00    -0.245 OA
BRANCH  16  18
ATOM     18  O   UNL     1       0.647  -4.538   1.587  0.00  0.00    -0.465 OA
ATOM     19  C   UNL     1      -0.654  -4.645   2.166  0.00  0.00    +0.280 C 
ENDBRANCH  16  18
ENDBRANCH   9  16
BRANCH   7  20
ATOM     20  C   UNL     1       4.731  -0.348   0.069  0.00  0.00    +0.114 C 
BRANCH  20  22
ATOM     21  C   UNL     1       5.912   1.506   1.258  0.00  0.00    +0.005 C 
ATOM     22  C   UNL     1       5.372   0.081   1.391  0.00  0.00    +0.016 C 
ENDBRANCH  20  22
ENDBRANCH   7  20
ENDBRANCH   1  10
BRANCH   4  23
ATOM     23  N   UNL     1       4.014  -7.756   4.860  0.00  0.00    -0.269 N 
ATOM     24  C   UNL     1       4.350  -7.247   6.062  0.00  0.00    +0.308 C 
ATOM     25  O   UNL     1       4.573  -6.058   6.178  0.00  0.00    -0.252 OA
ATOM     26  N   UNL     1       4.437  -8.057   7.136  0.00  0.00    -0.267 N 
ATOM     27  H   UNL     1       3.902  -8.714   4.753  0.00  0.00    +0.156 HD
ATOM     28  H   UNL     1       4.311  -9.013   7.034  0.00  0.00    +0.156 HD
BRANCH  26  29
ATOM     29  C   UNL     1       4.711  -7.518   8.399  0.00  0.00    +0.072 A 
ATOM     30  C   UNL     1       4.059  -6.366   8.821  0.00  0.00    +0.064 A 
ATOM     31  C   UNL     1       4.331  -5.836  10.068  0.00  0.00    +0.022 A 
ATOM     32  C   UNL     1       5.253  -6.451  10.896  0.00  0.00    +0.003 A 
ATOM     33  C   UNL     1       5.904  -7.598  10.479  0.00  0.00    +0.022 A 
ATOM     34  C   UNL     1       5.632  -8.136   9.236  0.00  0.00    +0.064 A 
ATOM     35 CL   UNL     1       6.445  -9.579   8.717  0.00  0.00    -0.082 Cl
ATOM     36 CL   UNL     1       2.902  -5.593   7.782  0.00  0.00    -0.082 Cl
ENDBRANCH  26  29
ENDBRANCH   4  23
TORSDOF 7
