REMARK  Name = ZINC09703746
REMARK  7 active torsions:
REMARK  status: ('A' for Active; 'I' for Inactive)
REMARK    1  A    between atoms: C_1  and  C_2
REMARK    2  A    between atoms: C_7  and  N_12
REMARK    3  A    between atoms: C_9  and  C_11
REMARK    4  A    between atoms: C_16  and  C_18
REMARK    5  A    between atoms: C_18  and  O_19
REMARK    6  A    between atoms: O_19  and  C_20
REMARK    7  A    between atoms: C_20  and  C_22
REMARK                            x       y       z     vdW  Elec       q    Type
REMARK                         _______ _______ _______ _____ _____    ______ ____
ROOT
ATOM      1  O   UNL     1      -1.285   5.988  -0.057  0.00  0.00    -0.452 OA
ENDROOT
BRANCH   1   2
ATOM      2  C   UNL     1      -0.105   5.344   0.030  0.00  0.00    +0.340 C 
ATOM      3  O   UNL     1       0.927   5.978   0.114  0.00  0.00    -0.245 OA
BRANCH   2   4
ATOM      4  C   UNL     1      -0.067   3.866   0.022  0.00  0.00    +0.070 A 
ATOM      5  C   UNL     1      -0.869   3.137   0.904  0.00  0.00    +0.016 A 
ATOM      6  C   UNL     1      -0.839   1.756   0.894  0.00  0.00    +0.002 A 
ATOM      7  C   UNL     1      -0.008   1.076   0.021  0.00  0.00    +0.012 A 
ATOM      8  C   UNL     1       0.801   1.782  -0.866  0.00  0.00    +0.034 A 
ATOM      9  C   UNL     1       0.774   3.186  -0.869  0.00  0.00    +0.047 A 
ATOM     10  C   UNL     1       1.634   3.935  -1.814  0.00  0.00    +0.195 C 
ATOM     11  O   UNL     1       1.448   5.119  -2.008  0.00  0.00    -0.287 OA
ATOM     12  C   UNL     1       2.723   3.223  -2.518  0.00  0.00    +0.033 A 
ATOM     13  C   UNL     1       3.718   3.931  -3.183  0.00  0.00    +0.012 A 
ATOM     14  C   UNL     1       4.730   3.247  -3.835  0.00  0.00    +0.001 A 
ATOM     15  C   UNL     1       4.758   1.865  -3.831  0.00  0.00    +0.001 A 
ATOM     16  C   UNL     1       3.775   1.145  -3.174  0.00  0.00    +0.012 A 
ATOM     17  C   UNL     1       2.751   1.816  -2.514  0.00  0.00    +0.033 A 
ATOM     18  C   UNL     1       1.691   1.064  -1.806  0.00  0.00    +0.195 C 
ATOM     19  O   UNL     1       1.553  -0.128  -1.994  0.00  0.00    -0.287 OA
ENDBRANCH   2   4
ENDBRANCH   1   2
BRANCH   1  20
ATOM     20  C   UNL     1      -1.247   7.439  -0.044  0.00  0.00    +0.328 C 
BRANCH  20  25
ATOM     21  N   UNL     1      -4.325  11.125  -0.257  0.00  0.00    -0.296 N 
ATOM     22  C   UNL     1      -4.115   9.794  -0.250  0.00  0.00    +0.306 C 
ATOM     23  O   UNL     1      -5.056   9.030  -0.328  0.00  0.00    -0.252 OA
ATOM     24  N   UNL     1      -2.860   9.311  -0.156  0.00  0.00    -0.237 N 
ATOM     25  C   UNL     1      -2.650   7.980  -0.149  0.00  0.00    +0.258 C 
ATOM     26  O   UNL     1      -3.589   7.217  -0.227  0.00  0.00    -0.272 OA
ATOM     27  H   UNL     1      -3.574  11.736  -0.195  0.00  0.00    +0.151 HD
ATOM     28  H   UNL     1      -2.109   9.921  -0.094  0.00  0.00    +0.159 HD
BRANCH  21  34
ATOM     29  C   UNL     1      -7.035  15.014  -1.663  0.00  0.00    +0.008 C 
ATOM     30  C   UNL     1      -7.074  13.607  -1.064  0.00  0.00    -0.009 C 
ATOM     31  C   UNL     1      -7.705  13.663   0.329  0.00  0.00    +0.003 C 
ATOM     32  C   UNL     1      -7.744  12.255   0.928  0.00  0.00    +0.002 C 
ATOM     33  C   UNL     1      -6.319  11.707   1.034  0.00  0.00    +0.022 C 
ATOM     34  C   UNL     1      -5.689  11.651  -0.359  0.00  0.00    +0.078 C 
ATOM     35  C   UNL     1      -5.650  13.058  -0.957  0.00  0.00    +0.009 C 
ATOM     36  C   UNL     1      -4.817  13.973  -0.057  0.00  0.00    +0.009 C 
ENDBRANCH  21  34
ENDBRANCH  20  25
ENDBRANCH   1  20
TORSDOF 5
