REMARK  Name = ZINC08817355
REMARK  13 active torsions:
REMARK  status: ('A' for Active; 'I' for Inactive)
REMARK    1  A    between atoms: C_1  and  C_2
REMARK    2  A    between atoms: C_2  and  N_57
REMARK    3  A    between atoms: C_3  and  C_4
REMARK    4  A    between atoms: C_3  and  N_57
REMARK    5  A    between atoms: C_5  and  C_6
REMARK    6  A    between atoms: C_5  and  N_57
REMARK    7  A    between atoms: C_6  and  N_7
REMARK    8  A    between atoms: N_14  and  C_16
REMARK    9  A    between atoms: C_16  and  C_17
REMARK   10  A    between atoms: C_17  and  C_19
REMARK   11  A    between atoms: C_17  and  O_29
REMARK   12  A    between atoms: C_19  and  O_20
REMARK   13  A    between atoms: O_20  and  C_21
REMARK                            x       y       z     vdW  Elec       q    Type
REMARK                         _______ _______ _______ _____ _____    ______ ____
ROOT
ATOM      1  N   UNL     1      -0.294   4.781   1.105  0.00  0.00    -0.313 N 
ATOM      2  C   UNL     1      -0.303   3.412   1.366  0.00  0.00    +0.068 A 
ATOM      3  C   UNL     1       0.694   2.447   1.373  0.00  0.00    +0.028 A 
ATOM      4  C   UNL     1       0.383   1.136   1.676  0.00  0.00    +0.002 A 
ATOM      5  C   UNL     1      -0.920   0.780   1.973  0.00  0.00    +0.002 A 
ATOM      6  C   UNL     1      -1.922   1.731   1.964  0.00  0.00    +0.028 A 
ATOM      7  C   UNL     1      -1.618   3.052   1.666  0.00  0.00    +0.068 A 
ATOM      8  N   UNL     1      -2.395   4.207   1.584  0.00  0.00    -0.309 N 
ATOM      9  C   UNL     1      -1.575   5.252   1.242  0.00  0.00    +0.183 A 
ATOM     10  H   UNL     1      -1.376   7.239   0.831  0.00  0.00    +0.159 HD
ATOM     11  N   UNL     1      -2.022   6.492   1.086  0.00  0.00    -0.371 N 
ATOM     12  H   UNL     1      -3.019   6.700   1.222  0.00  0.00    +0.159 HD
ENDROOT
BRANCH   1  13
ATOM     13  C   UNL     1       0.881   5.580   0.748  0.00  0.00    +0.107 C 
BRANCH  13  14
ATOM     14  C   UNL     1       1.044   5.593  -0.773  0.00  0.00    -0.057 C 
BRANCH  14  15
ATOM     15  N   UNL     1       2.245   6.384  -1.117  0.00  0.00    +0.380 N 
ATOM     16  H   UNL     1       3.041   6.037  -0.569  0.00  0.00    -0.082 HD
BRANCH  15  18
ATOM     17  C   UNL     1       3.221   4.881  -2.779  0.00  0.00    -0.017 C 
ATOM     18  C   UNL     1       2.552   6.238  -2.555  0.00  0.00    -0.082 C 
ENDBRANCH  15  18
BRANCH  15  19
ATOM     19  C   UNL     1       2.022   7.808  -0.790  0.00  0.00    -0.082 C 
ATOM     20  C   UNL     1       3.371   8.531  -0.797  0.00  0.00    -0.017 C 
ENDBRANCH  15  19
ENDBRANCH  14  15
ENDBRANCH  13  14
ENDBRANCH   1  13
BRANCH   8  21
ATOM     21  C   UNL     1      -3.839   4.289   1.823  0.00  0.00    +0.160 C 
BRANCH  21  22
ATOM     22  C   UNL     1      -4.095   4.582   3.302  0.00  0.00    +0.172 C 
BRANCH  22  23
ATOM     23  O   UNL     1      -3.584   5.877   3.627  0.00  0.00    -0.387 OA
ATOM     24  H   UNL     1      -3.984   6.596   3.120  0.00  0.00    +0.210 HD
ENDBRANCH  22  23
BRANCH  22  25
ATOM     25  C   UNL     1      -5.600   4.545   3.576  0.00  0.00    +0.262 C 
BRANCH  25  26
ATOM     26  O   UNL     1      -5.833   4.703   4.977  0.00  0.00    -0.488 OA
BRANCH  26  27
ATOM     27  C   UNL     1      -7.128   4.693   5.392  0.00  0.00    +0.139 A 
ATOM     28  C   UNL     1      -8.151   4.534   4.470  0.00  0.00    +0.048 A 
ATOM     29  C   UNL     1      -9.466   4.524   4.894  0.00  0.00    +0.023 A 
ATOM     30  C   UNL     1      -9.763   4.672   6.237  0.00  0.00    +0.043 A 
ATOM     31  C   UNL     1      -8.744   4.831   7.159  0.00  0.00    +0.043 A 
ATOM     32  C   UNL     1      -7.426   4.836   6.740  0.00  0.00    +0.084 A 
ATOM     33 CL   UNL     1      -6.147   5.027   7.898  0.00  0.00    -0.080 Cl
ATOM     34 CL   UNL     1     -11.416   4.659   6.766  0.00  0.00    -0.083 Cl
ENDBRANCH  26  27
ENDBRANCH  25  26
ENDBRANCH  22  25
ENDBRANCH  21  22
ENDBRANCH   8  21
TORSDOF 11
