REMARK  Name = ZINC63328936
REMARK  11 active torsions:
REMARK  status: ('A' for Active; 'I' for Inactive)
REMARK    1  A    between atoms: C_1  and  C_2
REMARK    2  A    between atoms: C_2  and  C_4
REMARK    3  A    between atoms: C_2  and  N_18
REMARK    4  A    between atoms: N_6  and  C_7
REMARK    5  A    between atoms: C_7  and  C_8
REMARK    6  A    between atoms: C_8  and  C_9
REMARK    7  A    between atoms: C_19  and  C_21
REMARK    8  A    between atoms: C_28  and  O_32
REMARK    9  A    between atoms: C_29  and  O_30
REMARK   10  A    between atoms: O_30  and  C_31
REMARK   11  A    between atoms: O_32  and  C_33
REMARK                            x       y       z     vdW  Elec       q    Type
REMARK                         _______ _______ _______ _____ _____    ______ ____
ROOT
ATOM      1  C   UNL     1      -0.019   1.526   0.010  0.00  0.00    +0.038 C 
ATOM      2  C   UNL     1       0.002  -0.004   0.002  0.00  0.00    +0.156 C 
ENDROOT
BRANCH   2   3
ATOM      3  C   UNL     1       0.707  -0.490  -1.238  0.00  0.00    +0.233 C 
ATOM      4  O   UNL     1       0.120  -1.191  -2.034  0.00  0.00    -0.274 OA
ATOM      5  N   UNL     1       1.991  -0.146  -1.462  0.00  0.00    -0.313 N 
ATOM      6  H   UNL     1       2.461   0.415  -0.825  0.00  0.00    +0.149 HD
BRANCH   5   7
ATOM      7  C   UNL     1       2.677  -0.618  -2.667  0.00  0.00    +0.108 C 
BRANCH   7   8
ATOM      8  C   UNL     1       4.112  -0.089  -2.678  0.00  0.00    +0.052 C 
BRANCH   8   9
ATOM      9  C   UNL     1       4.818  -0.575  -3.918  0.00  0.00    -0.040 C 
ATOM     10  C   UNL     1       4.953   0.088  -5.089  0.00  0.00    -0.001 A 
ATOM     11  C   UNL     1       4.501   1.409  -5.542  0.00  0.00    +0.010 A 
ATOM     12  C   UNL     1       4.795   1.807  -6.800  0.00  0.00    +0.001 A 
ATOM     13  C   UNL     1       5.519   0.992  -7.681  0.00  0.00    +0.002 A 
ATOM     14  C   UNL     1       5.968  -0.234  -7.338  0.00  0.00    +0.026 A 
ATOM     15  C   UNL     1       5.716  -0.754  -6.038  0.00  0.00    +0.043 A 
ATOM     16  N   UNL     1       6.039  -1.893  -5.475  0.00  0.00    -0.380 N 
ATOM     17  C   UNL     1       5.523  -1.900  -4.102  0.00  0.00    +0.144 C 
ATOM     18  H   UNL     1       6.540  -2.610  -5.896  0.00  0.00    +0.160 HD
ENDBRANCH   8   9
ENDBRANCH   7   8
ENDBRANCH   5   7
ENDBRANCH   2   3
BRANCH   2  19
ATOM     19  N   UNL     1      -1.372  -0.511   0.012  0.00  0.00    -0.303 N 
ATOM     20  C   UNL     1      -2.029  -0.655   1.181  0.00  0.00    +0.234 C 
ATOM     21  O   UNL     1      -1.481  -0.365   2.224  0.00  0.00    -0.274 OA
ATOM     22  H   UNL     1      -1.810  -0.743  -0.822  0.00  0.00    +0.149 HD
BRANCH  20  23
ATOM     23  C   UNL     1      -3.442  -1.177   1.191  0.00  0.00    +0.161 C 
ATOM     24  C   UNL     1      -4.431  -0.045   0.867  0.00  0.00    +0.072 C 
ATOM     25  C   UNL     1      -5.308   0.058   2.094  0.00  0.00    +0.021 A 
ATOM     26  C   UNL     1      -4.890  -0.888   3.016  0.00  0.00    +0.035 A 
ATOM     27  C   UNL     1      -5.554  -0.985   4.240  0.00  0.00    +0.027 A 
ATOM     28  C   UNL     1      -6.614  -0.150   4.529  0.00  0.00    +0.051 A 
ATOM     29  C   UNL     1      -7.029   0.794   3.604  0.00  0.00    +0.162 A 
ATOM     30  C   UNL     1      -6.372   0.897   2.382  0.00  0.00    +0.166 A 
ATOM     31  N   UNL     1      -3.806  -1.633   2.536  0.00  0.00    -0.332 N 
ATOM     32  H   UNL     1      -3.361  -2.346   3.020  0.00  0.00    +0.147 HD
BRANCH  30  33
ATOM     33  O   UNL     1      -6.774   1.822   1.470  0.00  0.00    -0.491 OA
ATOM     34  C   UNL     1      -7.771   1.415   0.530  0.00  0.00    +0.277 C 
ENDBRANCH  30  33
BRANCH  29  35
ATOM     35  O   UNL     1      -8.075   1.617   3.889  0.00  0.00    -0.491 OA
ATOM     36  C   UNL     1      -8.700   1.453   5.164  0.00  0.00    +0.277 C 
ENDBRANCH  29  35
ENDBRANCH  20  23
ENDBRANCH   2  19
TORSDOF 8
