REMARK  Name = ZINC32719997
REMARK  8 active torsions:
REMARK  status: ('A' for Active; 'I' for Inactive)
REMARK    1  A    between atoms: C_1  and  C_2
REMARK    2  A    between atoms: C_2  and  C_4
REMARK    3  A    between atoms: C_2  and  N_17
REMARK    4  A    between atoms: N_6  and  N_7
REMARK    5  A    between atoms: C_8  and  C_10
REMARK    6  A    between atoms: C_15  and  O_16
REMARK    7  A    between atoms: N_17  and  S_18
REMARK    8  A    between atoms: S_18  and  C_21
REMARK                            x       y       z     vdW  Elec       q    Type
REMARK                         _______ _______ _______ _____ _____    ______ ____
ROOT
ATOM      1  C   UNL     1       0.070  -0.679   6.036  0.00  0.00    +0.247 C 
ATOM      2  O   UNL     1       0.086  -1.891   6.022  0.00  0.00    -0.273 OA
ATOM      3  N   UNL     1       0.050   0.008   4.876  0.00  0.00    -0.233 N 
ATOM      4  H   UNL     1       0.036   1.108   4.889  0.00  0.00    +0.173 HD
ENDROOT
BRANCH   3   5
ATOM      5  N   UNL     1       0.047  -0.678   3.655  0.00  0.00    -0.230 N 
ATOM      6  C   UNL     1       0.026   0.009   2.496  0.00  0.00    +0.264 C 
ATOM      7  O   UNL     1       0.011   1.224   2.510  0.00  0.00    -0.269 OA
ATOM      8  H   UNL     1       0.061  -1.778   3.643  0.00  0.00    +0.173 HD
BRANCH   6   9
ATOM      9  C   UNL     1       0.023  -0.714   1.210  0.00  0.00    +0.079 A 
ATOM     10  C   UNL     1       0.042  -2.111   1.189  0.00  0.00    +0.017 A 
ATOM     11  C   UNL     1       0.039  -2.780  -0.015  0.00  0.00    +0.001 A 
ATOM     12  C   UNL     1       0.017  -2.075  -1.207  0.00  0.00    +0.004 A 
ATOM     13  C   UNL     1      -0.006  -0.694  -1.201  0.00  0.00    +0.046 A 
ATOM     14  C   UNL     1       0.002  -0.004   0.002  0.00  0.00    +0.129 A 
BRANCH  14  15
ATOM     15  O   UNL     1      -0.016   1.352   0.009  0.00  0.00    -0.506 OA
ATOM     16  H   UNL     1      -0.033   1.907  -0.940  0.00  0.00    +0.292 HD
ENDBRANCH  14  15
ENDBRANCH   6   9
ENDBRANCH   3   5
BRANCH   1  18
ATOM     17  C   UNL     1      -1.186   0.922   7.453  0.00  0.00    +0.035 C 
ATOM     18  C   UNL     1       0.074   0.060   7.349  0.00  0.00    +0.160 C 
BRANCH  18  19
ATOM     19  N   UNL     1       0.097  -0.904   8.452  0.00  0.00    -0.178 NA
ATOM     20  H   UNL     1      -0.566  -1.782   8.429  0.00  0.00    +0.149 HD
BRANCH  19  21
ATOM     21  S   UNL     1       0.929  -0.555   9.840  0.00  0.00    +0.059 S 
ATOM     22  O   UNL     1       0.741  -1.659  10.715  0.00  0.00    -0.153 OA
ATOM     23  O   UNL     1       2.218  -0.111   9.441  0.00  0.00    -0.153 OA
BRANCH  21  24
ATOM     24  C   UNL     1       0.132   0.825  10.592  0.00  0.00    +0.107 A 
ATOM     25  C   UNL     1       0.533   2.110  10.278  0.00  0.00    +0.030 A 
ATOM     26  C   UNL     1      -0.095   3.194  10.862  0.00  0.00    +0.023 A 
ATOM     27  C   UNL     1      -1.119   2.992  11.771  0.00  0.00    +0.059 A 
ATOM     28  C   UNL     1      -1.517   1.705  12.089  0.00  0.00    +0.061 A 
ATOM     29  C   UNL     1      -0.891   0.622  11.499  0.00  0.00    +0.050 A 
ATOM     30 CL   UNL     1      -2.802   1.450  13.229  0.00  0.00    -0.082 Cl
ATOM     31 CL   UNL     1      -1.904   4.352  12.510  0.00  0.00    -0.082 Cl
ENDBRANCH  21  24
ENDBRANCH  19  21
ENDBRANCH  18  19
ENDBRANCH   1  18
TORSDOF 7
