REMARK  Name = ZINC02140231
REMARK  9 active torsions:
REMARK  status: ('A' for Active; 'I' for Inactive)
REMARK    1  A    between atoms: C_1  and  O_2
REMARK    2  A    between atoms: O_2  and  C_3
REMARK    3  A    between atoms: C_8  and  O_9
REMARK    4  A    between atoms: O_9  and  C_10
REMARK    5  A    between atoms: C_11  and  C_15
REMARK    6  A    between atoms: C_16  and  O_32
REMARK    7  A    between atoms: N_21  and  C_24
REMARK    8  A    between atoms: C_24  and  C_25
REMARK    9  A    between atoms: C_25  and  C_26
REMARK                            x       y       z     vdW  Elec       q    Type
REMARK                         _______ _______ _______ _____ _____    ______ ____
ROOT
ATOM      1  C   UNL     1      -2.765   1.481   2.500  0.00  0.00    +0.067 A 
ATOM      2  C   UNL     1      -3.192   0.721   3.549  0.00  0.00    +0.199 A 
ATOM      3  N   UNL     1      -3.894   1.311   4.569  0.00  0.00    -0.306 N 
ATOM      4  H   UNL     1      -4.197   0.775   5.318  0.00  0.00    +0.171 HD
ATOM      5  C   UNL     1      -4.169   2.628   4.534  0.00  0.00    +0.163 A 
ATOM      6  S   UNL     1      -5.052   3.338   5.817  0.00  0.00    -0.013 S 
ATOM      7  N   UNL     1      -3.761   3.394   3.506  0.00  0.00    -0.288 N 
ATOM      8  C   UNL     1      -3.065   2.855   2.486  0.00  0.00    +0.260 A 
ATOM      9  O   UNL     1      -2.698   3.553   1.556  0.00  0.00    -0.267 OA
ENDROOT
BRANCH   1  16
ATOM     10  C   UNL     1      -4.363   1.048  -2.186  0.00  0.00    +0.162 A 
ATOM     11  C   UNL     1      -3.010   1.331  -2.249  0.00  0.00    +0.053 A 
ATOM     12  C   UNL     1      -2.228   1.277  -1.105  0.00  0.00    -0.044 A 
ATOM     13  C   UNL     1      -2.799   0.938   0.104  0.00  0.00    -0.050 A 
ATOM     14  C   UNL     1      -4.156   0.656   0.172  0.00  0.00    +0.052 A 
ATOM     15  C   UNL     1      -4.940   0.709  -0.966  0.00  0.00    +0.162 A 
ATOM     16  C   UNL     1      -1.987   0.856   1.370  0.00  0.00    +0.001 C 
ATOM     17  C   UNL     1      -0.013   1.086   0.008  0.00  0.00    -0.077 C 
ATOM     18  C   UNL     1      -0.760   1.596  -1.224  0.00  0.00    +0.016 C 
ATOM     19  N   UNL     1      -0.708   1.567   1.215  0.00  0.00    +0.387 N 
ATOM     20  H   UNL     1      -0.120   1.394   2.039  0.00  0.00    -0.085 HD
ATOM     21  H   UNL     1      -0.886   2.574   1.128  0.00  0.00    -0.085 HD
BRANCH  10  23
ATOM     22  C   UNL     1      -4.463   1.456  -4.527  0.00  0.00    +0.277 C 
ATOM     23  O   UNL     1      -5.125   1.101  -3.312  0.00  0.00    -0.491 OA
ENDBRANCH  10  23
BRANCH  15  24
ATOM     24  O   UNL     1      -6.269   0.431  -0.893  0.00  0.00    -0.491 OA
ATOM     25  C   UNL     1      -6.791   0.090   0.393  0.00  0.00    +0.277 C 
ENDBRANCH  15  24
ENDBRANCH   1  16
BRANCH   2  26
ATOM     26  O   UNL     1      -2.922  -0.602   3.584  0.00  0.00    -0.493 OA
ATOM     27  H   UNL     1      -3.267  -1.052   4.367  0.00  0.00    +0.294 HD
ENDBRANCH   2  26
BRANCH   7  28
ATOM     28  C   UNL     1      -4.077   4.824   3.495  0.00  0.00    +0.131 C 
BRANCH  28  29
ATOM     29  C   UNL     1      -5.420   5.045   2.796  0.00  0.00    +0.052 C 
BRANCH  29  30
ATOM     30  C   UNL     1      -5.744   6.517   2.785  0.00  0.00    -0.072 C 
ATOM     31  C   UNL     1      -5.422   7.202   1.735  0.00  0.00    -0.028 C 
ATOM     32  C   UNL     1      -5.672   8.674   1.582  0.00  0.00    +0.027 C 
ATOM     33  C   UNL     1      -6.705   9.143   2.609  0.00  0.00    +0.004 C 
ATOM     34  C   UNL     1      -6.287   8.622   3.990  0.00  0.00    +0.005 C 
ATOM     35  C   UNL     1      -6.426   7.096   3.991  0.00  0.00    +0.030 C 
ENDBRANCH  29  30
ENDBRANCH  28  29
ENDBRANCH   7  28
TORSDOF 7
