REMARK  Name = ZINC21810072
REMARK  9 active torsions:
REMARK  status: ('A' for Active; 'I' for Inactive)
REMARK    1  A    between atoms: C_1  and  C_2
REMARK    2  A    between atoms: C_2  and  C_3
REMARK    3  A    between atoms: C_12  and  C_25
REMARK    4  A    between atoms: C_12  and  C_26
REMARK    5  A    between atoms: N_13  and  C_16
REMARK    6  A    between atoms: C_16  and  C_17
REMARK    7  A    between atoms: C_17  and  N_18
REMARK    8  A    between atoms: N_21  and  C_24
REMARK    9  A    between atoms: N_28  and  C_29
REMARK                            x       y       z     vdW  Elec       q    Type
REMARK                         _______ _______ _______ _____ _____    ______ ____
ROOT
ATOM      1  C   UNL     1       1.029  -4.133  -4.207  0.00  0.00    -0.008 A 
ATOM      2  C   UNL     1       0.854  -2.953  -3.576  0.00  0.00    +0.037 A 
ATOM      3  C   UNL     1       1.022  -2.864  -2.186  0.00  0.00    +0.057 A 
ATOM      4  C   UNL     1       1.369  -4.060  -1.540  0.00  0.00    +0.038 A 
ATOM      5  S   UNL     1       1.451  -5.234  -2.867  0.00  0.00    -0.092 S 
ATOM      6  C   UNL     1       1.498  -3.830  -0.175  0.00  0.00    +0.048 A 
ATOM      7  C   UNL     1       1.231  -2.510   0.037  0.00  0.00    +0.106 A 
ATOM      8  N   UNL     1       0.950  -1.911  -1.186  0.00  0.00    -0.333 N 
ATOM      9  C   UNL     1       0.650  -0.482  -1.298  0.00  0.00    +0.157 C 
ATOM     10  C   UNL     1       0.002  -0.004   0.002  0.00  0.00    +0.129 C 
ATOM     11  N   UNL     1       0.710  -0.472   1.188  0.00  0.00    -0.279 N 
ATOM     12  C   UNL     1       1.206  -1.728   1.279  0.00  0.00    +0.264 C 
ATOM     13  O   UNL     1       1.609  -2.184   2.334  0.00  0.00    -0.268 OA
ATOM     14  C   UNL     1      -0.019   1.526   0.010  0.00  0.00    +0.043 C 
ENDROOT
BRANCH  10  15
ATOM     15  C   UNL     1      -1.417  -0.510   0.051  0.00  0.00    +0.238 C 
ATOM     16  O   UNL     1      -2.323   0.186  -0.357  0.00  0.00    -0.273 OA
ATOM     17  N   UNL     1      -1.679  -1.735   0.548  0.00  0.00    -0.311 N 
ATOM     18  H   UNL     1      -0.857  -2.365   0.918  0.00  0.00    +0.149 HD
BRANCH  17  19
ATOM     19  C   UNL     1      -3.058  -2.226   0.595  0.00  0.00    +0.073 C 
ATOM     20  C   UNL     1      -3.735  -1.724   1.872  0.00  0.00    +0.022 C 
ATOM     21  C   UNL     1      -5.175  -2.237   1.922  0.00  0.00    +0.002 C 
ATOM     22  C   UNL     1      -5.172  -3.768   1.914  0.00  0.00    +0.000 C 
ATOM     23  C   UNL     1      -4.495  -4.269   0.637  0.00  0.00    +0.002 C 
ATOM     24  C   UNL     1      -3.055  -3.756   0.587  0.00  0.00    +0.022 C 
ENDBRANCH  17  19
ENDBRANCH  10  15
BRANCH   1  26
ATOM     25  C   UNL     1       2.254  -4.241  -6.360  0.00  0.00    +0.009 C 
ATOM     26  C   UNL     1       0.900  -4.443  -5.676  0.00  0.00    +0.039 C 
ENDBRANCH   1  26
BRANCH  11  27
ATOM     27  C   UNL     1       0.890   0.446   2.315  0.00  0.00    +0.124 C 
BRANCH  27  28
ATOM     28  C   UNL     1      -0.295   0.315   3.274  0.00  0.00    +0.103 C 
BRANCH  28  29
ATOM     29  N   UNL     1      -0.115   1.235   4.405  0.00  0.00    -0.304 NA
ATOM     30  C   UNL     1       1.040   0.842   5.225  0.00  0.00    +0.066 C 
ATOM     31  C   UNL     1       1.241   1.868   6.342  0.00  0.00    -0.064 C 
ATOM     32  N   UNL     1       0.021   1.946   7.158  0.00  0.00    +0.379 N 
ATOM     33  C   UNL     1      -1.133   2.339   6.338  0.00  0.00    -0.064 C 
ATOM     34  C   UNL     1      -1.335   1.312   5.221  0.00  0.00    +0.066 C 
ATOM     35  C   UNL     1       0.201   2.866   8.289  0.00  0.00    -0.096 C 
ATOM     36  H   UNL     1      -0.178   0.944   7.568  0.00  0.00    -0.082 HD
ENDBRANCH  28  29
ENDBRANCH  27  28
ENDBRANCH  11  27
TORSDOF 6
