REMARK  Name = ZINC39638472
REMARK  8 active torsions:
REMARK  status: ('A' for Active; 'I' for Inactive)
REMARK    1  A    between atoms: C_1  and  O_2
REMARK    2  A    between atoms: O_2  and  C_3
REMARK    3  A    between atoms: C_7  and  C_11
REMARK    4  A    between atoms: C_8  and  O_9
REMARK    5  A    between atoms: O_9  and  C_10
REMARK    6  A    between atoms: C_11  and  N_12
REMARK    7  A    between atoms: C_13  and  C_15
REMARK    8  A    between atoms: C_26  and  C_28
REMARK                            x       y       z     vdW  Elec       q    Type
REMARK                         _______ _______ _______ _____ _____    ______ ____
ROOT
ATOM      1  C   UNL     1       4.447  -4.642   1.591  0.00  0.00    +0.100 C 
ATOM      2  C   UNL     1       5.526  -3.736   2.226  0.00  0.00    +0.121 C 
ATOM      3  N   UNL     1       6.171  -4.586   3.254  0.00  0.00    -0.296 N 
ATOM      4  C   UNL     1       6.261  -5.924   2.623  0.00  0.00    +0.115 C 
ATOM      5  C   UNL     1       4.935  -6.077   1.850  0.00  0.00    -0.004 C 
ATOM      6  C   UNL     1       5.175  -6.801   0.529  0.00  0.00    -0.010 C 
ATOM      7  C   UNL     1       5.603  -8.243   0.811  0.00  0.00    -0.082 C 
ATOM      8  N   UNL     1       4.556  -8.925   1.583  0.00  0.00    +0.379 N 
ATOM      9  C   UNL     1       4.397  -8.278   2.891  0.00  0.00    -0.082 C 
ATOM     10  C   UNL     1       3.918  -6.837   2.696  0.00  0.00    -0.010 C 
ATOM     11  C   UNL     1       6.585  -4.224   4.485  0.00  0.00    +0.248 C 
ATOM     12  O   UNL     1       6.355  -3.103   4.898  0.00  0.00    -0.270 OA
ATOM     13  H   UNL     1       3.683  -8.877   1.078  0.00  0.00    -0.086 HD
ATOM     14  H   UNL     1       4.812  -9.891   1.715  0.00  0.00    -0.086 HD
ENDROOT
BRANCH  11  15
ATOM     15  C   UNL     1       7.312  -5.182   5.326  0.00  0.00    +0.052 A 
ATOM     16  C   UNL     1       8.162  -6.090   4.780  0.00  0.00    +0.059 A 
ATOM     17  S   UNL     1       8.767  -6.970   6.073  0.00  0.00    -0.096 S 
ATOM     18  C   UNL     1       7.922  -6.178   7.414  0.00  0.00    +0.020 A 
ATOM     19  C   UNL     1       7.149  -5.185   6.782  0.00  0.00    +0.001 A 
ATOM     20  C   UNL     1       6.352  -4.367   7.605  0.00  0.00    +0.010 A 
ATOM     21  C   UNL     1       6.349  -4.543   8.966  0.00  0.00    +0.001 A 
ATOM     22  C   UNL     1       7.125  -5.526   9.565  0.00  0.00    +0.001 A 
ATOM     23  C   UNL     1       7.908  -6.350   8.781  0.00  0.00    +0.015 A 
ENDBRANCH  11  15
BRANCH   1  25
ATOM     24  N   UNL     1       1.974  -4.622   1.565  0.00  0.00    -0.311 N 
ATOM     25  C   UNL     1       3.113  -4.414   2.255  0.00  0.00    +0.218 C 
ATOM     26  O   UNL     1       3.065  -4.043   3.408  0.00  0.00    -0.275 OA
ATOM     27  H   UNL     1       2.010  -4.985   0.666  0.00  0.00    +0.149 HD
BRANCH  24  28
ATOM     28  C   UNL     1       0.681  -4.300   2.174  0.00  0.00    +0.143 C 
BRANCH  28  33
ATOM     29  C   UNL     1      -1.900  -5.997  -0.014  0.00  0.00    +0.162 A 
ATOM     30  C   UNL     1      -2.436  -4.914  -0.692  0.00  0.00    +0.049 A 
ATOM     31  C   UNL     1      -1.964  -3.639  -0.440  0.00  0.00    +0.004 A 
ATOM     32  C   UNL     1      -0.957  -3.442   0.486  0.00  0.00    +0.009 A 
ATOM     33  C   UNL     1      -0.417  -4.519   1.165  0.00  0.00    +0.015 A 
ATOM     34  C   UNL     1      -0.891  -5.798   0.922  0.00  0.00    +0.166 A 
BRANCH  29  36
ATOM     35  C   UNL     1      -3.402  -7.381  -1.234  0.00  0.00    +0.277 C 
ATOM     36  O   UNL     1      -2.364  -7.252  -0.260  0.00  0.00    -0.491 OA
ENDBRANCH  29  36
BRANCH  34  37
ATOM     37  O   UNL     1      -0.365  -6.858   1.594  0.00  0.00    -0.491 OA
ATOM     38  C   UNL     1       0.723  -7.545   0.973  0.00  0.00    +0.277 C 
ENDBRANCH  34  37
ENDBRANCH  28  33
ENDBRANCH  24  28
ENDBRANCH   1  25
TORSDOF 6
