REMARK  Name = ZINC08607006
REMARK  9 active torsions:
REMARK  status: ('A' for Active; 'I' for Inactive)
REMARK    1  A    between atoms: C_1  and  C_2
REMARK    2  A    between atoms: C_2  and  C_4
REMARK    3  A    between atoms: C_7  and  N_10
REMARK    4  A    between atoms: C_11  and  C_13
REMARK    5  A    between atoms: C_16  and  N_19
REMARK    6  A    between atoms: C_20  and  N_28
REMARK    7  A    between atoms: C_21  and  C_24
REMARK    8  A    between atoms: C_24  and  O_26
REMARK    9  A    between atoms: O_26  and  C_27
REMARK                            x       y       z     vdW  Elec       q    Type
REMARK                         _______ _______ _______ _____ _____    ______ ____
ROOT
ATOM      1  C   UNL     1       0.214  -4.854  -6.176  0.00  0.00    +0.037 A 
ATOM      2  C   UNL     1       0.204  -4.146  -7.381  0.00  0.00    +0.015 A 
ATOM      3  C   UNL     1       0.305  -4.822  -8.576  0.00  0.00    +0.028 A 
ATOM      4  C   UNL     1       0.416  -6.208  -8.585  0.00  0.00    +0.067 A 
ATOM      5  C   UNL     1       0.426  -6.917  -7.388  0.00  0.00    +0.028 A 
ATOM      6  C   UNL     1       0.332  -6.246  -6.189  0.00  0.00    +0.015 A 
ENDROOT
BRANCH   4   7
ATOM      7  N   UNL     1       0.517  -6.892  -9.800  0.00  0.00    -0.218 N 
ATOM      8  C   UNL     1       1.242  -8.012 -10.018  0.00  0.00    +0.134 A 
ATOM      9  C   UNL     1       1.065  -8.358 -11.357  0.00  0.00    +0.118 A 
ATOM     10  C   UNL     1       0.200  -7.391 -11.923  0.00  0.00    +0.151 A 
ATOM     11  N   UNL     1      -0.120  -6.536 -10.993  0.00  0.00    -0.172 NA
BRANCH   8  12
ATOM     12  N   UNL     1       2.012  -8.684  -9.093  0.00  0.00    -0.342 N 
ATOM     13  H   UNL     1       2.070  -8.357  -8.181  0.00  0.00    +0.144 HD
ATOM     14  H   UNL     1       2.497  -9.483  -9.353  0.00  0.00    +0.144 HD
ENDBRANCH   8  12
BRANCH   9  15
ATOM     15  C   UNL     1       1.661  -9.506 -12.047  0.00  0.00    +0.344 C 
ATOM     16  O   UNL     1       2.393 -10.267 -11.442  0.00  0.00    -0.245 OA
BRANCH  15  17
ATOM     17  O   UNL     1       1.399  -9.718 -13.353  0.00  0.00    -0.464 OA
ATOM     18  C   UNL     1       2.014 -10.856 -13.961  0.00  0.00    +0.280 C 
ENDBRANCH  15  17
ENDBRANCH   9  15
ENDBRANCH   4   7
BRANCH   1  20
ATOM     19  N   UNL     1      -0.008  -2.789  -4.883  0.00  0.00    -0.282 N 
ATOM     20  C   UNL     1       0.106  -4.132  -4.893  0.00  0.00    +0.248 C 
ATOM     21  O   UNL     1       0.120  -4.749  -3.846  0.00  0.00    -0.270 OA
ATOM     22  H   UNL     1      -0.096  -2.303  -5.718  0.00  0.00    +0.155 HD
BRANCH  19  26
ATOM     23  C   UNL     1       0.021  -0.729  -1.275  0.00  0.00    +0.017 A 
ATOM     24  C   UNL     1       0.785  -1.893  -1.425  0.00  0.00    +0.013 A 
ATOM     25  C   UNL     1       0.773  -2.567  -2.613  0.00  0.00    +0.024 A 
ATOM     26  C   UNL     1       0.001  -2.099  -3.674  0.00  0.00    +0.034 A 
ATOM     27  C   UNL     1      -0.761  -0.943  -3.529  0.00  0.00    +0.024 A 
ATOM     28  C   UNL     1      -0.759  -0.266  -2.342  0.00  0.00    +0.013 A 
BRANCH  23  30
ATOM     29  C   UNL     1       0.870  -0.501   1.147  0.00  0.00    +0.091 C 
ATOM     30  C   UNL     1       0.031  -0.001  -0.000  0.00  0.00    +0.160 C 
ATOM     31  O   UNL     1      -0.636   1.004   0.130  0.00  0.00    -0.292 OA
ENDBRANCH  23  30
ENDBRANCH  19  26
ENDBRANCH   1  20
TORSDOF 7
