REMARK  Name = ZINC38679988
REMARK  11 active torsions:
REMARK  status: ('A' for Active; 'I' for Inactive)
REMARK    1  A    between atoms: C_1  and  C_2
REMARK    2  A    between atoms: C_2  and  C_3
REMARK    3  A    between atoms: C_6  and  O_9
REMARK    4  A    between atoms: O_9  and  C_10
REMARK    5  A    between atoms: C_10  and  C_12
REMARK    6  A    between atoms: C_10  and  C_13
REMARK    7  A    between atoms: C_13  and  O_15
REMARK    8  A    between atoms: O_15  and  C_16
REMARK    9  A    between atoms: C_23  and  N_37
REMARK   10  A    between atoms: C_24  and  C_35
REMARK   11  A    between atoms: C_25  and  C_27
REMARK                            x       y       z     vdW  Elec       q    Type
REMARK                         _______ _______ _______ _____ _____    ______ ____
ROOT
ATOM      1  C   UNL     1       3.496  -1.694   9.012  0.00  0.00    +0.135 A 
ATOM      2  C   UNL     1       4.802  -1.419   8.632  0.00  0.00    +0.047 A 
ATOM      3  C   UNL     1       5.756  -1.144   9.592  0.00  0.00    +0.012 A 
ATOM      4  C   UNL     1       5.416  -1.142  10.933  0.00  0.00    +0.008 A 
ATOM      5  C   UNL     1       4.113  -1.417  11.318  0.00  0.00    +0.138 A 
ATOM      6  C   UNL     1       3.151  -1.688  10.353  0.00  0.00    +0.093 A 
ATOM      7  O   UNL     1       3.760  -1.420  12.627  0.00  0.00    -0.441 OA
ATOM      8  C   UNL     1       4.704  -1.541  13.575  0.00  0.00    +0.199 C 
ATOM      9  C   UNL     1       6.009  -1.281  13.325  0.00  0.00    +0.098 C 
ATOM     10  C   UNL     1       6.471  -0.840  11.964  0.00  0.00    +0.101 C 
ENDROOT
BRANCH  10  11
ATOM     11  C   UNL     1       6.738   0.643  11.985  0.00  0.00    +0.002 A 
ATOM     12  C   UNL     1       5.717   1.527  12.286  0.00  0.00    +0.046 A 
ATOM     13  C   UNL     1       5.964   2.888  12.305  0.00  0.00    +0.020 A 
ATOM     14  C   UNL     1       7.230   3.365  12.021  0.00  0.00    +0.003 A 
ATOM     15  C   UNL     1       8.250   2.483  11.720  0.00  0.00    +0.020 A 
ATOM     16  C   UNL     1       8.006   1.121  11.707  0.00  0.00    +0.046 A 
ATOM     17 CL   UNL     1       9.290   0.013  11.336  0.00  0.00    -0.083 Cl
ATOM     18 CL   UNL     1       4.127   0.927  12.641  0.00  0.00    -0.083 Cl
ENDBRANCH  10  11
BRANCH   8  19
ATOM     19  N   UNL     1       4.334  -1.940  14.836  0.00  0.00    -0.328 N 
ATOM     20  H   UNL     1       3.403  -2.130  15.031  0.00  0.00    +0.145 HD
ATOM     21  H   UNL     1       5.004  -2.032  15.531  0.00  0.00    +0.145 HD
ENDBRANCH   8  19
BRANCH   9  22
ATOM     22  C   UNL     1       6.968  -1.428  14.378  0.00  0.00    +0.101 C 
ATOM     23  N   UNL     1       7.729  -1.546  15.213  0.00  0.00    -0.191 NA
ENDBRANCH   9  22
BRANCH   1  24
ATOM     24  O   UNL     1       2.556  -1.965   8.068  0.00  0.00    -0.423 OA
BRANCH  24  25
ATOM     25  C   UNL     1       2.691  -3.091   7.349  0.00  0.00    +0.353 C 
ATOM     26  O   UNL     1       3.572  -3.874   7.612  0.00  0.00    -0.246 OA
BRANCH  25  27
ATOM     27  C   UNL     1       1.742  -3.379   6.214  0.00  0.00    +0.279 C 
ATOM     28  C   UNL     1       0.311  -3.452   6.752  0.00  0.00    +0.064 C 
BRANCH  27  29
ATOM     29  O   UNL     1       2.088  -4.626   5.609  0.00  0.00    -0.478 OA
BRANCH  29  33
ATOM     30  C   UNL     1       1.486  -4.962   1.541  0.00  0.00    -0.047 A 
ATOM     31  C   UNL     1       1.054  -3.833   2.212  0.00  0.00    +0.007 A 
ATOM     32  C   UNL     1       1.254  -3.718   3.574  0.00  0.00    +0.046 A 
ATOM     33  C   UNL     1       1.889  -4.737   4.269  0.00  0.00    +0.122 A 
ATOM     34  C   UNL     1       2.322  -5.869   3.594  0.00  0.00    +0.046 A 
ATOM     35  C   UNL     1       2.115  -5.981   2.232  0.00  0.00    +0.007 A 
BRANCH  30  37
ATOM     36  C   UNL     1      -0.085  -5.751  -0.208  0.00  0.00    +0.009 C 
ATOM     37  C   UNL     1       1.267  -5.085   0.055  0.00  0.00    +0.032 C 
ENDBRANCH  30  37
ENDBRANCH  29  33
ENDBRANCH  27  29
ENDBRANCH  25  27
ENDBRANCH  24  25
ENDBRANCH   1  24
TORSDOF 9
