REMARK  Name = ZINC44862327
REMARK  10 active torsions:
REMARK  status: ('A' for Active; 'I' for Inactive)
REMARK    1  A    between atoms: C_1  and  C_2
REMARK    2  A    between atoms: C_4  and  C_21
REMARK    3  A    between atoms: C_5  and  N_9
REMARK    4  A    between atoms: C_6  and  C_8
REMARK    5  A    between atoms: C_10  and  C_12
REMARK    6  A    between atoms: C_12  and  C_14
REMARK    7  A    between atoms: C_12  and  C_17
REMARK    8  A    between atoms: C_14  and  C_15
REMARK    9  A    between atoms: C_14  and  C_16
REMARK   10  A    between atoms: N_18  and  O_19
REMARK                            x       y       z     vdW  Elec       q    Type
REMARK                         _______ _______ _______ _____ _____    ______ ____
ROOT
ATOM      1  N   UNL     1      -0.299  -3.951   0.122  0.00  0.00    -0.284 N 
ATOM      2  C   UNL     1       0.020  -4.814   1.107  0.00  0.00    +0.228 C 
ATOM      3  O   UNL     1       0.588  -4.415   2.102  0.00  0.00    -0.275 OA
ATOM      4  H   UNL     1      -0.673  -4.281  -0.710  0.00  0.00    +0.155 HD
ENDROOT
BRANCH   1   9
ATOM      5  C   UNL     1       0.548   1.613   0.839  0.00  0.00    +0.044 C 
ATOM      6  C   UNL     1       0.323   0.135   0.649  0.00  0.00    -0.050 A 
ATOM      7  C   UNL     1       1.380  -0.747   0.782  0.00  0.00    +0.008 A 
ATOM      8  C   UNL     1       1.177  -2.102   0.608  0.00  0.00    -0.029 A 
ATOM      9  C   UNL     1      -0.090  -2.578   0.299  0.00  0.00    +0.039 A 
ATOM     10  C   UNL     1      -1.149  -1.690   0.167  0.00  0.00    -0.029 A 
ATOM     11  C   UNL     1      -0.941  -0.337   0.347  0.00  0.00    +0.008 A 
ATOM     12  C   UNL     1      -2.526  -2.203  -0.168  0.00  0.00    +0.045 C 
ATOM     13  C   UNL     1       2.330  -3.062   0.752  0.00  0.00    +0.045 C 
ENDBRANCH   1   9
BRANCH   2  14
ATOM     14  C   UNL     1      -0.328  -6.274   0.972  0.00  0.00    +0.144 C 
BRANCH  14  15
ATOM     15  C   UNL     1      -0.406  -6.900   2.340  0.00  0.00    +0.144 C 
ATOM     16  N   UNL     1       0.622  -7.508   2.831  0.00  0.00    -0.076 NA
ATOM     17  N   UNL     1      -1.574  -6.825   3.066  0.00  0.00    -0.343 N 
ATOM     18  H   UNL     1      -2.346  -6.368   2.697  0.00  0.00    +0.144 HD
ATOM     19  H   UNL     1      -1.624  -7.228   3.947  0.00  0.00    +0.144 HD
BRANCH  16  20
ATOM     20  O   UNL     1       0.549  -8.097   4.117  0.00  0.00    -0.408 OA
ATOM     21  H   UNL     1       1.367  -8.529   4.399  0.00  0.00    +0.328 HD
ENDBRANCH  16  20
ENDBRANCH  14  15
BRANCH  14  22
ATOM     22  C   UNL     1       0.750  -6.981   0.147  0.00  0.00    +0.002 C 
ATOM     23  C   UNL     1       0.381  -8.457  -0.015  0.00  0.00    +0.008 C 
ATOM     24  C   UNL     1       0.849  -6.325  -1.232  0.00  0.00    +0.008 C 
ENDBRANCH  14  22
ENDBRANCH   2  14
TORSDOF 5
