REMARK  Name = ZINC36697466
REMARK  11 active torsions:
REMARK  status: ('A' for Active; 'I' for Inactive)
REMARK    1  A    between atoms: C_1  and  C_2
REMARK    2  A    between atoms: C_3  and  C_35
REMARK    3  A    between atoms: C_11  and  C_13
REMARK    4  A    between atoms: C_13  and  S_14
REMARK    5  A    between atoms: S_14  and  C_15
REMARK    6  A    between atoms: C_15  and  C_17
REMARK    7  A    between atoms: C_15  and  C_18
REMARK    8  A    between atoms: N_20  and  C_21
REMARK    9  A    between atoms: C_21  and  C_22
REMARK   10  A    between atoms: C_22  and  C_24
REMARK   11  A    between atoms: C_22  and  N_29
REMARK                            x       y       z     vdW  Elec       q    Type
REMARK                         _______ _______ _______ _____ _____    ______ ____
ROOT
ATOM      1  C   UNL     1       0.964  -7.944   5.354  0.00  0.00    +0.226 C 
ATOM      2  O   UNL     1       1.583  -8.466   4.451  0.00  0.00    -0.275 OA
ATOM      3  N   UNL     1       0.090  -8.670   6.081  0.00  0.00    -0.316 N 
ATOM      4  H   UNL     1      -0.404  -8.252   6.803  0.00  0.00    +0.149 HD
ENDROOT
BRANCH   1   5
ATOM      5  C   UNL     1       1.172  -6.484   5.664  0.00  0.00    +0.129 C 
ATOM      6  C   UNL     1       2.208  -6.343   6.781  0.00  0.00    +0.029 C 
BRANCH   5   7
ATOM      7  S   UNL     1       1.764  -5.629   4.178  0.00  0.00    -0.141 S 
BRANCH   7   8
ATOM      8  C   UNL     1       1.816  -3.883   4.668  0.00  0.00    +0.144 C 
BRANCH   8  19
ATOM      9  C   UNL     1       3.858   0.575   0.096  0.00  0.00    +0.045 C 
ATOM     10  C   UNL     1       3.652  -0.916   0.169  0.00  0.00    -0.026 A 
ATOM     11  C   UNL     1       3.912  -1.691  -0.897  0.00  0.00    -0.008 A 
ATOM     12  S   UNL     1       3.521  -3.332  -0.320  0.00  0.00    -0.073 S 
ATOM     13  C   UNL     1       3.020  -2.929   1.335  0.00  0.00    +0.116 A 
ATOM     14  C   UNL     1       3.176  -1.533   1.393  0.00  0.00    +0.075 A 
ATOM     15  C   UNL     1       2.840  -0.924   2.646  0.00  0.00    +0.260 A 
ATOM     16  O   UNL     1       2.938   0.282   2.795  0.00  0.00    -0.267 OA
ATOM     17  N   UNL     1       2.414  -1.705   3.656  0.00  0.00    -0.310 N 
ATOM     18  H   UNL     1       2.185  -1.299   4.507  0.00  0.00    +0.170 HD
ATOM     19  C   UNL     1       2.298  -3.050   3.509  0.00  0.00    +0.121 A 
ATOM     20  N   UNL     1       2.588  -3.633   2.377  0.00  0.00    -0.226 NA
ATOM     21  C   UNL     1       4.414  -1.273  -2.255  0.00  0.00    +0.052 C 
ENDBRANCH   8  19
ENDBRANCH   7   8
ENDBRANCH   5   7
ENDBRANCH   1   5
BRANCH   3  22
ATOM     22  C   UNL     1      -0.112 -10.089   5.779  0.00  0.00    +0.096 C 
BRANCH  22  23
ATOM     23  C   UNL     1      -1.046 -10.704   6.823  0.00  0.00    +0.016 C 
BRANCH  23  24
ATOM     24  N   UNL     1      -0.484 -10.498   8.165  0.00  0.00    +0.387 N 
ATOM     25  C   UNL     1       0.878 -11.043   8.212  0.00  0.00    -0.078 C 
ATOM     26  C   UNL     1       1.498 -10.760   9.582  0.00  0.00    -0.019 C 
ATOM     27  C   UNL     1       0.644 -11.419  10.669  0.00  0.00    -0.004 C 
ATOM     28  C   UNL     1      -0.792 -10.899  10.563  0.00  0.00    -0.019 C 
ATOM     29  C   UNL     1      -1.327 -11.177   9.156  0.00  0.00    -0.078 C 
ATOM     30  H   UNL     1      -0.456  -9.511   8.369  0.00  0.00    -0.081 HD
ENDBRANCH  23  24
BRANCH  23  31
ATOM     31  C   UNL     1      -1.190 -12.181   6.560  0.00  0.00    +0.093 A 
ATOM     32  C   UNL     1      -2.288 -12.791   6.079  0.00  0.00    +0.043 A 
ATOM     33  C   UNL     1      -1.986 -14.169   5.991  0.00  0.00    +0.041 A 
ATOM     34  C   UNL     1      -0.721 -14.319   6.423  0.00  0.00    +0.195 A 
ATOM     35  O   UNL     1      -0.242 -13.111   6.761  0.00  0.00    -0.469 OA
ENDBRANCH  23  31
ENDBRANCH  22  23
ENDBRANCH   3  22
TORSDOF 8
