REMARK  Name = ZINC06082570
REMARK  10 active torsions:
REMARK  status: ('A' for Active; 'I' for Inactive)
REMARK    1  A    between atoms: C_1  and  C_2
REMARK    2  A    between atoms: C_10  and  C_11
REMARK    3  A    between atoms: C_11  and  C_12
REMARK    4  A    between atoms: C_12  and  O_14
REMARK    5  A    between atoms: O_14  and  C_15
REMARK    6  A    between atoms: C_15  and  C_17
REMARK    7  A    between atoms: C_15  and  C_18
REMARK    8  A    between atoms: N_20  and  C_21
REMARK    9  A    between atoms: C_24  and  S_27
REMARK   10  A    between atoms: S_27  and  N_30
REMARK                            x       y       z     vdW  Elec       q    Type
REMARK                         _______ _______ _______ _____ _____    ______ ____
ROOT
ATOM      1  C   UNL     1      -1.212  -0.819   0.131  0.00  0.00    +0.259 C 
ATOM      2  C   UNL     1      -2.092  -0.586  -1.099  0.00  0.00    +0.062 C 
ENDROOT
BRANCH   1   3
ATOM      3  C   UNL     1       0.049  -0.003   0.007  0.00  0.00    +0.258 C 
ATOM      4  O   UNL     1       1.123  -0.557  -0.094  0.00  0.00    -0.271 OA
ATOM      5  N   UNL     1      -0.016   1.344   0.009  0.00  0.00    -0.282 N 
ATOM      6  H   UNL     1      -0.879   1.787   0.019  0.00  0.00    +0.155 HD
BRANCH   5   7
ATOM      7  C   UNL     1       1.160   2.101  -0.008  0.00  0.00    +0.034 A 
ATOM      8  C   UNL     1       1.221   3.307   0.679  0.00  0.00    +0.025 A 
ATOM      9  C   UNL     1       2.385   4.050   0.665  0.00  0.00    +0.030 A 
ATOM     10  C   UNL     1       3.486   3.600  -0.041  0.00  0.00    +0.105 A 
ATOM     11  C   UNL     1       3.426   2.402  -0.731  0.00  0.00    +0.030 A 
ATOM     12  C   UNL     1       2.267   1.652  -0.716  0.00  0.00    +0.025 A 
BRANCH  10  13
ATOM     13  S   UNL     1       4.967   4.554  -0.062  0.00  0.00    +0.056 S 
ATOM     14  O   UNL     1       4.946   5.363   1.106  0.00  0.00    -0.153 OA
ATOM     15  O   UNL     1       6.028   3.651  -0.344  0.00  0.00    -0.153 OA
BRANCH  13  16
ATOM     16  N   UNL     1       4.867   5.585  -1.354  0.00  0.00    -0.204 NA
ATOM     17  H   UNL     1       5.309   6.447  -1.321  0.00  0.00    +0.144 HD
ATOM     18  H   UNL     1       4.366   5.326  -2.144  0.00  0.00    +0.144 HD
ENDBRANCH  13  16
ENDBRANCH  10  13
ENDBRANCH   5   7
ENDBRANCH   1   3
BRANCH   1  19
ATOM     19  O   UNL     1      -0.870  -2.227   0.222  0.00  0.00    -0.452 OA
BRANCH  19  20
ATOM     20  C   UNL     1      -1.703  -3.012   0.923  0.00  0.00    +0.312 C 
ATOM     21  O   UNL     1      -2.685  -2.538   1.443  0.00  0.00    -0.250 OA
BRANCH  20  22
ATOM     22  C   UNL     1      -1.413  -4.484   1.062  0.00  0.00    +0.159 C 
BRANCH  22  32
ATOM     23  C   UNL     1      -7.688  -7.326   1.046  0.00  0.00    +0.044 C 
ATOM     24  C   UNL     1      -6.311  -6.729   1.183  0.00  0.00    -0.047 A 
ATOM     25  C   UNL     1      -5.668  -6.222   0.063  0.00  0.00    +0.004 A 
ATOM     26  C   UNL     1      -4.419  -5.676   0.170  0.00  0.00    +0.012 A 
ATOM     27  C   UNL     1      -3.789  -5.630   1.413  0.00  0.00    +0.024 A 
ATOM     28  C   UNL     1      -4.434  -6.144   2.550  0.00  0.00    +0.135 A 
ATOM     29  C   UNL     1      -5.702  -6.698   2.419  0.00  0.00    +0.050 A 
ATOM     30  O   UNL     1      -3.605  -5.962   3.598  0.00  0.00    -0.463 OA
ATOM     31  C   UNL     1      -2.464  -5.368   3.208  0.00  0.00    +0.200 A 
ATOM     32  C   UNL     1      -2.492  -5.133   1.889  0.00  0.00    +0.009 A 
ENDBRANCH  22  32
ENDBRANCH  20  22
ENDBRANCH  19  20
ENDBRANCH   1  19
TORSDOF 8
