REMARK  Name = ZINC02955699
REMARK  7 active torsions:
REMARK  status: ('A' for Active; 'I' for Inactive)
REMARK    1  A    between atoms: C_1  and  C_2
REMARK    2  A    between atoms: C_5  and  N_9
REMARK    3  A    between atoms: C_11  and  C_23
REMARK    4  A    between atoms: C_14  and  C_21
REMARK    5  A    between atoms: C_17  and  C_20
REMARK    6  A    between atoms: C_21  and  O_22
REMARK    7  A    between atoms: N_25  and  C_26
REMARK                            x       y       z     vdW  Elec       q    Type
REMARK                         _______ _______ _______ _____ _____    ______ ____
ROOT
ATOM      1  N   UNL     1       0.602  -4.810  -0.822  0.00  0.00    -0.325 N 
ATOM      2  C   UNL     1       0.989  -4.856   0.434  0.00  0.00    +0.212 A 
ATOM      3  C   UNL     1       0.609  -5.988   1.304  0.00  0.00    +0.098 A 
ATOM      4  C   UNL     1       1.444  -6.280   2.360  0.00  0.00    +0.030 A 
ATOM      5  C   UNL     1       2.632  -5.441   2.528  0.00  0.00    +0.027 A 
ATOM      6  C   UNL     1       3.672  -5.801   3.394  0.00  0.00    +0.007 A 
ATOM      7  C   UNL     1       4.761  -4.961   3.498  0.00  0.00    +0.117 A 
ATOM      8  N   UNL     1       4.832  -3.842   2.801  0.00  0.00    -0.256 NA
ATOM      9  C   UNL     1       3.879  -3.459   1.975  0.00  0.00    +0.081 A 
ATOM     10  C   UNL     1       2.744  -4.239   1.805  0.00  0.00    +0.159 A 
ATOM     11  O   UNL     1       1.753  -3.867   0.965  0.00  0.00    -0.437 OA
ATOM     12  C   UNL     1       4.025  -2.169   1.210  0.00  0.00    +0.069 C 
ATOM     13  H   UNL     1       0.153  -5.573  -1.219  0.00  0.00    +0.169 HD
ENDROOT
BRANCH   1  18
ATOM     14  C   UNL     1       1.553  -0.177  -3.905  0.00  0.00    +0.047 C 
ATOM     15  C   UNL     1       1.299  -1.414  -3.081  0.00  0.00    -0.015 A 
ATOM     16  C   UNL     1       1.562  -2.663  -3.615  0.00  0.00    +0.008 A 
ATOM     17  C   UNL     1       1.333  -3.799  -2.868  0.00  0.00    +0.026 A 
ATOM     18  C   UNL     1       0.833  -3.687  -1.567  0.00  0.00    +0.045 A 
ATOM     19  C   UNL     1       0.569  -2.424  -1.033  0.00  0.00    +0.064 A 
ATOM     20  C   UNL     1       0.808  -1.294  -1.791  0.00  0.00    +0.128 A 
ATOM     21  F   UNL     1       0.559  -0.071  -1.275  0.00  0.00    -0.205 F 
ENDBRANCH   1  18
BRANCH   3  22
ATOM     22  C   UNL     1      -0.613  -6.772   1.052  0.00  0.00    +0.253 C 
ATOM     23  O   UNL     1      -0.838  -7.774   1.704  0.00  0.00    -0.270 OA
ATOM     24  N   UNL     1      -1.482  -6.380   0.099  0.00  0.00    -0.281 N 
ATOM     25  H   UNL     1      -1.277  -5.612  -0.458  0.00  0.00    +0.155 HD
BRANCH  24  26
ATOM     26  C   UNL     1      -2.679  -7.078  -0.086  0.00  0.00    +0.034 A 
ATOM     27  C   UNL     1      -2.719  -8.454   0.103  0.00  0.00    +0.024 A 
ATOM     28  C   UNL     1      -3.902  -9.141  -0.081  0.00  0.00    +0.017 A 
ATOM     29  C   UNL     1      -5.048  -8.461  -0.455  0.00  0.00    +0.018 A 
ATOM     30  C   UNL     1      -5.011  -7.091  -0.645  0.00  0.00    +0.017 A 
ATOM     31  C   UNL     1      -3.832  -6.397  -0.456  0.00  0.00    +0.024 A 
ATOM     32 BR   UNL     1      -6.667  -9.405  -0.706  0.00  0.00    -0.050 Br
ENDBRANCH  24  26
ENDBRANCH   3  22
BRANCH   6  33
ATOM     33  C   UNL     1       3.603  -7.076   4.194  0.00  0.00    +0.193 C 
BRANCH  33  34
ATOM     34  O   UNL     1       4.782  -7.204   4.991  0.00  0.00    -0.390 OA
ATOM     35  H   UNL     1       4.805  -8.004   5.533  0.00  0.00    +0.210 HD
ENDBRANCH  33  34
ENDBRANCH   6  33
TORSDOF 5
