REMARK  Name = ZINC34898324
REMARK  11 active torsions:
REMARK  status: ('A' for Active; 'I' for Inactive)
REMARK    1  A    between atoms: C_9  and  C_11
REMARK    2  A    between atoms: C_11  and  C_12
REMARK    3  A    between atoms: C_12  and  C_13
REMARK    4  A    between atoms: C_16  and  O_20
REMARK    5  A    between atoms: C_18  and  O_19
REMARK    6  A    between atoms: O_20  and  C_21
REMARK    7  A    between atoms: C_23  and  O_36
REMARK    8  A    between atoms: C_25  and  O_35
REMARK    9  A    between atoms: C_27  and  O_34
REMARK   10  A    between atoms: C_29  and  C_32
REMARK   11  A    between atoms: C_32  and  O_33
REMARK                            x       y       z     vdW  Elec       q    Type
REMARK                         _______ _______ _______ _____ _____    ______ ____
ROOT
ATOM      1  C   UNL     1       7.183  -2.549  -1.462  0.00  0.00    +0.059 A 
ATOM      2  C   UNL     1       7.736  -3.510  -0.605  0.00  0.00    +0.018 A 
ATOM      3  C   UNL     1       8.999  -3.976  -0.825  0.00  0.00    +0.046 A 
ATOM      4  C   UNL     1       9.748  -3.502  -1.900  0.00  0.00    +0.128 A 
ATOM      5  C   UNL     1       9.216  -2.551  -2.759  0.00  0.00    +0.091 A 
ATOM      6  C   UNL     1       7.934  -2.073  -2.552  0.00  0.00    +0.131 A 
ENDROOT
BRANCH   1   7
ATOM      7  C   UNL     1       5.826  -2.047  -1.228  0.00  0.00    +0.172 C 
ATOM      8  O   UNL     1       5.348  -1.219  -1.975  0.00  0.00    -0.292 OA
BRANCH   7   9
ATOM      9  C   UNL     1       5.025  -2.559  -0.059  0.00  0.00    +0.135 C 
BRANCH   9  18
ATOM     10  C   UNL     1      -0.016   1.357   0.009  0.00  0.00    +0.001 A 
ATOM     11  C   UNL     1       1.170   2.088   0.002  0.00  0.00    +0.002 A 
ATOM     12  C   UNL     1       2.379   1.465  -0.013  0.00  0.00    +0.028 A 
ATOM     13  C   UNL     1       2.440   0.060  -0.021  0.00  0.00    +0.071 A 
ATOM     14  C   UNL     1       1.232  -0.681  -0.013  0.00  0.00    +0.000 A 
ATOM     15  C   UNL     1       0.002  -0.004   0.002  0.00  0.00    +0.010 A 
ATOM     16  C   UNL     1       1.295  -2.087  -0.021  0.00  0.00    +0.012 A 
ATOM     17  C   UNL     1       2.527  -2.677  -0.036  0.00  0.00    +0.024 A 
ATOM     18  C   UNL     1       3.675  -1.889  -0.043  0.00  0.00    +0.049 A 
ATOM     19  N   UNL     1       3.613  -0.580  -0.035  0.00  0.00    -0.251 NA
ENDBRANCH   9  18
ENDBRANCH   7   9
ENDBRANCH   1   7
BRANCH   6  20
ATOM     20  O   UNL     1       7.407  -1.148  -3.392  0.00  0.00    -0.506 OA
ATOM     21  H   UNL     1       7.580  -0.234  -3.129  0.00  0.00    +0.292 HD
ENDBRANCH   6  20
BRANCH   4  22
ATOM     22  O   UNL     1      11.003  -3.973  -2.108  0.00  0.00    -0.461 OA
BRANCH  22  23
ATOM     23  C   UNL     1      11.490  -4.950  -1.186  0.00  0.00    +0.339 C 
ATOM     24  C   UNL     1      12.861  -5.449  -1.649  0.00  0.00    +0.214 C 
ATOM     25  C   UNL     1      13.849  -4.278  -1.649  0.00  0.00    +0.180 C 
ATOM     26  C   UNL     1      13.896  -3.664  -0.247  0.00  0.00    +0.177 C 
ATOM     27  C   UNL     1      12.485  -3.234   0.162  0.00  0.00    +0.179 C 
ATOM     28  O   UNL     1      11.611  -4.364   0.111  0.00  0.00    -0.331 OA
BRANCH  26  29
ATOM     29  O   UNL     1      14.389  -4.633   0.682  0.00  0.00    -0.386 OA
ATOM     30  H   UNL     1      15.279  -4.953   0.481  0.00  0.00    +0.210 HD
ENDBRANCH  26  29
BRANCH  25  31
ATOM     31  O   UNL     1      15.149  -4.749  -2.011  0.00  0.00    -0.386 OA
ATOM     32  H   UNL     1      15.190  -5.156  -2.887  0.00  0.00    +0.210 HD
ENDBRANCH  25  31
BRANCH  24  33
ATOM     33  O   UNL     1      13.325  -6.466  -0.758  0.00  0.00    -0.383 OA
ATOM     34  H   UNL     1      12.744  -7.237  -0.705  0.00  0.00    +0.210 HD
ENDBRANCH  24  33
BRANCH  27  35
ATOM     35  C   UNL     1      12.514  -2.675   1.586  0.00  0.00    +0.190 C 
BRANCH  35  36
ATOM     36  O   UNL     1      11.222  -2.167   1.924  0.00  0.00    -0.392 OA
ATOM     37  H   UNL     1      11.167  -1.795   2.815  0.00  0.00    +0.210 HD
ENDBRANCH  35  36
ENDBRANCH  27  35
ENDBRANCH  22  23
ENDBRANCH   4  22
TORSDOF 11
