REMARK  Name = ZINC64044489
REMARK  10 active torsions:
REMARK  status: ('A' for Active; 'I' for Inactive)
REMARK    1  A    between atoms: C_1  and  O_2
REMARK    2  A    between atoms: O_2  and  C_3
REMARK    3  A    between atoms: C_10  and  C_18
REMARK    4  A    between atoms: C_20  and  O_38
REMARK    5  A    between atoms: C_22  and  O_37
REMARK    6  A    between atoms: N_24  and  C_27
REMARK    7  A    between atoms: C_29  and  O_35
REMARK    8  A    between atoms: C_32  and  O_33
REMARK    9  A    between atoms: O_33  and  C_34
REMARK   10  A    between atoms: O_35  and  C_36
REMARK                            x       y       z     vdW  Elec       q    Type
REMARK                         _______ _______ _______ _____ _____    ______ ____
ROOT
ATOM      1  C   UNL     1      -6.377  -5.156   0.929  0.00  0.00    +0.179 C 
ATOM      2  C   UNL     1      -7.111  -3.853   1.060  0.00  0.00    +0.200 C 
ATOM      3  N   UNL     1      -7.710  -3.499   2.130  0.00  0.00    -0.204 NA
ATOM      4  C   UNL     1      -7.755  -4.298   3.343  0.00  0.00    +0.339 C 
ATOM      5  N   UNL     1      -7.474  -5.703   3.086  0.00  0.00    -0.222 N 
ATOM      6  C   UNL     1      -6.833  -6.117   1.989  0.00  0.00    +0.237 C 
ATOM      7  O   UNL     1      -6.616  -7.302   1.848  0.00  0.00    -0.274 OA
ENDROOT
BRANCH   1  14
ATOM      8  C   UNL     1      -0.049  -6.750  -1.409  0.00  0.00    +0.121 A 
ATOM      9  C   UNL     1      -0.931  -7.103  -2.446  0.00  0.00    +0.047 A 
ATOM     10  C   UNL     1      -2.272  -7.081  -2.296  0.00  0.00    +0.029 A 
ATOM     11  C   UNL     1      -2.857  -6.677  -1.014  0.00  0.00    +0.043 A 
ATOM     12  N   UNL     1      -4.104  -6.551  -0.621  0.00  0.00    -0.376 N 
ATOM     13  C   UNL     1      -4.107  -6.202   0.796  0.00  0.00    +0.124 C 
ATOM     14  C   UNL     1      -4.875  -4.908   1.083  0.00  0.00    +0.101 C 
ATOM     15  N   UNL     1      -4.579  -4.490   2.462  0.00  0.00    -0.310 NA
ATOM     16  C   UNL     1      -3.184  -4.085   2.656  0.00  0.00    +0.085 C 
ATOM     17  C   UNL     1      -2.250  -5.292   2.454  0.00  0.00    +0.048 C 
ATOM     18  C   UNL     1      -2.651  -5.946   1.151  0.00  0.00    -0.036 C 
ATOM     19  C   UNL     1      -1.928  -6.294   0.080  0.00  0.00    +0.003 A 
ATOM     20  C   UNL     1      -0.486  -6.364  -0.188  0.00  0.00    +0.055 A 
ATOM     21  H   UNL     1      -5.212  -3.764   2.763  0.00  0.00    +0.122 HD
ATOM     22  H   UNL     1      -4.889  -6.669  -1.178  0.00  0.00    +0.160 HD
BRANCH   8  24
ATOM     23  C   UNL     1       1.707  -7.216  -2.943  0.00  0.00    +0.277 C 
ATOM     24  O   UNL     1       1.289  -6.803  -1.640  0.00  0.00    -0.495 OA
ENDBRANCH   8  24
ENDBRANCH   1  14
BRANCH   5  25
ATOM     25  C   UNL     1      -7.889  -6.656   4.026  0.00  0.00    +0.086 A 
ATOM     26  C   UNL     1      -9.143  -7.238   3.917  0.00  0.00    +0.073 A 
ATOM     27  C   UNL     1      -9.551  -8.181   4.848  0.00  0.00    +0.122 A 
ATOM     28  C   UNL     1      -8.706  -8.541   5.888  0.00  0.00    +0.049 A 
ATOM     29  C   UNL     1      -7.455  -7.962   5.998  0.00  0.00    +0.051 A 
ATOM     30  C   UNL     1      -7.041  -7.024   5.067  0.00  0.00    +0.142 A 
BRANCH  30  31
ATOM     31  O   UNL     1      -5.808  -6.458   5.173  0.00  0.00    -0.493 OA
ATOM     32  C   UNL     1      -4.991  -6.883   6.266  0.00  0.00    +0.277 C 
ENDBRANCH  30  31
BRANCH  27  33
ATOM     33  O   UNL     1     -10.780  -8.752   4.742  0.00  0.00    -0.495 OA
ATOM     34  C   UNL     1     -11.135  -9.716   5.736  0.00  0.00    +0.277 C 
ENDBRANCH  27  33
ENDBRANCH   5  25
BRANCH   4  35
ATOM     35  O   UNL     1      -6.788  -3.795   4.267  0.00  0.00    -0.356 OA
ATOM     36  H   UNL     1      -6.931  -2.873   4.522  0.00  0.00    +0.214 HD
ENDBRANCH   4  35
BRANCH   2  37
ATOM     37  O   UNL     1      -7.138  -3.019  -0.000  0.00  0.00    -0.495 OA
ATOM     38  H   UNL     1      -7.628  -2.200   0.156  0.00  0.00    +0.293 HD
ENDBRANCH   2  37
TORSDOF 7
