REMARK  Name = ZINC39560095
REMARK  10 active torsions:
REMARK  status: ('A' for Active; 'I' for Inactive)
REMARK    1  A    between atoms: C_1  and  O_2
REMARK    2  A    between atoms: O_2  and  C_3
REMARK    3  A    between atoms: C_17  and  O_31
REMARK    4  A    between atoms: C_19  and  C_29
REMARK    5  A    between atoms: O_31  and  C_32
REMARK    6  A    between atoms: C_34  and  O_47
REMARK    7  A    between atoms: C_36  and  O_46
REMARK    8  A    between atoms: C_38  and  O_45
REMARK    9  A    between atoms: C_40  and  C_43
REMARK   10  A    between atoms: C_43  and  O_44
REMARK                            x       y       z     vdW  Elec       q    Type
REMARK                         _______ _______ _______ _____ _____    ______ ____
ROOT
ATOM      1  C   UNL     1      -1.201  -0.638   0.010  0.00  0.00    +0.121 A 
ATOM      2  C   UNL     1      -2.364   0.122   0.019  0.00  0.00    +0.048 A 
ATOM      3  C   UNL     1      -3.622  -0.457   0.029  0.00  0.00    +0.030 A 
ATOM      4  C   UNL     1      -3.675  -1.847   0.027  0.00  0.00    +0.057 A 
ATOM      5  C   UNL     1      -2.496  -2.624   0.017  0.00  0.00    +0.007 A 
ATOM      6  C   UNL     1      -1.232  -2.026   0.003  0.00  0.00    +0.056 A 
ATOM      7  C   UNL     1      -2.929  -4.006   0.016  0.00  0.00    -0.016 A 
ATOM      8  C   UNL     1      -4.285  -3.999   0.021  0.00  0.00    +0.048 A 
ATOM      9  N   UNL     1      -4.760  -2.713   0.037  0.00  0.00    -0.278 N 
ATOM     10  C   UNL     1      -6.014  -2.271   0.070  0.00  0.00    +0.262 C 
ATOM     11  O   UNL     1      -6.100  -1.062   0.182  0.00  0.00    -0.267 OA
ATOM     12  C   UNL     1      -7.249  -2.914   0.003  0.00  0.00    +0.056 C 
ATOM     13  C   UNL     1      -8.346  -2.119  -0.042  0.00  0.00    +0.199 C 
ATOM     14  O   UNL     1      -9.597  -2.566  -0.122  0.00  0.00    -0.470 OA
ATOM     15  C   UNL     1      -9.856  -3.952  -0.313  0.00  0.00    +0.316 C 
ATOM     16  C   UNL     1      -8.824  -4.772   0.466  0.00  0.00    +0.088 C 
ATOM     17  C   UNL     1      -7.423  -4.397  -0.032  0.00  0.00    +0.042 C 
ATOM     18  C   UNL     1      -6.380  -5.160   0.734  0.00  0.00    +0.034 C 
ATOM     19  C   UNL     1      -5.062  -5.284   0.026  0.00  0.00    +0.102 C 
ATOM     20  N   UNL     1      -4.222  -6.327   0.635  0.00  0.00    -0.308 NA
ATOM     21  C   UNL     1      -2.965  -6.495  -0.098  0.00  0.00    +0.086 C 
ATOM     22  C   UNL     1      -2.087  -5.252   0.007  0.00  0.00    +0.052 C 
ATOM     23  H   UNL     1      -4.049  -6.130   1.609  0.00  0.00    +0.123 HD
ENDROOT
BRANCH   1  25
ATOM     24  C   UNL     1      -0.017   1.425   0.010  0.00  0.00    +0.277 C 
ATOM     25  O   UNL     1       0.002  -0.004   0.002  0.00  0.00    -0.495 OA
ENDBRANCH   1  25
BRANCH  16  26
ATOM     26  C   UNL     1      -9.069  -6.241   0.236  0.00  0.00    -0.025 C 
ATOM     27  C   UNL     1      -9.339  -7.026   1.250  0.00  0.00    +0.004 C 
ENDBRANCH  16  26
BRANCH  15  28
ATOM     28  O   UNL     1      -9.765  -4.266  -1.704  0.00  0.00    -0.309 OA
BRANCH  28  29
ATOM     29  C   UNL     1     -10.761  -3.634  -2.510  0.00  0.00    +0.286 C 
ATOM     30  C   UNL     1     -10.729  -4.227  -3.921  0.00  0.00    +0.201 C 
ATOM     31  C   UNL     1     -11.758  -3.503  -4.794  0.00  0.00    +0.179 C 
ATOM     32  C   UNL     1     -11.453  -2.002  -4.786  0.00  0.00    +0.177 C 
ATOM     33  C   UNL     1     -11.458  -1.496  -3.341  0.00  0.00    +0.178 C 
ATOM     34  O   UNL     1     -10.501  -2.231  -2.577  0.00  0.00    -0.340 OA
BRANCH  32  35
ATOM     35  O   UNL     1     -10.169  -1.773  -5.369  0.00  0.00    -0.386 OA
ATOM     36  H   UNL     1     -10.093  -2.074  -6.285  0.00  0.00    +0.210 HD
ENDBRANCH  32  35
BRANCH  31  37
ATOM     37  O   UNL     1     -11.685  -4.000  -6.132  0.00  0.00    -0.386 OA
ATOM     38  H   UNL     1     -11.861  -4.948  -6.209  0.00  0.00    +0.210 HD
ENDBRANCH  31  37
BRANCH  30  39
ATOM     39  O   UNL     1      -9.424  -4.058  -4.479  0.00  0.00    -0.384 OA
ATOM     40  H   UNL     1      -8.721  -4.488  -3.973  0.00  0.00    +0.210 HD
ENDBRANCH  30  39
BRANCH  33  41
ATOM     41  C   UNL     1     -11.095  -0.009  -3.320  0.00  0.00    +0.190 C 
BRANCH  41  42
ATOM     42  O   UNL     1     -11.213   0.491  -1.987  0.00  0.00    -0.392 OA
ATOM     43  H   UNL     1     -10.997   1.429  -1.899  0.00  0.00    +0.210 HD
ENDBRANCH  41  42
ENDBRANCH  33  41
ENDBRANCH  28  29
ENDBRANCH  15  28
TORSDOF 9
