REMARK  Name = ZINC13899140
REMARK  5 active torsions:
REMARK  status: ('A' for Active; 'I' for Inactive)
REMARK    1  A    between atoms: C_8  and  C_16
REMARK    2  A    between atoms: N_10  and  N_11
REMARK    3  A    between atoms: N_11  and  C_12
REMARK    4  A    between atoms: C_12  and  N_14
REMARK    5  A    between atoms: C_18  and  C_21
REMARK                            x       y       z     vdW  Elec       q    Type
REMARK                         _______ _______ _______ _____ _____    ______ ____
ROOT
ATOM      1  C   UNL     1       4.539  -7.168  -0.354  0.00  0.00    +0.001 A 
ATOM      2  C   UNL     1       5.759  -6.565  -0.094  0.00  0.00    +0.004 A 
ATOM      3  C   UNL     1       5.830  -5.213   0.185  0.00  0.00    +0.047 A 
ATOM      4  C   UNL     1       4.675  -4.449   0.205  0.00  0.00    +0.138 A 
ATOM      5  C   UNL     1       3.436  -5.056  -0.060  0.00  0.00    +0.018 A 
ATOM      6  C   UNL     1       3.378  -6.425  -0.339  0.00  0.00    +0.011 A 
ATOM      7  C   UNL     1       2.214  -4.242  -0.038  0.00  0.00    +0.027 A 
ATOM      8  C   UNL     1       2.361  -2.876  -0.037  0.00  0.00    +0.071 A 
ATOM      9  C   UNL     1       3.741  -2.343  -0.047  0.00  0.00    +0.245 A 
ATOM     10  N   UNL     1       4.004  -1.165  -0.544  0.00  0.00    -0.142 NA
ATOM     11  O   UNL     1       4.730  -3.120   0.479  0.00  0.00    -0.436 OA
ENDROOT
BRANCH   8  12
ATOM     12  C   UNL     1       1.190  -1.978  -0.021  0.00  0.00    +0.114 A 
ATOM     13  N   UNL     1       1.150  -0.654  -0.018  0.00  0.00    -0.239 NA
ATOM     14  C   UNL     1       0.002  -0.004   0.002  0.00  0.00    +0.079 A 
ATOM     15  C   UNL     1      -1.172  -0.712   0.009  0.00  0.00    +0.075 A 
ATOM     16  S   UNL     1      -0.549  -2.388  -0.006  0.00  0.00    -0.075 S 
BRANCH  14  17
ATOM     17  C   UNL     1      -0.018   1.479   0.010  0.00  0.00    +0.001 A 
ATOM     18  C   UNL     1      -1.233   2.162   0.020  0.00  0.00    +0.011 A 
ATOM     19  C   UNL     1      -1.246   3.542   0.032  0.00  0.00    +0.016 A 
ATOM     20  C   UNL     1      -0.056   4.248   0.024  0.00  0.00    +0.018 A 
ATOM     21  C   UNL     1       1.154   3.575   0.010  0.00  0.00    +0.016 A 
ATOM     22  C   UNL     1       1.178   2.195   0.003  0.00  0.00    +0.011 A 
ATOM     23 BR   UNL     1      -0.081   6.139   0.034  0.00  0.00    -0.050 Br
ENDBRANCH  14  17
ENDBRANCH   8  12
BRANCH  10  24
ATOM     24  N   UNL     1       5.319  -0.681  -0.542  0.00  0.00    -0.215 N 
ATOM     25  H   UNL     1       6.034  -1.222  -0.172  0.00  0.00    +0.176 HD
BRANCH  24  26
ATOM     26  C   UNL     1       5.590   0.535  -1.055  0.00  0.00    +0.147 C 
ATOM     27  S   UNL     1       7.197   1.126  -1.053  0.00  0.00    -0.017 S 
BRANCH  26  28
ATOM     28  N   UNL     1       4.597   1.286  -1.570  0.00  0.00    -0.339 N 
ATOM     29  H   UNL     1       3.686   0.951  -1.571  0.00  0.00    +0.144 HD
ATOM     30  H   UNL     1       4.792   2.162  -1.939  0.00  0.00    +0.144 HD
ENDBRANCH  26  28
ENDBRANCH  24  26
ENDBRANCH  10  24
TORSDOF 5
