REMARK  Name = ZINC59403278
REMARK  9 active torsions:
REMARK  status: ('A' for Active; 'I' for Inactive)
REMARK    1  A    between atoms: C_1  and  C_2
REMARK    2  A    between atoms: C_5  and  C_7
REMARK    3  A    between atoms: C_10  and  C_12
REMARK    4  A    between atoms: C_12  and  N_13
REMARK    5  A    between atoms: N_13  and  C_14
REMARK    6  A    between atoms: N_13  and  C_30
REMARK    7  A    between atoms: C_14  and  C_15
REMARK    8  A    between atoms: N_17  and  C_18
REMARK    9  A    between atoms: C_19  and  C_27
REMARK                            x       y       z     vdW  Elec       q    Type
REMARK                         _______ _______ _______ _____ _____    ______ ____
ROOT
ATOM      1  C   UNL     1       5.496   3.971   5.220  0.00  0.00    +0.201 C 
ATOM      2  O   UNL     1       4.500   3.634   5.824  0.00  0.00    -0.278 OA
ATOM      3  N   UNL     1       6.197   5.049   5.623  0.00  0.00    -0.281 N 
ATOM      4  H   UNL     1       6.994   5.318   5.140  0.00  0.00    +0.155 HD
ENDROOT
BRANCH   3   5
ATOM      5  C   UNL     1       5.779   5.774   6.730  0.00  0.00    +0.084 A 
ATOM      6  C   UNL     1       6.366   6.902   7.280  0.00  0.00    +0.068 A 
ATOM      7  C   UNL     1       5.728   7.478   8.451  0.00  0.00    -0.023 A 
ATOM      8  C   UNL     1       4.620   6.821   8.856  0.00  0.00    -0.004 A 
ATOM      9  S   UNL     1       4.442   5.489   7.705  0.00  0.00    -0.077 S 
ATOM     10  C   UNL     1       3.747   7.163  10.023  0.00  0.00    +0.043 C 
ATOM     11  C   UNL     1       4.506   8.153  10.920  0.00  0.00    +0.005 C 
ATOM     12  C   UNL     1       5.089   9.267  10.045  0.00  0.00    +0.005 C 
ATOM     13  C   UNL     1       6.227   8.713   9.186  0.00  0.00    +0.037 C 
BRANCH   6  14
ATOM     14  C   UNL     1       7.580   7.489   6.706  0.00  0.00    +0.244 C 
ATOM     15  O   UNL     1       7.494   8.344   5.844  0.00  0.00    -0.270 OA
ATOM     16  N   UNL     1       8.793   7.082   7.132  0.00  0.00    -0.325 N 
ATOM     17  H   UNL     1       8.861   6.400   7.819  0.00  0.00    +0.145 HD
ATOM     18  H   UNL     1       9.596   7.470   6.752  0.00  0.00    +0.145 HD
ENDBRANCH   6  14
ENDBRANCH   3   5
BRANCH   1  19
ATOM     19  C   UNL     1       5.950   3.184   4.018  0.00  0.00    +0.020 C 
BRANCH  19  20
ATOM     20  N   UNL     1       4.949   2.157   3.699  0.00  0.00    +0.392 N 
ATOM     21  H   UNL     1       4.761   1.604   4.521  0.00  0.00    -0.080 HD
BRANCH  20  22
ATOM     22  C   UNL     1       5.463   1.288   2.632  0.00  0.00    -0.067 C 
ATOM     23  C   UNL     1       5.308  -0.223   2.816  0.00  0.00    -0.017 C 
ATOM     24  C   UNL     1       6.687   0.427   2.949  0.00  0.00    -0.017 C 
ENDBRANCH  20  22
BRANCH  20  25
ATOM     25  C   UNL     1       3.709   2.804   3.249  0.00  0.00    -0.002 C 
BRANCH  25  29
ATOM     26  C   UNL     1       1.385   0.246   2.073  0.00  0.00    +0.108 A 
ATOM     27  C   UNL     1       0.960   0.352   3.345  0.00  0.00    +0.045 A 
ATOM     28  C   UNL     1       1.772   1.327   3.968  0.00  0.00    +0.043 A 
ATOM     29  C   UNL     1       2.644   1.759   3.039  0.00  0.00    +0.089 A 
ATOM     30  O   UNL     1       2.409   1.096   1.895  0.00  0.00    -0.466 OA
BRANCH  26  34
ATOM     31  C   UNL     1       0.296   1.488  -0.350  0.00  0.00    +0.008 C 
ATOM     32  C   UNL     1       0.242  -0.037  -0.242  0.00  0.00    -0.003 C 
ATOM     33  C   UNL     1       1.569  -0.797  -0.299  0.00  0.00    +0.015 C 
ATOM     34  C   UNL     1       0.812  -0.675   1.026  0.00  0.00    +0.058 C 
ENDBRANCH  26  34
ENDBRANCH  25  29
ENDBRANCH  20  25
ENDBRANCH  19  20
ENDBRANCH   1  19
TORSDOF 8
