REMARK  Name = ZINC20385145
REMARK  6 active torsions:
REMARK  status: ('A' for Active; 'I' for Inactive)
REMARK    1  A    between atoms: C_12  and  C_17
REMARK    2  A    between atoms: N_19  and  C_20
REMARK    3  A    between atoms: C_20  and  C_21
REMARK    4  A    between atoms: C_21  and  C_22
REMARK    5  A    between atoms: C_25  and  S_28
REMARK    6  A    between atoms: S_28  and  N_31
REMARK                            x       y       z     vdW  Elec       q    Type
REMARK                         _______ _______ _______ _____ _____    ______ ____
ROOT
ATOM      1  C   UNL     1      -3.725   2.032   0.061  0.00  0.00    +0.244 C 
ATOM      2  O   UNL     1      -3.753   3.248   0.066  0.00  0.00    -0.270 OA
ATOM      3  N   UNL     1      -4.877   1.332   0.073  0.00  0.00    -0.311 N 
ATOM      4  H   UNL     1      -4.851   0.232   0.069  0.00  0.00    +0.149 HD
ENDROOT
BRANCH   1  16
ATOM      5  C   UNL     1       3.486   0.500  -3.882  0.00  0.00    +0.001 A 
ATOM      6  C   UNL     1       3.209  -0.843  -3.681  0.00  0.00    +0.001 A 
ATOM      7  C   UNL     1       2.614  -1.260  -2.507  0.00  0.00    +0.016 A 
ATOM      8  C   UNL     1       2.291  -0.334  -1.524  0.00  0.00    +0.025 A 
ATOM      9  C   UNL     1       2.566   1.026  -1.720  0.00  0.00    +0.051 A 
ATOM     10  C   UNL     1       3.171   1.430  -2.918  0.00  0.00    +0.014 A 
ATOM     11  C   UNL     1       2.233   2.031  -0.711  0.00  0.00    +0.249 C 
ATOM     12  O   UNL     1       3.087   2.873  -0.509  0.00  0.00    -0.270 OA
ATOM     13  N   UNL     1       1.145   2.149   0.003  0.00  0.00    -0.280 N 
ATOM     14  C   UNL     1      -0.017   1.389   0.010  0.00  0.00    +0.048 A 
ATOM     15  C   UNL     1      -1.238   2.049   0.031  0.00  0.00    +0.037 A 
ATOM     16  C   UNL     1      -2.431   1.324   0.041  0.00  0.00    +0.039 A 
ATOM     17  C   UNL     1      -2.399  -0.073   0.035  0.00  0.00    +0.014 A 
ATOM     18  C   UNL     1      -1.187  -0.727   0.016  0.00  0.00    +0.017 A 
ATOM     19  C   UNL     1       0.002  -0.004   0.002  0.00  0.00    +0.034 A 
ATOM     20  S   UNL     1       1.536  -0.871  -0.026  0.00  0.00    -0.087 S 
ATOM     21  H   UNL     1       1.058   2.958   0.743  0.00  0.00    +0.155 HD
ENDBRANCH   1  16
BRANCH   3  22
ATOM     22  C   UNL     1      -6.162   2.035   0.093  0.00  0.00    +0.109 C 
BRANCH  22  23
ATOM     23  C   UNL     1      -7.301   1.014   0.105  0.00  0.00    +0.054 C 
BRANCH  23  24
ATOM     24  C   UNL     1      -8.623   1.738   0.125  0.00  0.00    -0.046 A 
ATOM     25  C   UNL     1      -9.216   2.060   1.331  0.00  0.00    +0.005 A 
ATOM     26  C   UNL     1     -10.427   2.727   1.350  0.00  0.00    +0.029 A 
ATOM     27  C   UNL     1     -11.048   3.064   0.163  0.00  0.00    +0.105 A 
ATOM     28  C   UNL     1     -10.458   2.737  -1.044  0.00  0.00    +0.029 A 
ATOM     29  C   UNL     1      -9.245   2.074  -1.063  0.00  0.00    +0.005 A 
BRANCH  27  30
ATOM     30  S   UNL     1     -12.593   3.911   0.186  0.00  0.00    +0.056 S 
ATOM     31  O   UNL     1     -12.668   4.584   1.436  0.00  0.00    -0.153 OA
ATOM     32  O   UNL     1     -12.701   4.595  -1.055  0.00  0.00    -0.153 OA
BRANCH  30  33
ATOM     33  N   UNL     1     -13.783   2.759   0.197  0.00  0.00    -0.204 NA
ATOM     34  H   UNL     1     -14.768   3.249   0.212  0.00  0.00    +0.144 HD
ATOM     35  H   UNL     1     -13.674   2.128   1.091  0.00  0.00    +0.144 HD
ENDBRANCH  30  33
ENDBRANCH  27  30
ENDBRANCH  23  24
ENDBRANCH  22  23
ENDBRANCH   3  22
TORSDOF 6
