REMARK  Name = ZINC09705756
REMARK  14 active torsions:
REMARK  status: ('A' for Active; 'I' for Inactive)
REMARK    1  A    between atoms: C_1  and  C_2
REMARK    2  A    between atoms: C_2  and  N_66
REMARK    3  A    between atoms: C_3  and  C_4
REMARK    4  A    between atoms: C_3  and  N_66
REMARK    5  A    between atoms: C_5  and  C_6
REMARK    6  A    between atoms: C_5  and  N_66
REMARK    7  A    between atoms: C_6  and  C_7
REMARK    8  A    between atoms: C_7  and  C_8
REMARK    9  A    between atoms: C_8  and  C_10
REMARK   10  A    between atoms: C_8  and  N_11
REMARK   11  A    between atoms: C_12  and  C_14
REMARK   12  A    between atoms: N_16  and  C_17
REMARK   13  A    between atoms: C_25  and  C_26
REMARK   14  A    between atoms: N_28  and  C_29
REMARK                            x       y       z     vdW  Elec       q    Type
REMARK                         _______ _______ _______ _____ _____    ______ ____
ROOT
ATOM      1  C   UNL     1       3.502  -5.002   0.114  0.00  0.00    +0.093 A 
ATOM      2  C   UNL     1       2.450  -4.558   1.036  0.00  0.00    +0.042 A 
ATOM      3  C   UNL     1       2.392  -3.609   2.058  0.00  0.00    +0.013 A 
ATOM      4  C   UNL     1       1.228  -3.429   2.751  0.00  0.00    +0.001 A 
ATOM      5  C   UNL     1       0.104  -4.184   2.444  0.00  0.00    +0.004 A 
ATOM      6  C   UNL     1       0.141  -5.125   1.439  0.00  0.00    +0.047 A 
ATOM      7  C   UNL     1       1.315  -5.325   0.721  0.00  0.00    +0.138 A 
ATOM      8  O   UNL     1       1.643  -6.148  -0.295  0.00  0.00    -0.448 OA
ATOM      9  C   UNL     1       2.932  -5.975  -0.662  0.00  0.00    +0.212 A 
ENDROOT
BRANCH   1  12
ATOM     10  C   UNL     1       5.069  -3.233   0.285  0.00  0.00    +0.303 C 
ATOM     11  O   UNL     1       4.181  -2.494   0.659  0.00  0.00    -0.265 OA
ATOM     12  N   UNL     1       4.806  -4.533   0.044  0.00  0.00    -0.274 N 
ATOM     13  H   UNL     1       5.529  -5.141  -0.179  0.00  0.00    +0.155 HD
BRANCH  10  15
ATOM     14  N   UNL     1       6.713  -1.403   0.334  0.00  0.00    -0.305 N 
ATOM     15  C   UNL     1       6.451  -2.702   0.092  0.00  0.00    +0.300 C 
ATOM     16  O   UNL     1       7.338  -3.441  -0.281  0.00  0.00    -0.265 OA
ATOM     17  H   UNL     1       6.004  -0.812   0.632  0.00  0.00    +0.149 HD
BRANCH  14  18
ATOM     18  C   UNL     1       8.070  -0.882   0.145  0.00  0.00    +0.070 C 
ATOM     19  C   UNL     1       8.269  -0.498  -1.323  0.00  0.00    +0.028 C 
BRANCH  18  20
ATOM     20  C   UNL     1       8.269   0.353   1.026  0.00  0.00    +0.020 C 
BRANCH  20  21
ATOM     21  C   UNL     1       8.194  -0.054   2.499  0.00  0.00    -0.017 C 
BRANCH  21  22
ATOM     22  C   UNL     1       8.393   1.180   3.380  0.00  0.00    -0.079 C 
BRANCH  22  23
ATOM     23  N   UNL     1       8.416   0.753   4.795  0.00  0.00    +0.379 N 
ATOM     24  H   UNL     1       7.681   0.052   4.944  0.00  0.00    -0.082 HD
BRANCH  23  26
ATOM     25  C   UNL     1       9.647  -0.480   6.512  0.00  0.00    -0.017 C 
ATOM     26  C   UNL     1       9.726   0.151   5.120  0.00  0.00    -0.082 C 
ENDBRANCH  23  26
BRANCH  23  27
ATOM     27  C   UNL     1       8.159   1.912   5.676  0.00  0.00    -0.082 C 
ATOM     28  C   UNL     1       6.662   2.223   5.654  0.00  0.00    -0.017 C 
ENDBRANCH  23  27
ENDBRANCH  22  23
ENDBRANCH  21  22
ENDBRANCH  20  21
ENDBRANCH  18  20
ENDBRANCH  14  18
ENDBRANCH  10  15
ENDBRANCH   1  12
BRANCH   9  29
ATOM     29  C   UNL     1       3.612  -6.709  -1.728  0.00  0.00    +0.285 C 
ATOM     30  O   UNL     1       4.801  -6.538  -1.923  0.00  0.00    -0.266 OA
ATOM     31  N   UNL     1       2.921  -7.575  -2.496  0.00  0.00    -0.279 N 
ATOM     32  H   UNL     1       1.961  -7.660  -2.388  0.00  0.00    +0.155 HD
BRANCH  31  33
ATOM     33  C   UNL     1       3.590  -8.352  -3.449  0.00  0.00    +0.034 A 
ATOM     34  C   UNL     1       3.168  -9.650  -3.707  0.00  0.00    +0.026 A 
ATOM     35  C   UNL     1       3.830 -10.416  -4.647  0.00  0.00    +0.040 A 
ATOM     36  C   UNL     1       4.912  -9.890  -5.332  0.00  0.00    +0.124 A 
ATOM     37  C   UNL     1       5.334  -8.596  -5.076  0.00  0.00    +0.040 A 
ATOM     38  C   UNL     1       4.676  -7.827  -4.136  0.00  0.00    +0.026 A 
ATOM     39  F   UNL     1       5.558 -10.640  -6.252  0.00  0.00    -0.205 F 
ENDBRANCH  31  33
ENDBRANCH   9  29
TORSDOF 11
