REMARK  Name = ZINC42585156
REMARK  5 active torsions:
REMARK  status: ('A' for Active; 'I' for Inactive)
REMARK    1  A    between atoms: C_1  and  C_2
REMARK    2  A    between atoms: C_2  and  C_4
REMARK    3  A    between atoms: C_2  and  N_10
REMARK    4  A    between atoms: N_10  and  S_11
REMARK    5  A    between atoms: S_11  and  C_14
REMARK                            x       y       z     vdW  Elec       q    Type
REMARK                         _______ _______ _______ _____ _____    ______ ____
ROOT
ATOM      1  S   UNL     1       2.271  -0.968   1.062  0.00  0.00    +0.064 S 
ATOM      2  O   UNL     1       2.730  -1.542   2.278  0.00  0.00    -0.153 OA
ATOM      3  O   UNL     1       2.249  -1.690  -0.161  0.00  0.00    -0.153 OA
ENDROOT
BRANCH   1   4
ATOM      4  C   UNL     1       3.253   0.468   0.782  0.00  0.00    +0.164 A 
ATOM      5  C   UNL     1       3.889   0.785  -0.369  0.00  0.00    +0.135 A 
ATOM      6  N   UNL     1       4.530   1.958  -0.178  0.00  0.00    -0.281 N 
ATOM      7  H   UNL     1       5.068   2.426  -0.835  0.00  0.00    +0.188 HD
ATOM      8  N   UNL     1       4.282   2.379   1.135  0.00  0.00    -0.157 NA
ATOM      9  C   UNL     1       3.510   1.489   1.711  0.00  0.00    +0.164 A 
ATOM     10  N   UNL     1       3.029   1.545   3.025  0.00  0.00    -0.340 N 
ATOM     11  H   UNL     1       2.410   0.870   3.344  0.00  0.00    +0.144 HD
ATOM     12  H   UNL     1       3.314   2.259   3.616  0.00  0.00    +0.144 HD
ENDBRANCH   1   4
BRANCH   1  13
ATOM     13  N   UNL     1       0.721  -0.454   1.337  0.00  0.00    -0.182 NA
ATOM     14  H   UNL     1       0.303  -0.612   2.198  0.00  0.00    +0.149 HD
BRANCH  13  16
ATOM     15  C   UNL     1      -0.520   1.585   0.805  0.00  0.00    +0.031 C 
ATOM     16  C   UNL     1      -0.020   0.238   0.279  0.00  0.00    +0.110 C 
BRANCH  16  17
ATOM     17  C   UNL     1      -1.196  -0.604  -0.144  0.00  0.00    +0.009 A 
ATOM     18  C   UNL     1      -1.683  -0.824  -1.389  0.00  0.00    +0.014 A 
ATOM     19  C   UNL     1      -2.787  -1.643  -1.543  0.00  0.00    +0.028 A 
ATOM     20  C   UNL     1      -3.348  -2.202  -0.442  0.00  0.00    +0.078 A 
ATOM     21  S   UNL     1      -2.303  -1.576   0.864  0.00  0.00    -0.080 S 
ATOM     22 CL   UNL     1      -4.722  -3.257  -0.331  0.00  0.00    -0.076 Cl
ENDBRANCH  16  17
ENDBRANCH  13  16
ENDBRANCH   1  13
TORSDOF 4
