REMARK  Name = ZINC33033062
REMARK  13 active torsions:
REMARK  status: ('A' for Active; 'I' for Inactive)
REMARK    1  A    between atoms: C_1  and  C_2
REMARK    2  A    between atoms: C_2  and  C_3
REMARK    3  A    between atoms: C_3  and  C_4
REMARK    4  A    between atoms: C_4  and  N_5
REMARK    5  A    between atoms: N_5  and  C_6
REMARK    6  A    between atoms: C_6  and  C_7
REMARK    7  A    between atoms: C_8  and  C_10
REMARK    8  A    between atoms: C_13  and  N_30
REMARK    9  A    between atoms: C_14  and  N_16
REMARK   10  A    between atoms: N_16  and  S_17
REMARK   11  A    between atoms: S_17  and  C_20
REMARK   12  A    between atoms: C_23  and  N_26
REMARK   13  A    between atoms: C_27  and  C_29
REMARK                            x       y       z     vdW  Elec       q    Type
REMARK                         _______ _______ _______ _____ _____    ______ ____
ROOT
ATOM      1  C   UNL     1       2.417   7.971   2.131  0.00  0.00    +0.039 A 
ATOM      2  C   UNL     1       2.306   7.970   3.524  0.00  0.00    +0.015 A 
ATOM      3  C   UNL     1       1.126   8.352   4.123  0.00  0.00    +0.026 A 
ATOM      4  C   UNL     1       0.042   8.739   3.344  0.00  0.00    +0.052 A 
ATOM      5  C   UNL     1       0.146   8.743   1.950  0.00  0.00    +0.070 A 
ATOM      6  C   UNL     1       1.326   8.355   1.346  0.00  0.00    +0.039 A 
ENDROOT
BRANCH   4   7
ATOM      7  N   UNL     1      -1.151   9.124   3.954  0.00  0.00    -0.332 N 
ATOM      8  C   UNL     1      -1.134   8.809   5.389  0.00  0.00    +0.086 C 
ATOM      9  C   UNL     1      -2.487   9.173   6.005  0.00  0.00    -0.063 C 
ATOM     10  N   UNL     1      -2.754  10.601   5.785  0.00  0.00    +0.381 N 
ATOM     11  C   UNL     1      -2.771  10.916   4.349  0.00  0.00    -0.063 C 
ATOM     12  C   UNL     1      -1.418  10.552   3.734  0.00  0.00    +0.086 C 
ATOM     13  H   UNL     1      -3.732  10.862   6.216  0.00  0.00    -0.086 HD
ATOM     14  H   UNL     1      -1.968  11.200   6.269  0.00  0.00    -0.086 HD
ENDBRANCH   4   7
BRANCH   1  16
ATOM     15  N   UNL     1       4.860   7.867   2.068  0.00  0.00    -0.298 N 
ATOM     16  C   UNL     1       3.681   7.561   1.490  0.00  0.00    +0.247 C 
ATOM     17  O   UNL     1       3.660   6.948   0.441  0.00  0.00    -0.270 OA
BRANCH  15  18
ATOM     18  C   UNL     1       4.886   8.485   3.396  0.00  0.00    +0.104 C 
ATOM     19  C   UNL     1       5.139   7.410   4.455  0.00  0.00    +0.024 C 
ENDBRANCH  15  18
BRANCH  15  20
ATOM     20  C   UNL     1       6.115   7.581   1.369  0.00  0.00    +0.108 C 
BRANCH  20  21
ATOM     21  C   UNL     1       6.510   8.789   0.517  0.00  0.00    +0.019 C 
BRANCH  21  23
ATOM     22  C   UNL     1       8.217   9.699  -1.065  0.00  0.00    +0.004 C 
ATOM     23  C   UNL     1       7.821   8.491  -0.213  0.00  0.00    -0.002 C 
ENDBRANCH  21  23
ENDBRANCH  20  21
ENDBRANCH  15  20
ENDBRANCH   1  16
BRANCH   5  24
ATOM     24  N   UNL     1      -0.948   9.133   1.167  0.00  0.00    -0.214 N 
ATOM     25  H   UNL     1      -1.118  10.198   0.953  0.00  0.00    +0.174 HD
BRANCH  24  26
ATOM     26  S   UNL     1      -1.984   7.991   0.564  0.00  0.00    +0.072 S 
ATOM     27  O   UNL     1      -1.178   6.995  -0.051  0.00  0.00    -0.150 OA
ATOM     28  O   UNL     1      -2.997   8.694  -0.142  0.00  0.00    -0.150 OA
BRANCH  26  29
ATOM     29  C   UNL     1      -2.771   7.223   1.941  0.00  0.00    +0.109 A 
ATOM     30  C   UNL     1      -3.954   7.739   2.436  0.00  0.00    +0.030 A 
ATOM     31  C   UNL     1      -4.573   7.139   3.515  0.00  0.00    +0.025 A 
ATOM     32  C   UNL     1      -4.006   6.016   4.103  0.00  0.00    +0.033 A 
ATOM     33  C   UNL     1      -2.815   5.503   3.607  0.00  0.00    +0.025 A 
ATOM     34  C   UNL     1      -2.204   6.104   2.524  0.00  0.00    +0.030 A 
BRANCH  32  35
ATOM     35  N   UNL     1      -4.631   5.406   5.196  0.00  0.00    -0.286 N 
ATOM     36  C   UNL     1      -5.976   5.363   5.266  0.00  0.00    +0.214 C 
ATOM     37  O   UNL     1      -6.645   5.931   4.429  0.00  0.00    -0.276 OA
ATOM     38  C   UNL     1      -6.649   4.615   6.388  0.00  0.00    +0.109 C 
ATOM     39  H   UNL     1      -4.024   4.961   5.998  0.00  0.00    +0.155 HD
ENDBRANCH  32  35
ENDBRANCH  26  29
ENDBRANCH  24  26
ENDBRANCH   5  24
TORSDOF 10
