REMARK  Name = ZINC20682522
REMARK  11 active torsions:
REMARK  status: ('A' for Active; 'I' for Inactive)
REMARK    1  A    between atoms: C_1  and  C_2
REMARK    2  A    between atoms: C_2  and  N_3
REMARK    3  A    between atoms: N_3  and  C_4
REMARK    4  A    between atoms: N_3  and  C_6
REMARK    5  A    between atoms: C_4  and  C_5
REMARK    6  A    between atoms: C_6  and  C_7
REMARK    7  A    between atoms: C_7  and  N_8
REMARK    8  A    between atoms: C_9  and  C_11
REMARK    9  A    between atoms: C_24  and  C_27
REMARK   10  A    between atoms: C_30  and  O_34
REMARK   11  A    between atoms: C_32  and  O_33
REMARK                            x       y       z     vdW  Elec       q    Type
REMARK                         _______ _______ _______ _____ _____    ______ ____
ROOT
ATOM      1  C   UNL     1       2.819   0.166  -0.879  0.00  0.00    +0.037 A 
ATOM      2  C   UNL     1       1.425   0.056  -0.888  0.00  0.00    +0.015 A 
ATOM      3  C   UNL     1       0.843  -1.189  -0.828  0.00  0.00    +0.024 A 
ATOM      4  C   UNL     1       1.635  -2.331  -0.749  0.00  0.00    +0.031 A 
ATOM      5  C   UNL     1       3.022  -2.233  -0.736  0.00  0.00    -0.019 A 
ATOM      6  C   UNL     1       3.608  -0.981  -0.800  0.00  0.00    +0.019 A 
ATOM      7  C   UNL     1       3.909  -3.435  -0.659  0.00  0.00    +0.049 C 
ATOM      8  C   UNL     1       4.514  -3.586   0.717  0.00  0.00    -0.023 C 
ATOM      9  C   UNL     1       4.601  -4.854   1.037  0.00  0.00    -0.030 C 
ATOM     10  C   UNL     1       4.070  -5.724  -0.086  0.00  0.00    +0.033 C 
ATOM     11  C   UNL     1       3.149  -4.757  -0.886  0.00  0.00    +0.029 C 
ATOM     12  C   UNL     1       1.799  -4.712  -0.165  0.00  0.00    +0.108 C 
ATOM     13  N   UNL     1       1.022  -3.580  -0.680  0.00  0.00    -0.336 N 
ATOM     14  H   UNL     1      -0.019  -3.728  -1.001  0.00  0.00    +0.147 HD
ENDROOT
BRANCH  12  15
ATOM     15  C   UNL     1       2.023  -4.538   1.315  0.00  0.00    +0.015 A 
ATOM     16  C   UNL     1       2.200  -3.274   1.843  0.00  0.00    +0.012 A 
ATOM     17  C   UNL     1       2.405  -3.111   3.199  0.00  0.00    +0.046 A 
ATOM     18  C   UNL     1       2.433  -4.219   4.036  0.00  0.00    +0.120 A 
ATOM     19  C   UNL     1       2.256  -5.488   3.509  0.00  0.00    +0.091 A 
ATOM     20  C   UNL     1       2.045  -5.648   2.147  0.00  0.00    +0.125 A 
BRANCH  20  21
ATOM     21  O   UNL     1       1.865  -6.891   1.629  0.00  0.00    -0.506 OA
ATOM     22  H   UNL     1       1.882  -7.771   2.289  0.00  0.00    +0.292 HD
ENDBRANCH  20  21
BRANCH  18  23
ATOM     23  O   UNL     1       2.635  -4.058   5.370  0.00  0.00    -0.507 OA
ATOM     24  H   UNL     1       2.658  -4.936   6.032  0.00  0.00    +0.292 HD
ENDBRANCH  18  23
ENDBRANCH  12  15
BRANCH   1  26
ATOM     25  N   UNL     1       2.691   2.604  -1.028  0.00  0.00    -0.313 N 
ATOM     26  C   UNL     1       3.454   1.496  -0.946  0.00  0.00    +0.244 C 
ATOM     27  O   UNL     1       4.666   1.592  -0.933  0.00  0.00    -0.270 OA
ATOM     28  H   UNL     1       1.595   2.517  -1.045  0.00  0.00    +0.149 HD
BRANCH  25  29
ATOM     29  C   UNL     1       3.322   3.924  -1.095  0.00  0.00    +0.086 C 
BRANCH  29  30
ATOM     30  C   UNL     1       2.240   5.003  -1.182  0.00  0.00    -0.060 C 
BRANCH  30  31
ATOM     31  N   UNL     1       2.873   6.327  -1.249  0.00  0.00    +0.380 N 
ATOM     32  H   UNL     1       3.616   6.305  -2.059  0.00  0.00    -0.082 HD
BRANCH  31  34
ATOM     33  C   UNL     1       1.351   7.142  -2.986  0.00  0.00    -0.017 C 
ATOM     34  C   UNL     1       1.885   7.366  -1.570  0.00  0.00    -0.082 C 
ENDBRANCH  31  34
BRANCH  31  35
ATOM     35  C   UNL     1       3.577   6.638   0.002  0.00  0.00    -0.082 C 
ATOM     36  C   UNL     1       4.525   7.817  -0.226  0.00  0.00    -0.017 C 
ENDBRANCH  31  35
ENDBRANCH  30  31
ENDBRANCH  29  30
ENDBRANCH  25  29
ENDBRANCH   1  26
TORSDOF 9
