REMARK  Name = ZINC12184705
REMARK  8 active torsions:
REMARK  status: ('A' for Active; 'I' for Inactive)
REMARK    1  A    between atoms: C_1  and  C_2
REMARK    2  A    between atoms: C_2  and  C_4
REMARK    3  A    between atoms: C_2  and  N_9
REMARK    4  A    between atoms: C_10  and  C_12
REMARK    5  A    between atoms: C_15  and  C_20
REMARK    6  A    between atoms: C_20  and  N_58
REMARK    7  A    between atoms: C_23  and  C_26
REMARK    8  A    between atoms: C_23  and  O_33
REMARK                            x       y       z     vdW  Elec       q    Type
REMARK                         _______ _______ _______ _____ _____    ______ ____
ROOT
ATOM      1  C   UNL     1      -1.805   5.174   0.716  0.00  0.00    +0.101 A 
ATOM      2  C   UNL     1      -2.863   5.864   0.129  0.00  0.00    +0.020 A 
ATOM      3  C   UNL     1      -2.910   7.253   0.243  0.00  0.00    +0.020 A 
ATOM      4  C   UNL     1      -1.935   7.914   0.917  0.00  0.00    +0.003 A 
ATOM      5  N   UNL     1      -0.903   7.250   1.491  0.00  0.00    -0.327 N 
ATOM      6  H   UNL     1      -0.221   7.748   1.967  0.00  0.00    +0.169 HD
ATOM      7  C   UNL     1      -0.814   5.909   1.416  0.00  0.00    +0.261 A 
ATOM      8  O   UNL     1       0.120   5.328   1.944  0.00  0.00    -0.267 OA
ENDROOT
BRANCH   1  10
ATOM      9  N   UNL     1      -0.759   3.043   1.288  0.00  0.00    -0.304 N 
ATOM     10  C   UNL     1      -1.720   3.708   0.618  0.00  0.00    +0.250 C 
ATOM     11  O   UNL     1      -2.518   3.098  -0.068  0.00  0.00    -0.270 OA
ATOM     12  H   UNL     1      -0.078   3.533   1.774  0.00  0.00    +0.150 HD
BRANCH   9  14
ATOM     13  C   UNL     1      -0.010   1.082   0.032  0.00  0.00    +0.033 C 
ATOM     14  C   UNL     1      -0.742   1.578   1.281  0.00  0.00    +0.107 C 
BRANCH  14  15
ATOM     15  C   UNL     1      -0.030   1.078   2.512  0.00  0.00    +0.010 A 
ATOM     16  C   UNL     1      -0.338   0.025   3.308  0.00  0.00    +0.013 A 
ATOM     17  C   UNL     1       0.468  -0.251   4.396  0.00  0.00    +0.008 A 
ATOM     18  C   UNL     1       1.543   0.539   4.635  0.00  0.00    +0.045 A 
ATOM     19  S   UNL     1       1.444   1.714   3.294  0.00  0.00    -0.100 S 
ENDBRANCH  14  15
ENDBRANCH   9  14
ENDBRANCH   1  10
BRANCH   4  20
ATOM     20  C   UNL     1      -2.002   9.416   1.029  0.00  0.00    -0.025 C 
BRANCH  20  26
ATOM     21  C   UNL     1      -3.493   9.343   2.935  0.00  0.00    -0.075 C 
ATOM     22  C   UNL     1      -3.592   9.624   4.436  0.00  0.00    +0.021 C 
ATOM     23  C   UNL     1      -3.422  11.125   4.682  0.00  0.00    +0.088 C 
ATOM     24  C   UNL     1      -2.075  11.579   4.110  0.00  0.00    +0.021 C 
ATOM     25  C   UNL     1      -2.020  11.242   2.619  0.00  0.00    -0.075 C 
ATOM     26  N   UNL     1      -2.166   9.780   2.452  0.00  0.00    +0.383 N 
ATOM     27  H   UNL     1      -1.439   9.308   3.003  0.00  0.00    -0.081 HD
BRANCH  23  28
ATOM     28  C   UNL     1      -3.459  11.402   6.163  0.00  0.00    -0.016 A 
ATOM     29  C   UNL     1      -2.291  11.374   6.901  0.00  0.00    +0.008 A 
ATOM     30  C   UNL     1      -2.324  11.633   8.258  0.00  0.00    +0.020 A 
ATOM     31  C   UNL     1      -3.528  11.910   8.880  0.00  0.00    +0.041 A 
ATOM     32  C   UNL     1      -4.698  11.932   8.142  0.00  0.00    +0.020 A 
ATOM     33  C   UNL     1      -4.663  11.679   6.784  0.00  0.00    +0.008 A 
ATOM     34 CL   UNL     1      -3.571  12.229  10.586  0.00  0.00    -0.084 Cl
ENDBRANCH  23  28
BRANCH  23  35
ATOM     35  O   UNL     1      -4.479  11.838   4.036  0.00  0.00    -0.384 OA
ATOM     36  H   UNL     1      -5.362  11.600   4.350  0.00  0.00    +0.211 HD
ENDBRANCH  23  35
ENDBRANCH  20  26
ENDBRANCH   4  20
TORSDOF 7
