REMARK  Name = ZINC07777528
REMARK  13 active torsions:
REMARK  status: ('A' for Active; 'I' for Inactive)
REMARK    1  A    between atoms: C_1  and  C_2
REMARK    2  A    between atoms: C_2  and  C_3
REMARK    3  A    between atoms: C_3  and  N_4
REMARK    4  A    between atoms: C_5  and  N_31
REMARK    5  A    between atoms: C_6  and  C_13
REMARK    6  A    between atoms: C_13  and  C_15
REMARK    7  A    between atoms: C_13  and  N_60
REMARK    8  A    between atoms: C_17  and  O_25
REMARK    9  A    between atoms: C_18  and  O_23
REMARK   10  A    between atoms: C_19  and  O_21
REMARK   11  A    between atoms: O_21  and  C_22
REMARK   12  A    between atoms: O_23  and  C_24
REMARK   13  A    between atoms: O_25  and  C_26
REMARK                            x       y       z     vdW  Elec       q    Type
REMARK                         _______ _______ _______ _____ _____    ______ ____
ROOT
ATOM      1  C   UNL     1       2.485   0.077  -0.240  0.00  0.00    +0.002 C 
ENDROOT
BRANCH   1   4
ATOM      2  N   UNL     1      -1.141  -0.729   0.310  0.00  0.00    -0.282 N 
ATOM      3  C   UNL     1       0.030  -0.019   0.198  0.00  0.00    +0.107 A 
ATOM      4  C   UNL     1       1.186  -0.677  -0.116  0.00  0.00    +0.046 A 
ATOM      5  C   UNL     1       1.147  -2.065  -0.321  0.00  0.00    +0.258 A 
ATOM      6  O   UNL     1       2.166  -2.673  -0.601  0.00  0.00    -0.267 OA
ATOM      7  N   UNL     1      -0.024  -2.722  -0.206  0.00  0.00    -0.275 N 
ATOM      8  H   UNL     1      -0.054  -3.711  -0.352  0.00  0.00    +0.173 HD
ATOM      9  C   UNL     1      -1.153  -2.059   0.103  0.00  0.00    +0.331 A 
ATOM     10  O   UNL     1      -2.199  -2.671   0.202  0.00  0.00    -0.246 OA
BRANCH   3  11
ATOM     11  N   UNL     1       0.039   1.337   0.404  0.00  0.00    -0.344 N 
ATOM     12  H   UNL     1       0.881   1.816   0.441  0.00  0.00    +0.144 HD
ATOM     13  H   UNL     1      -0.797   1.817   0.510  0.00  0.00    +0.144 HD
ENDBRANCH   3  11
BRANCH   2  14
ATOM     14  C   UNL     1      -2.385  -0.034   0.651  0.00  0.00    +0.128 C 
BRANCH  14  16
ATOM     15  C   UNL     1      -4.381   1.149  -0.275  0.00  0.00    +0.005 C 
ATOM     16  C   UNL     1      -3.082   0.423  -0.632  0.00  0.00    +0.018 C 
ENDBRANCH  14  16
ENDBRANCH   2  14
ENDBRANCH   1   4
BRANCH   1  17
ATOM     17  C   UNL     1       3.391  -0.291   0.907  0.00  0.00    -0.049 A 
ATOM     18  C   UNL     1       4.107  -1.473   0.868  0.00  0.00    +0.052 A 
ATOM     19  C   UNL     1       4.946  -1.812   1.919  0.00  0.00    +0.165 A 
ATOM     20  C   UNL     1       5.058  -0.967   3.016  0.00  0.00    +0.204 A 
ATOM     21  C   UNL     1       4.333   0.217   3.054  0.00  0.00    +0.165 A 
ATOM     22  C   UNL     1       3.500   0.552   1.997  0.00  0.00    +0.052 A 
BRANCH  21  23
ATOM     23  O   UNL     1       4.439   1.047   4.126  0.00  0.00    -0.491 OA
ATOM     24  C   UNL     1       3.664   2.248   4.097  0.00  0.00    +0.277 C 
ENDBRANCH  21  23
BRANCH  20  25
ATOM     25  O   UNL     1       5.877  -1.299   4.052  0.00  0.00    -0.488 OA
ATOM     26  C   UNL     1       5.302  -2.066   5.112  0.00  0.00    +0.277 C 
ENDBRANCH  20  25
BRANCH  19  27
ATOM     27  O   UNL     1       5.654  -2.972   1.877  0.00  0.00    -0.491 OA
ATOM     28  C   UNL     1       5.489  -3.792   0.718  0.00  0.00    +0.277 C 
ENDBRANCH  19  27
ENDBRANCH   1  17
BRANCH   1  33
ATOM     29  C   UNL     1       2.247   0.023  -2.662  0.00  0.00    -0.078 C 
ATOM     30  C   UNL     1       3.230   0.106  -3.856  0.00  0.00    -0.020 C 
ATOM     31  C   UNL     1       4.469   0.792  -3.236  0.00  0.00    -0.020 C 
ATOM     32  C   UNL     1       4.354   0.537  -1.722  0.00  0.00    -0.078 C 
ATOM     33  N   UNL     1       3.146  -0.267  -1.534  0.00  0.00    +0.387 N 
ATOM     34  H   UNL     1       3.390  -1.264  -1.533  0.00  0.00    -0.080 HD
ENDBRANCH   1  33
TORSDOF 9
