REMARK  Name = ZINC39635017
REMARK  8 active torsions:
REMARK  status: ('A' for Active; 'I' for Inactive)
REMARK    1  A    between atoms: C_1  and  C_2
REMARK    2  A    between atoms: C_2  and  C_8
REMARK    3  A    between atoms: C_12  and  C_21
REMARK    4  A    between atoms: N_23  and  C_24
REMARK    5  A    between atoms: C_24  and  C_25
REMARK    6  A    between atoms: C_25  and  C_26
REMARK    7  A    between atoms: C_29  and  O_32
REMARK    8  A    between atoms: O_32  and  C_33
REMARK                            x       y       z     vdW  Elec       q    Type
REMARK                         _______ _______ _______ _____ _____    ______ ____
ROOT
ATOM      1  C   UNL     1      -1.507  -0.428  -0.027  0.00  0.00    +0.222 C 
ATOM      2  O   UNL     1      -1.990  -1.082   0.873  0.00  0.00    -0.275 OA
ATOM      3  N   UNL     1      -2.256  -0.100  -1.099  0.00  0.00    -0.300 N 
ATOM      4  C   UNL     1      -1.819   0.594  -2.334  0.00  0.00    +0.121 C 
ATOM      5  C   UNL     1      -2.579  -0.123  -3.473  0.00  0.00    +0.100 C 
ATOM      6  C   UNL     1      -3.813  -0.740  -2.795  0.00  0.00    -0.004 C 
ATOM      7  C   UNL     1      -3.700  -0.357  -1.312  0.00  0.00    +0.115 C 
ATOM      8  C   UNL     1      -3.796  -2.258  -2.945  0.00  0.00    -0.010 C 
ATOM      9  C   UNL     1      -5.061  -2.843  -2.312  0.00  0.00    -0.082 C 
ATOM     10  N   UNL     1      -6.245  -2.280  -2.972  0.00  0.00    +0.379 N 
ATOM     11  C   UNL     1      -6.304  -0.831  -2.744  0.00  0.00    -0.082 C 
ATOM     12  C   UNL     1      -5.091  -0.160  -3.394  0.00  0.00    -0.010 C 
ATOM     13  H   UNL     1      -6.195  -2.461  -3.963  0.00  0.00    -0.086 HD
ATOM     14  H   UNL     1      -7.076  -2.712  -2.595  0.00  0.00    -0.086 HD
ENDROOT
BRANCH   1  16
ATOM     15  C   UNL     1       0.750  -0.708  -1.016  0.00  0.00    +0.021 C 
ATOM     16  C   UNL     1      -0.070   0.019   0.053  0.00  0.00    +0.044 C 
ATOM     17  C   UNL     1       0.490  -0.312   1.438  0.00  0.00    +0.016 C 
ATOM     18  C   UNL     1      -0.329   0.415   2.506  0.00  0.00    +0.001 C 
ATOM     19  C   UNL     1      -0.250   1.924   2.271  0.00  0.00    +0.000 C 
ATOM     20  C   UNL     1      -0.810   2.255   0.886  0.00  0.00    +0.001 C 
ATOM     21  C   UNL     1       0.009   1.528  -0.183  0.00  0.00    +0.016 C 
ENDBRANCH   1  16
BRANCH   5  22
ATOM     22  C   UNL     1      -2.997   0.868  -4.529  0.00  0.00    +0.218 C 
ATOM     23  O   UNL     1      -3.293   2.001  -4.214  0.00  0.00    -0.275 OA
ATOM     24  N   UNL     1      -3.042   0.495  -5.823  0.00  0.00    -0.315 N 
ATOM     25  H   UNL     1      -2.806  -0.411  -6.075  0.00  0.00    +0.149 HD
BRANCH  24  26
ATOM     26  C   UNL     1      -3.450   1.458  -6.849  0.00  0.00    +0.109 C 
BRANCH  26  27
ATOM     27  C   UNL     1      -3.416   0.784  -8.223  0.00  0.00    +0.054 C 
BRANCH  27  28
ATOM     28  C   UNL     1      -3.834   1.775  -9.278  0.00  0.00    -0.046 A 
ATOM     29  C   UNL     1      -5.168   1.896  -9.621  0.00  0.00    +0.007 A 
ATOM     30  C   UNL     1      -5.555   2.803 -10.589  0.00  0.00    +0.046 A 
ATOM     31  C   UNL     1      -4.603   3.593 -11.217  0.00  0.00    +0.120 A 
ATOM     32  C   UNL     1      -3.265   3.470 -10.871  0.00  0.00    +0.046 A 
ATOM     33  C   UNL     1      -2.884   2.565  -9.899  0.00  0.00    +0.007 A 
BRANCH  31  34
ATOM     34  O   UNL     1      -4.980   4.486 -12.169  0.00  0.00    -0.495 OA
ATOM     35  C   UNL     1      -3.946   5.265 -12.774  0.00  0.00    +0.277 C 
ENDBRANCH  31  34
ENDBRANCH  27  28
ENDBRANCH  26  27
ENDBRANCH  24  26
ENDBRANCH   5  22
TORSDOF 6
