REMARK  Name = ZINC39695957
REMARK  7 active torsions:
REMARK  status: ('A' for Active; 'I' for Inactive)
REMARK    1  A    between atoms: C_1  and  C_2
REMARK    2  A    between atoms: C_2  and  C_3
REMARK    3  A    between atoms: C_6  and  C_9
REMARK    4  A    between atoms: C_9  and  C_11
REMARK    5  A    between atoms: C_9  and  N_12
REMARK    6  A    between atoms: C_13  and  C_15
REMARK    7  A    between atoms: C_26  and  C_28
REMARK                            x       y       z     vdW  Elec       q    Type
REMARK                         _______ _______ _______ _____ _____    ______ ____
ROOT
ATOM      1  C   UNL     1       2.037  -0.138   8.580  0.00  0.00    +0.100 C 
ATOM      2  C   UNL     1       0.881  -1.120   8.875  0.00  0.00    +0.121 C 
ATOM      3  N   UNL     1       1.437  -2.063   9.874  0.00  0.00    -0.296 N 
ATOM      4  C   UNL     1       2.255  -1.212  10.770  0.00  0.00    +0.115 C 
ATOM      5  C   UNL     1       2.935  -0.198   9.828  0.00  0.00    -0.004 C 
ATOM      6  C   UNL     1       4.331  -0.683   9.451  0.00  0.00    -0.010 C 
ATOM      7  C   UNL     1       5.221  -0.681  10.697  0.00  0.00    -0.082 C 
ATOM      8  N   UNL     1       5.286   0.677  11.252  0.00  0.00    +0.379 N 
ATOM      9  C   UNL     1       3.953   1.101  11.697  0.00  0.00    -0.082 C 
ATOM     10  C   UNL     1       3.009   1.173  10.492  0.00  0.00    -0.010 C 
ATOM     11  C   UNL     1       1.243  -3.395   9.950  0.00  0.00    +0.247 C 
ATOM     12  O   UNL     1       0.644  -3.973   9.064  0.00  0.00    -0.270 OA
ATOM     13  H   UNL     1       5.920   0.689  12.036  0.00  0.00    -0.086 HD
ATOM     14  H   UNL     1       5.620   1.312  10.543  0.00  0.00    -0.086 HD
ENDROOT
BRANCH  11  15
ATOM     15  C   UNL     1       1.759  -4.152  11.110  0.00  0.00    +0.037 A 
ATOM     16  C   UNL     1       2.031  -3.481  12.316  0.00  0.00    +0.013 A 
ATOM     17  C   UNL     1       2.505  -4.154  13.395  0.00  0.00    +0.009 A 
ATOM     18  C   UNL     1       2.731  -5.540  13.316  0.00  0.00    -0.018 A 
ATOM     19  C   UNL     1       3.221  -6.258  14.420  0.00  0.00    +0.008 A 
ATOM     20  C   UNL     1       3.429  -7.599  14.314  0.00  0.00    +0.001 A 
ATOM     21  C   UNL     1       3.164  -8.275  13.125  0.00  0.00    +0.001 A 
ATOM     22  C   UNL     1       2.689  -7.614  12.034  0.00  0.00    +0.008 A 
ATOM     23  C   UNL     1       2.461  -6.228  12.106  0.00  0.00    -0.017 A 
ATOM     24  C   UNL     1       1.965  -5.517  11.003  0.00  0.00    +0.021 A 
ENDBRANCH  11  15
BRANCH   1  26
ATOM     25  N   UNL     1       3.505   0.320   6.643  0.00  0.00    -0.308 N 
ATOM     26  C   UNL     1       2.804  -0.580   7.361  0.00  0.00    +0.219 C 
ATOM     27  O   UNL     1       2.789  -1.745   7.025  0.00  0.00    -0.275 OA
ATOM     28  H   UNL     1       3.517   1.252   6.912  0.00  0.00    +0.149 HD
BRANCH  25  29
ATOM     29  C   UNL     1       4.250  -0.110   5.457  0.00  0.00    +0.100 C 
ATOM     30  C   UNL     1       3.316  -0.128   4.246  0.00  0.00    +0.033 C 
BRANCH  29  34
ATOM     31  C   UNL     1       7.466   2.607   4.732  0.00  0.00    -0.048 A 
ATOM     32  C   UNL     1       7.657   1.249   4.562  0.00  0.00    +0.004 A 
ATOM     33  C   UNL     1       6.617   0.369   4.797  0.00  0.00    +0.006 A 
ATOM     34  C   UNL     1       5.385   0.848   5.202  0.00  0.00    -0.027 A 
ATOM     35  C   UNL     1       5.194   2.207   5.373  0.00  0.00    +0.006 A 
ATOM     36  C   UNL     1       6.235   3.086   5.142  0.00  0.00    +0.004 A 
BRANCH  31  38
ATOM     37  C   UNL     1       9.396   3.770   5.766  0.00  0.00    +0.009 C 
ATOM     38  C   UNL     1       8.600   3.566   4.475  0.00  0.00    +0.032 C 
ENDBRANCH  31  38
ENDBRANCH  29  34
ENDBRANCH  25  29
ENDBRANCH   1  26
TORSDOF 5
