REMARK  Name = ZINC39673818
REMARK  7 active torsions:
REMARK  status: ('A' for Active; 'I' for Inactive)
REMARK    1  A    between atoms: C_1  and  C_2
REMARK    2  A    between atoms: C_2  and  C_3
REMARK    3  A    between atoms: C_3  and  C_4
REMARK    4  A    between atoms: C_4  and  C_6
REMARK    5  A    between atoms: C_4  and  N_7
REMARK    6  A    between atoms: C_8  and  C_10
REMARK    7  A    between atoms: C_21  and  C_23
REMARK                            x       y       z     vdW  Elec       q    Type
REMARK                         _______ _______ _______ _____ _____    ______ ____
ROOT
ATOM      1  C   UNL     1      -2.954  -4.240   0.570  0.00  0.00    +0.100 C 
ATOM      2  C   UNL     1      -3.030  -4.396   2.106  0.00  0.00    +0.121 C 
ATOM      3  N   UNL     1      -3.663  -5.720   2.317  0.00  0.00    -0.296 N 
ATOM      4  C   UNL     1      -3.068  -6.584   1.270  0.00  0.00    +0.115 C 
ATOM      5  C   UNL     1      -2.979  -5.678   0.025  0.00  0.00    -0.004 C 
ATOM      6  C   UNL     1      -1.698  -5.972  -0.749  0.00  0.00    -0.010 C 
ATOM      7  C   UNL     1      -1.771  -7.387  -1.330  0.00  0.00    -0.082 C 
ATOM      8  N   UNL     1      -2.937  -7.495  -2.215  0.00  0.00    +0.379 N 
ATOM      9  C   UNL     1      -4.170  -7.303  -1.443  0.00  0.00    -0.082 C 
ATOM     10  C   UNL     1      -4.199  -5.885  -0.867  0.00  0.00    -0.010 C 
ATOM     11  C   UNL     1      -4.575  -6.060   3.249  0.00  0.00    +0.248 C 
ATOM     12  O   UNL     1      -4.943  -7.215   3.348  0.00  0.00    -0.270 OA
ATOM     13  H   UNL     1      -2.878  -6.789  -2.934  0.00  0.00    -0.086 HD
ATOM     14  H   UNL     1      -2.949  -8.408  -2.644  0.00  0.00    -0.086 HD
ENDROOT
BRANCH  11  15
ATOM     15  C   UNL     1      -5.124  -5.036   4.147  0.00  0.00    +0.052 A 
ATOM     16  C   UNL     1      -4.342  -4.035   4.630  0.00  0.00    +0.059 A 
ATOM     17  S   UNL     1      -5.351  -3.108   5.596  0.00  0.00    -0.096 S 
ATOM     18  C   UNL     1      -6.870  -4.000   5.412  0.00  0.00    +0.020 A 
ATOM     19  C   UNL     1      -6.533  -5.058   4.546  0.00  0.00    +0.001 A 
ATOM     20  C   UNL     1      -7.558  -5.959   4.199  0.00  0.00    +0.010 A 
ATOM     21  C   UNL     1      -8.828  -5.790   4.693  0.00  0.00    +0.001 A 
ATOM     22  C   UNL     1      -9.135  -4.737   5.541  0.00  0.00    +0.001 A 
ATOM     23  C   UNL     1      -8.147  -3.843   5.907  0.00  0.00    +0.015 A 
ENDBRANCH  11  15
BRANCH   1  25
ATOM     24  N   UNL     1      -1.630  -2.800  -0.942  0.00  0.00    -0.312 N 
ATOM     25  C   UNL     1      -1.673  -3.551   0.175  0.00  0.00    +0.218 C 
ATOM     26  O   UNL     1      -0.682  -3.674   0.864  0.00  0.00    -0.275 OA
ATOM     27  H   UNL     1      -2.422  -2.702  -1.492  0.00  0.00    +0.149 HD
BRANCH  24  28
ATOM     28  C   UNL     1      -0.385  -2.130  -1.326  0.00  0.00    +0.070 C 
ATOM     29  C   UNL     1      -0.281  -0.789  -0.596  0.00  0.00    +0.028 C 
BRANCH  28  30
ATOM     30  C   UNL     1      -0.380  -1.889  -2.837  0.00  0.00    +0.022 C 
BRANCH  30  32
ATOM     31  C   UNL     1      -0.352  -2.994  -5.078  0.00  0.00    +0.004 C 
ATOM     32  C   UNL     1      -0.358  -3.234  -3.567  0.00  0.00    -0.002 C 
ENDBRANCH  30  32
ENDBRANCH  28  30
ENDBRANCH  24  28
ENDBRANCH   1  25
TORSDOF 5
