REMARK  Name = ZINC02863262
REMARK  8 active torsions:
REMARK  status: ('A' for Active; 'I' for Inactive)
REMARK    1  A    between atoms: C_1  and  C_2
REMARK    2  A    between atoms: C_2  and  O_3
REMARK    3  A    between atoms: O_3  and  C_4
REMARK    4  A    between atoms: C_7  and  C_10
REMARK    5  A    between atoms: C_10  and  C_12
REMARK    6  A    between atoms: C_10  and  N_24
REMARK    7  A    between atoms: C_21  and  O_22
REMARK    8  A    between atoms: N_24  and  C_25
REMARK                            x       y       z     vdW  Elec       q    Type
REMARK                         _______ _______ _______ _____ _____    ______ ____
ROOT
ATOM      1  C   UNL     1       1.047   5.929  -0.067  0.00  0.00    +0.136 C 
ENDROOT
BRANCH   1   2
ATOM      2  C   UNL     1       1.558   5.372  -1.371  0.00  0.00    +0.022 A 
ATOM      3  C   UNL     1       0.930   4.265  -1.935  0.00  0.00    +0.030 A 
ATOM      4  C   UNL     1       1.363   3.741  -3.116  0.00  0.00    +0.051 A 
ATOM      5  C   UNL     1       2.466   4.316  -3.770  0.00  0.00    +0.022 A 
ATOM      6  C   UNL     1       2.946   3.800  -4.988  0.00  0.00    +0.013 A 
ATOM      7  C   UNL     1       4.022   4.410  -5.567  0.00  0.00    +0.020 A 
ATOM      8  C   UNL     1       4.611   5.512  -4.951  0.00  0.00    +0.111 A 
ATOM      9  N   UNL     1       4.160   5.990  -3.817  0.00  0.00    -0.251 NA
ATOM     10  C   UNL     1       3.112   5.439  -3.198  0.00  0.00    +0.114 A 
ATOM     11  C   UNL     1       2.631   5.958  -1.978  0.00  0.00    +0.148 A 
ATOM     12 CL   UNL     1       0.561   2.364  -3.805  0.00  0.00    -0.083 Cl
BRANCH  11  13
ATOM     13  O   UNL     1       3.234   7.034  -1.409  0.00  0.00    -0.504 OA
ATOM     14  H   UNL     1       3.952   6.808  -0.802  0.00  0.00    +0.292 HD
ENDBRANCH  11  13
ENDBRANCH   1   2
BRANCH   1  18
ATOM     15  C   UNL     1       3.276   4.250   3.170  0.00  0.00    +0.121 A 
ATOM     16  C   UNL     1       3.487   5.567   2.790  0.00  0.00    +0.046 A 
ATOM     17  C   UNL     1       2.766   6.108   1.744  0.00  0.00    +0.009 A 
ATOM     18  C   UNL     1       1.833   5.337   1.074  0.00  0.00    -0.023 A 
ATOM     19  C   UNL     1       1.617   4.025   1.454  0.00  0.00    +0.009 A 
ATOM     20  C   UNL     1       2.340   3.478   2.496  0.00  0.00    +0.046 A 
BRANCH  15  21
ATOM     21  O   UNL     1       3.984   3.716   4.199  0.00  0.00    -0.492 OA
BRANCH  21  23
ATOM     22  C   UNL     1       4.600   1.931   5.709  0.00  0.00    +0.048 C 
ATOM     23  C   UNL     1       3.714   2.353   4.535  0.00  0.00    +0.225 C 
ENDBRANCH  21  23
ENDBRANCH  15  21
ENDBRANCH   1  18
BRANCH   1  24
ATOM     24  N   UNL     1      -0.369   5.590   0.088  0.00  0.00    -0.320 N 
ATOM     25  H   UNL     1      -0.629   4.823   0.621  0.00  0.00    +0.148 HD
BRANCH  24  26
ATOM     26  C   UNL     1      -1.342   6.369  -0.528  0.00  0.00    +0.097 A 
ATOM     27  C   UNL     1      -0.970   7.521  -1.214  0.00  0.00    +0.041 A 
ATOM     28  C   UNL     1      -1.948   8.287  -1.823  0.00  0.00    +0.005 A 
ATOM     29  C   UNL     1      -3.270   7.873  -1.725  0.00  0.00    +0.018 A 
ATOM     30  C   UNL     1      -3.568   6.722  -1.025  0.00  0.00    +0.084 A 
ATOM     31  N   UNL     1      -2.633   5.942  -0.420  0.00  0.00    -0.350 N 
ATOM     32  H   UNL     1      -2.883   5.085   0.088  0.00  0.00    +0.166 HD
ENDBRANCH  24  26
ENDBRANCH   1  24
TORSDOF 7
