REMARK  Name = ZINC12561215
REMARK  10 active torsions:
REMARK  status: ('A' for Active; 'I' for Inactive)
REMARK    1  A    between atoms: C_1  and  C_2
REMARK    2  A    between atoms: C_2  and  C_3
REMARK    3  A    between atoms: C_3  and  N_4
REMARK    4  A    between atoms: C_5  and  C_7
REMARK    5  A    between atoms: N_10  and  C_18
REMARK    6  A    between atoms: C_18  and  C_19
REMARK    7  A    between atoms: N_21  and  C_22
REMARK    8  A    between atoms: C_27  and  C_28
REMARK    9  A    between atoms: N_30  and  C_31
REMARK   10  A    between atoms: C_31  and  C_32
REMARK                            x       y       z     vdW  Elec       q    Type
REMARK                         _______ _______ _______ _____ _____    ______ ____
ROOT
ATOM      1  C   UNL     1       1.767  -2.340   2.310  0.00  0.00    +0.235 C 
ATOM      2  O   UNL     1       2.194  -1.511   3.084  0.00  0.00    -0.274 OA
ATOM      3  N   UNL     1       2.150  -3.627   2.422  0.00  0.00    -0.284 N 
ATOM      4  H   UNL     1       1.859  -4.279   1.765  0.00  0.00    +0.155 HD
ENDROOT
BRANCH   3   5
ATOM      5  C   UNL     1       2.965  -4.022   3.480  0.00  0.00    +0.046 A 
ATOM      6  C   UNL     1       3.947  -3.166   3.961  0.00  0.00    +0.024 A 
ATOM      7  C   UNL     1       4.750  -3.556   5.014  0.00  0.00    +0.002 A 
ATOM      8  C   UNL     1       4.591  -4.806   5.591  0.00  0.00    +0.001 A 
ATOM      9  C   UNL     1       3.626  -5.671   5.123  0.00  0.00    +0.015 A 
ATOM     10  C   UNL     1       2.802  -5.288   4.062  0.00  0.00    +0.058 A 
BRANCH  10  11
ATOM     11  C   UNL     1       1.767  -6.209   3.556  0.00  0.00    +0.246 C 
ATOM     12  O   UNL     1       1.113  -5.909   2.575  0.00  0.00    -0.270 OA
ATOM     13  N   UNL     1       1.546  -7.383   4.180  0.00  0.00    -0.307 N 
ATOM     14  H   UNL     1       2.067  -7.622   4.962  0.00  0.00    +0.149 HD
BRANCH  13  15
ATOM     15  C   UNL     1       0.518  -8.298   3.677  0.00  0.00    +0.139 C 
BRANCH  15  16
ATOM     16  C   UNL     1       0.472  -9.528   4.546  0.00  0.00    -0.030 A 
ATOM     17  C   UNL     1       1.260 -10.621   4.238  0.00  0.00    +0.005 A 
ATOM     18  C   UNL     1       1.221 -11.748   5.038  0.00  0.00    +0.000 A 
ATOM     19  C   UNL     1       0.388 -11.785   6.140  0.00  0.00    +0.000 A 
ATOM     20  C   UNL     1      -0.404 -10.694   6.445  0.00  0.00    +0.000 A 
ATOM     21  C   UNL     1      -0.362  -9.565   5.648  0.00  0.00    +0.005 A 
ENDBRANCH  15  16
ENDBRANCH  13  15
ENDBRANCH  10  11
ENDBRANCH   3   5
BRANCH   1  22
ATOM     22  C   UNL     1       0.807  -1.932   1.222  0.00  0.00    +0.201 C 
BRANCH  22  25
ATOM     23  C   UNL     1       1.707   1.713   1.028  0.00  0.00    +0.276 C 
ATOM     24  C   UNL     1       1.901   0.199   0.877  0.00  0.00    +0.160 C 
ATOM     25  N   UNL     1       0.645  -0.472   1.234  0.00  0.00    -0.314 N 
ATOM     26  C   UNL     1       0.146  -0.033   2.464  0.00  0.00    +0.073 A 
ATOM     27  C   UNL     1      -0.772  -0.836   3.135  0.00  0.00    +0.027 A 
ATOM     28  C   UNL     1      -1.290  -0.434   4.350  0.00  0.00    +0.002 A 
ATOM     29  C   UNL     1      -0.900   0.770   4.906  0.00  0.00    +0.004 A 
ATOM     30  C   UNL     1       0.011   1.573   4.248  0.00  0.00    +0.047 A 
ATOM     31  C   UNL     1       0.538   1.175   3.027  0.00  0.00    +0.143 A 
ATOM     32  O   UNL     1       1.439   1.987   2.407  0.00  0.00    -0.476 OA
BRANCH  23  34
ATOM     33  N   UNL     1       3.365   2.374  -0.685  0.00  0.00    -0.312 N 
ATOM     34  C   UNL     1       2.959   2.433   0.599  0.00  0.00    +0.255 C 
ATOM     35  O   UNL     1       3.603   3.066   1.410  0.00  0.00    -0.272 OA
ATOM     36  H   UNL     1       2.850   1.869  -1.333  0.00  0.00    +0.149 HD
BRANCH  33  37
ATOM     37  C   UNL     1       4.582   3.074  -1.101  0.00  0.00    +0.104 C 
BRANCH  37  39
ATOM     38  C   UNL     1       6.087   3.578  -3.031  0.00  0.00    +0.005 C 
ATOM     39  C   UNL     1       4.815   2.847  -2.596  0.00  0.00    +0.015 C 
ENDBRANCH  37  39
ENDBRANCH  33  37
ENDBRANCH  23  34
ENDBRANCH  22  25
ENDBRANCH   1  22
TORSDOF 9
