REMARK  Name = ZINC39467279
REMARK  4 active torsions:
REMARK  status: ('A' for Active; 'I' for Inactive)
REMARK    1  A    between atoms: C_1  and  S_2
REMARK    2  A    between atoms: S_2  and  C_3
REMARK    3  A    between atoms: P_12  and  C_22
REMARK    4  A    between atoms: C_27  and  O_28
REMARK                            x       y       z     vdW  Elec       q    Type
REMARK                         _______ _______ _______ _____ _____    ______ ____
ROOT
ATOM      1  C   UNL     1       0.848  -0.411  -1.489  0.00  0.00    +0.017 C 
ATOM      2  C   UNL     1       1.300   0.562  -2.296  0.00  0.00    -0.007 C 
ATOM      3  C   UNL     1       2.030   0.175  -3.553  0.00  0.00    +0.017 C 
ATOM      4  C   UNL     1       2.935   1.300  -4.044  0.00  0.00    -0.003 C 
ATOM      5  C   UNL     1       3.684   0.841  -5.304  0.00  0.00    -0.020 C 
ATOM      6  C   UNL     1       4.593   1.997  -5.740  0.00  0.00    +0.157 C 
ATOM      7  O   UNL     1       5.252   1.646  -6.971  0.00  0.00    -0.316 OA
ATOM      8  P   UNL     1       6.005   0.205  -7.042  0.00  0.00    +0.291 P 
ATOM      9  O   UNL     1       7.335   0.289  -6.399  0.00  0.00    -0.269 OA
ATOM     10  N   UNL     1       5.031  -0.836  -6.210  0.00  0.00    -0.288 NA
ATOM     11  N   UNL     1       4.469  -0.364  -5.040  0.00  0.00    +0.398 N 
ATOM     12  C   UNL     1       3.621  -1.461  -4.539  0.00  0.00    -0.046 C 
ATOM     13  C   UNL     1       2.911  -1.046  -3.258  0.00  0.00    +0.005 C 
ATOM     14  C   UNL     1       2.050  -2.144  -2.698  0.00  0.00    -0.009 C 
ATOM     15  C   UNL     1       1.071  -1.825  -1.856  0.00  0.00    +0.023 C 
ATOM     16  I   UNL     1      -0.157  -3.324  -1.060  0.00  0.00    -0.043 I 
ATOM     17  H   UNL     1       4.872  -1.738  -6.528  0.00  0.00    +0.111 HD
ATOM     18  H   UNL     1       5.189  -0.157  -4.364  0.00  0.00    -0.055 HD
ENDROOT
BRANCH   8  19
ATOM     19  C   UNL     1       6.175  -0.330  -8.767  0.00  0.00    +0.091 A 
ATOM     20  C   UNL     1       5.180  -1.085  -9.358  0.00  0.00    +0.018 A 
ATOM     21  C   UNL     1       5.310  -1.494 -10.672  0.00  0.00    +0.001 A 
ATOM     22  C   UNL     1       6.434  -1.148 -11.399  0.00  0.00    +0.004 A 
ATOM     23  C   UNL     1       7.432  -0.393 -10.813  0.00  0.00    +0.046 A 
ATOM     24  C   UNL     1       7.302   0.023  -9.495  0.00  0.00    +0.131 A 
BRANCH  24  25
ATOM     25  O   UNL     1       8.279   0.770  -8.918  0.00  0.00    -0.506 OA
ATOM     26  H   UNL     1       8.967   0.249  -8.482  0.00  0.00    +0.292 HD
ENDBRANCH  24  25
ENDBRANCH   8  19
BRANCH   1  28
ATOM     27  C   UNL     1      -0.022   1.810   0.012  0.00  0.00    +0.090 C 
ATOM     28  S   UNL     1       0.002  -0.004   0.002  0.00  0.00    -0.128 S 
ENDBRANCH   1  28
TORSDOF 3
