REMARK  Name = ZINC01896170
REMARK  8 active torsions:
REMARK  status: ('A' for Active; 'I' for Inactive)
REMARK    1  A    between atoms: C_1  and  C_2
REMARK    2  A    between atoms: C_5  and  S_8
REMARK    3  A    between atoms: S_8  and  N_11
REMARK    4  A    between atoms: C_16  and  C_17
REMARK    5  A    between atoms: C_16  and  N_53
REMARK    6  A    between atoms: N_19  and  N_20
REMARK    7  A    between atoms: C_21  and  C_22
REMARK    8  A    between atoms: C_25  and  O_28
REMARK                            x       y       z     vdW  Elec       q    Type
REMARK                         _______ _______ _______ _____ _____    ______ ____
ROOT
ATOM      1  N   UNL     1      -1.525   3.600   1.913  0.00  0.00    -0.180 NA
ATOM      2  C   UNL     1      -0.527   3.626   0.833  0.00  0.00    +0.091 C 
ATOM      3  C   UNL     1      -1.255   3.807  -0.503  0.00  0.00    -0.061 C 
ATOM      4  C   UNL     1      -3.168   4.824   0.586  0.00  0.00    -0.061 C 
ATOM      5  C   UNL     1      -2.519   4.684   1.967  0.00  0.00    +0.091 C 
ATOM      6  N   UNL     1      -2.103   5.016  -0.422  0.00  0.00    +0.387 N 
ATOM      7  H   UNL     1      -1.520   5.814  -0.142  0.00  0.00    -0.081 HD
ENDROOT
BRANCH   1   8
ATOM      8  S   UNL     1      -1.534   2.382   3.034  0.00  0.00    +0.061 S 
ATOM      9  O   UNL     1      -2.856   2.313   3.550  0.00  0.00    -0.153 OA
ATOM     10  O   UNL     1      -0.894   1.267   2.428  0.00  0.00    -0.153 OA
BRANCH   8  15
ATOM     11  C   UNL     1       2.009   4.128   7.596  0.00  0.00    +0.044 C 
ATOM     12  C   UNL     1       1.124   3.692   6.457  0.00  0.00    -0.050 A 
ATOM     13  C   UNL     1      -0.224   3.995   6.473  0.00  0.00    +0.005 A 
ATOM     14  C   UNL     1      -1.036   3.595   5.428  0.00  0.00    +0.029 A 
ATOM     15  C   UNL     1      -0.499   2.892   4.366  0.00  0.00    +0.105 A 
ATOM     16  C   UNL     1       0.849   2.584   4.352  0.00  0.00    +0.029 A 
ATOM     17  C   UNL     1       1.661   2.989   5.394  0.00  0.00    +0.005 A 
ENDBRANCH   8  15
ENDBRANCH   1   8
BRANCH   6  18
ATOM     18  C   UNL     1      -2.703   5.301  -1.742  0.00  0.00    +0.020 C 
BRANCH  18  19
ATOM     19  C   UNL     1      -3.599   4.168  -2.172  0.00  0.00    +0.216 C 
ATOM     20  O   UNL     1      -3.788   3.228  -1.429  0.00  0.00    -0.276 OA
ATOM     21  N   UNL     1      -4.190   4.199  -3.383  0.00  0.00    -0.209 N 
ATOM     22  H   UNL     1      -4.039   4.951  -3.977  0.00  0.00    +0.177 HD
BRANCH  21  23
ATOM     23  N   UNL     1      -5.023   3.146  -3.783  0.00  0.00    -0.188 NA
ATOM     24  C   UNL     1      -5.472   3.101  -5.000  0.00  0.00    +0.138 C 
BRANCH  24  25
ATOM     25  C   UNL     1      -4.845   3.926  -6.049  0.00  0.00    -0.005 A 
ATOM     26  C   UNL     1      -5.547   4.223  -7.220  0.00  0.00    +0.013 A 
ATOM     27  C   UNL     1      -4.958   4.998  -8.196  0.00  0.00    +0.046 A 
ATOM     28  C   UNL     1      -3.666   5.475  -8.020  0.00  0.00    +0.117 A 
ATOM     29  C   UNL     1      -2.962   5.178  -6.860  0.00  0.00    +0.046 A 
ATOM     30  C   UNL     1      -3.545   4.408  -5.877  0.00  0.00    +0.013 A 
BRANCH  28  31
ATOM     31  O   UNL     1      -3.087   6.234  -8.987  0.00  0.00    -0.507 OA
ATOM     32  H   UNL     1      -2.599   5.725  -9.648  0.00  0.00    +0.292 HD
ENDBRANCH  28  31
ENDBRANCH  24  25
ENDBRANCH  21  23
ENDBRANCH  18  19
ENDBRANCH   6  18
TORSDOF 7
