REMARK  Name = ZINC05492863
REMARK  11 active torsions:
REMARK  status: ('A' for Active; 'I' for Inactive)
REMARK    1  A    between atoms: C_1  and  C_2
REMARK    2  A    between atoms: C_2  and  C_4
REMARK    3  A    between atoms: C_4  and  O_32
REMARK    4  A    between atoms: C_8  and  O_25
REMARK    5  A    between atoms: C_11  and  O_12
REMARK    6  A    between atoms: C_19  and  O_23
REMARK    7  A    between atoms: O_23  and  C_24
REMARK    8  A    between atoms: C_26  and  S_29
REMARK    9  A    between atoms: S_29  and  C_30
REMARK   10  A    between atoms: C_30  and  C_31
REMARK   11  A    between atoms: C_31  and  N_55
REMARK                            x       y       z     vdW  Elec       q    Type
REMARK                         _______ _______ _______ _____ _____    ______ ____
ROOT
ATOM      1  C   UNL     1       3.497  10.286   0.459  0.00  0.00    +0.129 C 
ATOM      2  C   UNL     1       2.307   9.478  -0.054  0.00  0.00    +0.081 C 
ATOM      3  C   UNL     1       2.670   8.022  -0.190  0.00  0.00    +0.006 A 
ATOM      4  C   UNL     1       3.971   7.587  -0.231  0.00  0.00    +0.014 A 
ATOM      5  C   UNL     1       4.250   6.220  -0.368  0.00  0.00    +0.133 A 
ATOM      6  C   UNL     1       3.216   5.292  -0.460  0.00  0.00    +0.078 A 
ATOM      7  C   UNL     1       1.880   5.738  -0.413  0.00  0.00    +0.078 A 
ATOM      8  C   UNL     1       1.619   7.100  -0.278  0.00  0.00    +0.132 A 
ATOM      9  C   UNL     1       0.775   4.769  -0.508  0.00  0.00    +0.198 C 
ATOM     10  O   UNL     1      -0.378   5.153  -0.468  0.00  0.00    -0.286 OA
ATOM     11  C   UNL     1       1.070   3.328  -0.650  0.00  0.00    +0.037 A 
ATOM     12  C   UNL     1       0.034   2.405  -0.739  0.00  0.00    +0.012 A 
ATOM     13  C   UNL     1       0.316   1.055  -0.877  0.00  0.00    +0.004 A 
ATOM     14  C   UNL     1       1.623   0.613  -0.917  0.00  0.00    +0.046 A 
ATOM     15  C   UNL     1       2.675   1.519  -0.830  0.00  0.00    +0.132 A 
ATOM     16  C   UNL     1       2.405   2.884  -0.696  0.00  0.00    +0.075 A 
ATOM     17  C   UNL     1       3.510   3.855  -0.603  0.00  0.00    +0.202 C 
ATOM     18  O   UNL     1       4.663   3.471  -0.645  0.00  0.00    -0.286 OA
ATOM     19  C   UNL     1       5.145   8.526  -0.126  0.00  0.00    +0.083 C 
ATOM     20  C   UNL     1       4.713   9.962  -0.417  0.00  0.00    +0.062 C 
ENDROOT
BRANCH   1  22
ATOM     21  C   UNL     1       4.506  10.878   2.792  0.00  0.00    +0.089 C 
ATOM     22  C   UNL     1       3.786   9.910   1.889  0.00  0.00    +0.162 C 
ATOM     23  O   UNL     1       3.441   8.832   2.312  0.00  0.00    -0.295 OA
ENDBRANCH   1  22
BRANCH   8  24
ATOM     24  O   UNL     1       0.336   7.538  -0.232  0.00  0.00    -0.506 OA
ATOM     25  H   UNL     1      -0.038   7.751  -1.098  0.00  0.00    +0.292 HD
ENDBRANCH   8  24
BRANCH  15  26
ATOM     26  O   UNL     1       3.957   1.079  -0.875  0.00  0.00    -0.494 OA
ATOM     27  C   UNL     1       4.156  -0.329  -1.012  0.00  0.00    +0.277 C 
ENDBRANCH  15  26
BRANCH   5  28
ATOM     28  O   UNL     1       5.539   5.799  -0.412  0.00  0.00    -0.506 OA
ATOM     29  H   UNL     1       5.883   5.680  -1.308  0.00  0.00    +0.292 HD
ENDBRANCH   5  28
BRANCH   1  30
ATOM     30  O   UNL     1       3.202  11.682   0.378  0.00  0.00    -0.381 OA
ATOM     31  H   UNL     1       2.432  11.952   0.897  0.00  0.00    +0.211 HD
ENDBRANCH   1  30
BRANCH  19  32
ATOM     32  S   UNL     1       6.416   8.031  -1.322  0.00  0.00    -0.154 S 
BRANCH  32  33
ATOM     33  C   UNL     1       7.835   9.086  -0.916  0.00  0.00    +0.050 C 
BRANCH  33  34
ATOM     34  C   UNL     1       9.034   8.681  -1.776  0.00  0.00    -0.076 C 
BRANCH  34  37
ATOM     35  H   UNL     1      10.396   9.491  -0.462  0.00  0.00    -0.090 HD
ATOM     36  H   UNL     1      10.988   9.288  -2.003  0.00  0.00    -0.090 HD
ATOM     37  N   UNL     1      10.173   9.558  -1.454  0.00  0.00    +0.379 N 
ATOM     38  H   UNL     1       9.926  10.529  -1.677  0.00  0.00    -0.090 HD
ENDBRANCH  34  37
ENDBRANCH  33  34
ENDBRANCH  32  33
ENDBRANCH  19  32
TORSDOF 9
