REMARK  Name = ZINC26621145
REMARK  9 active torsions:
REMARK  status: ('A' for Active; 'I' for Inactive)
REMARK    1  A    between atoms: C_1  and  C_2
REMARK    2  A    between atoms: C_7  and  N_8
REMARK    3  A    between atoms: C_9  and  C_11
REMARK    4  A    between atoms: C_11  and  N_12
REMARK    5  A    between atoms: C_13  and  C_15
REMARK    6  A    between atoms: C_15  and  C_17
REMARK    7  A    between atoms: C_15  and  N_24
REMARK    8  A    between atoms: C_17  and  C_18
REMARK    9  A    between atoms: C_25  and  C_27
REMARK                            x       y       z     vdW  Elec       q    Type
REMARK                         _______ _______ _______ _____ _____    ______ ____
ROOT
ATOM      1  N   UNL     1      -1.164  -2.625   0.905  0.00  0.00    -0.305 N 
ATOM      2  C   UNL     1      -0.092  -2.025   1.460  0.00  0.00    +0.234 C 
ATOM      3  O   UNL     1       0.789  -2.696   1.954  0.00  0.00    -0.274 OA
ATOM      4  H   UNL     1      -1.964  -2.017   0.457  0.00  0.00    +0.149 HD
ENDROOT
BRANCH   1   5
ATOM      5  C   UNL     1      -1.264  -4.086   0.899  0.00  0.00    +0.200 C 
BRANCH   5   7
ATOM      6  N   UNL     1      -2.854  -5.805   0.102  0.00  0.00    -0.284 N 
ATOM      7  C   UNL     1      -2.547  -4.499   0.224  0.00  0.00    +0.234 C 
ATOM      8  O   UNL     1      -3.304  -3.655  -0.208  0.00  0.00    -0.274 OA
ATOM      9  H   UNL     1      -2.129  -6.572   0.411  0.00  0.00    +0.155 HD
BRANCH   6  16
ATOM     10  C   UNL     1      -3.068  -8.361  -1.129  0.00  0.00    +0.046 C 
ATOM     11  C   UNL     1      -4.245  -7.425  -1.028  0.00  0.00    -0.028 A 
ATOM     12  C   UNL     1      -5.473  -7.801  -1.537  0.00  0.00    +0.020 A 
ATOM     13  C   UNL     1      -6.552  -6.940  -1.450  0.00  0.00    +0.018 A 
ATOM     14  C   UNL     1      -6.406  -5.702  -0.848  0.00  0.00    +0.017 A 
ATOM     15  C   UNL     1      -5.181  -5.324  -0.332  0.00  0.00    +0.024 A 
ATOM     16  C   UNL     1      -4.096  -6.187  -0.419  0.00  0.00    +0.036 A 
ATOM     17 BR   UNL     1      -8.229  -7.455  -2.154  0.00  0.00    -0.050 Br
ENDBRANCH   6  16
ENDBRANCH   5   7
ENDBRANCH   1   5
BRANCH   2  18
ATOM     18  C   UNL     1       0.011  -0.522   1.467  0.00  0.00    +0.163 C 
BRANCH  18  19
ATOM     19  N   UNL     1       1.258  -0.121   2.122  0.00  0.00    -0.297 N 
ATOM     20  C   UNL     1       1.357   1.095   2.696  0.00  0.00    +0.280 C 
ATOM     21  O   UNL     1       0.411   1.859   2.670  0.00  0.00    -0.267 OA
ATOM     22  H   UNL     1       2.114  -0.811   2.146  0.00  0.00    +0.150 HD
BRANCH  20  23
ATOM     23  C   UNL     1       2.606   1.496   3.352  0.00  0.00    +0.189 A 
ATOM     24  C   UNL     1       2.840   2.692   3.969  0.00  0.00    +0.054 A 
ATOM     25  C   UNL     1       4.156   2.645   4.454  0.00  0.00    +0.042 A 
ATOM     26  C   UNL     1       4.661   1.438   4.117  0.00  0.00    +0.196 A 
ATOM     27  O   UNL     1       3.723   0.747   3.457  0.00  0.00    -0.458 OA
ENDBRANCH  20  23
ENDBRANCH  18  19
BRANCH  18  28
ATOM     28  C   UNL     1       0.002  -0.003   0.027  0.00  0.00    +0.067 C 
BRANCH  28  29
ATOM     29  C   UNL     1      -0.019   1.503   0.036  0.00  0.00    -0.045 A 
ATOM     30  C   UNL     1      -1.226   2.178   0.036  0.00  0.00    +0.004 A 
ATOM     31  C   UNL     1      -1.245   3.560   0.049  0.00  0.00    +0.000 A 
ATOM     32  C   UNL     1      -0.058   4.268   0.051  0.00  0.00    +0.000 A 
ATOM     33  C   UNL     1       1.149   3.593   0.046  0.00  0.00    +0.000 A 
ATOM     34  C   UNL     1       1.168   2.211   0.038  0.00  0.00    +0.004 A 
ENDBRANCH  28  29
ENDBRANCH  18  28
ENDBRANCH   2  18
TORSDOF 8
