REMARK  Name = ZINC39637280
REMARK  8 active torsions:
REMARK  status: ('A' for Active; 'I' for Inactive)
REMARK    1  A    between atoms: C_1  and  C_2
REMARK    2  A    between atoms: C_7  and  N_12
REMARK    3  A    between atoms: C_9  and  C_11
REMARK    4  A    between atoms: C_13  and  C_15
REMARK    5  A    between atoms: C_26  and  C_28
REMARK    6  A    between atoms: C_28  and  C_30
REMARK    7  A    between atoms: C_28  and  O_31
REMARK    8  A    between atoms: O_31  and  C_32
REMARK                            x       y       z     vdW  Elec       q    Type
REMARK                         _______ _______ _______ _____ _____    ______ ____
ROOT
ATOM      1  C   UNL     1       1.975  -4.277   4.004  0.00  0.00    +0.100 C 
ATOM      2  C   UNL     1       3.487  -4.478   3.756  0.00  0.00    +0.121 C 
ATOM      3  N   UNL     1       3.833  -5.697   4.524  0.00  0.00    -0.297 N 
ATOM      4  C   UNL     1       2.676  -6.601   4.322  0.00  0.00    +0.115 C 
ATOM      5  C   UNL     1       1.446  -5.673   4.374  0.00  0.00    -0.004 C 
ATOM      6  C   UNL     1       0.399  -6.127   3.361  0.00  0.00    -0.010 C 
ATOM      7  C   UNL     1      -0.154  -7.491   3.783  0.00  0.00    -0.082 C 
ATOM      8  N   UNL     1      -0.750  -7.388   5.120  0.00  0.00    +0.379 N 
ATOM      9  C   UNL     1       0.283  -7.041   6.104  0.00  0.00    -0.082 C 
ATOM     10  C   UNL     1       0.855  -5.658   5.780  0.00  0.00    -0.010 C 
ATOM     11  C   UNL     1       4.948  -5.931   5.244  0.00  0.00    +0.256 C 
ATOM     12  O   UNL     1       5.773  -5.053   5.387  0.00  0.00    -0.272 OA
ATOM     13  H   UNL     1      -1.461  -6.673   5.116  0.00  0.00    -0.086 HD
ATOM     14  H   UNL     1      -1.167  -8.272   5.370  0.00  0.00    -0.086 HD
ENDROOT
BRANCH   1  16
ATOM     15  N   UNL     1       0.140  -3.096   2.840  0.00  0.00    -0.312 N 
ATOM     16  C   UNL     1       1.300  -3.775   2.753  0.00  0.00    +0.218 C 
ATOM     17  O   UNL     1       1.802  -3.982   1.669  0.00  0.00    -0.275 OA
ATOM     18  H   UNL     1      -0.262  -2.930   3.707  0.00  0.00    +0.149 HD
BRANCH  15  24
ATOM     19  C   UNL     1      -4.201  -1.786   0.869  0.00  0.00    +0.008 C 
ATOM     20  C   UNL     1      -2.701  -1.942   0.611  0.00  0.00    -0.009 C 
ATOM     21  C   UNL     1      -2.107  -0.588   0.220  0.00  0.00    +0.003 C 
ATOM     22  C   UNL     1      -0.607  -0.744  -0.037  0.00  0.00    +0.002 C 
ATOM     23  C   UNL     1       0.078  -1.253   1.233  0.00  0.00    +0.022 C 
ATOM     24  C   UNL     1      -0.516  -2.608   1.624  0.00  0.00    +0.076 C 
ATOM     25  C   UNL     1      -2.016  -2.452   1.881  0.00  0.00    +0.009 C 
ATOM     26  C   UNL     1      -2.610  -3.806   2.272  0.00  0.00    +0.009 C 
ENDBRANCH  15  24
ENDBRANCH   1  16
BRANCH  11  27
ATOM     27  C   UNL     1       5.170  -7.283   5.871  0.00  0.00    +0.256 C 
ATOM     28  C   UNL     1       5.366  -8.329   4.772  0.00  0.00    +0.062 C 
BRANCH  27  29
ATOM     29  O   UNL     1       6.334  -7.238   6.699  0.00  0.00    -0.480 OA
BRANCH  29  30
ATOM     30  C   UNL     1       6.405  -8.140   7.713  0.00  0.00    +0.122 A 
ATOM     31  C   UNL     1       7.445  -8.076   8.629  0.00  0.00    +0.045 A 
ATOM     32  C   UNL     1       7.515  -8.994   9.659  0.00  0.00    +0.004 A 
ATOM     33  C   UNL     1       6.549  -9.976   9.778  0.00  0.00    +0.000 A 
ATOM     34  C   UNL     1       5.511 -10.042   8.866  0.00  0.00    +0.004 A 
ATOM     35  C   UNL     1       5.434  -9.123   7.838  0.00  0.00    +0.045 A 
ENDBRANCH  29  30
ENDBRANCH  27  29
ENDBRANCH  11  27
TORSDOF 5
