REMARK  Name = ZINC29580062
REMARK  9 active torsions:
REMARK  status: ('A' for Active; 'I' for Inactive)
REMARK    1  A    between atoms: C_1  and  C_2
REMARK    2  A    between atoms: C_4  and  C_14
REMARK    3  A    between atoms: N_8  and  C_11
REMARK    4  A    between atoms: C_11  and  C_12
REMARK    5  A    between atoms: C_11  and  C_13
REMARK    6  A    between atoms: C_19  and  C_22
REMARK    7  A    between atoms: C_25  and  C_27
REMARK    8  A    between atoms: C_27  and  N_28
REMARK    9  A    between atoms: C_29  and  C_31
REMARK                            x       y       z     vdW  Elec       q    Type
REMARK                         _______ _______ _______ _____ _____    ______ ____
ROOT
ATOM      1  C   UNL     1       0.002  -0.004   0.002  0.00  0.00    +0.250 C 
ATOM      2  O   UNL     1       1.063  -0.598  -0.011  0.00  0.00    -0.270 OA
ATOM      3  N   UNL     1      -1.156  -0.694   0.009  0.00  0.00    -0.261 N 
ATOM      4  C   UNL     1      -1.137  -2.082   0.002  0.00  0.00    +0.165 A 
ATOM      5  N   UNL     1      -2.148  -2.929   0.007  0.00  0.00    -0.221 NA
ATOM      6  C   UNL     1      -1.945  -4.245  -0.002  0.00  0.00    +0.115 A 
ATOM      7  C   UNL     1      -0.662  -4.722  -0.017  0.00  0.00    +0.080 A 
ATOM      8  S   UNL     1       0.263  -3.192  -0.025  0.00  0.00    -0.060 S 
ATOM      9  H   UNL     1      -2.116  -0.157   0.021  0.00  0.00    +0.157 HD
ENDROOT
BRANCH   1  13
ATOM     10  C   UNL     1      -2.501   4.320   0.049  0.00  0.00    +0.065 C 
ATOM     11  C   UNL     1      -1.198   3.564   0.033  0.00  0.00    +0.041 A 
ATOM     12  C   UNL     1      -1.221   2.177   0.019  0.00  0.00    +0.037 A 
ATOM     13  C   UNL     1      -0.018   1.474   0.010  0.00  0.00    +0.051 A 
ATOM     14  C   UNL     1       1.182   2.220   0.003  0.00  0.00    +0.051 A 
ATOM     15  C   UNL     1       2.550   1.873  -0.012  0.00  0.00    +0.145 A 
ATOM     16  N   UNL     1       3.255   2.968  -0.013  0.00  0.00    -0.177 NA
ATOM     17  N   UNL     1       2.404   4.079   0.001  0.00  0.00    -0.244 N 
ATOM     18  C   UNL     1       1.110   3.627   0.011  0.00  0.00    +0.159 A 
ATOM     19  N   UNL     1      -0.068   4.235   0.025  0.00  0.00    -0.233 NA
BRANCH  17  20
ATOM     20  C   UNL     1       2.824   5.483   0.003  0.00  0.00    +0.103 C 
ATOM     21  C   UNL     1       3.674   5.759   1.246  0.00  0.00    +0.032 C 
ATOM     22  C   UNL     1       3.648   5.771  -1.253  0.00  0.00    +0.032 C 
ENDBRANCH  17  20
ENDBRANCH   1  13
BRANCH   6  23
ATOM     23  C   UNL     1      -3.090  -5.179   0.004  0.00  0.00    +0.154 A 
ATOM     24  C   UNL     1      -4.404  -4.830   0.024  0.00  0.00    +0.052 A 
ATOM     25  C   UNL     1      -5.144  -6.031   0.019  0.00  0.00    +0.047 A 
ATOM     26  C   UNL     1      -4.254  -7.042   0.006  0.00  0.00    +0.123 A 
ATOM     27  O   UNL     1      -3.014  -6.523  -0.003  0.00  0.00    -0.457 OA
BRANCH  26  28
ATOM     28  C   UNL     1      -4.593  -8.510   0.003  0.00  0.00    +0.178 C 
BRANCH  28  29
ATOM     29  N   UNL     1      -4.715  -8.980  -1.379  0.00  0.00    -0.308 N 
ATOM     30  C   UNL     1      -5.014 -10.270  -1.629  0.00  0.00    +0.210 C 
ATOM     31  O   UNL     1      -5.183 -11.042  -0.709  0.00  0.00    -0.276 OA
ATOM     32  C   UNL     1      -5.140 -10.753  -3.051  0.00  0.00    +0.109 C 
ATOM     33  H   UNL     1      -4.561  -8.279  -2.214  0.00  0.00    +0.149 HD
ENDBRANCH  28  29
ENDBRANCH  26  28
ENDBRANCH   6  23
TORSDOF 5
