REMARK  Name = ZINC35992928
REMARK  11 active torsions:
REMARK  status: ('A' for Active; 'I' for Inactive)
REMARK    1  A    between atoms: C_1  and  C_2
REMARK    2  A    between atoms: C_2  and  N_3
REMARK    3  A    between atoms: C_4  and  C_23
REMARK    4  A    between atoms: C_5  and  C_18
REMARK    5  A    between atoms: C_6  and  C_11
REMARK    6  A    between atoms: C_18  and  O_20
REMARK    7  A    between atoms: O_20  and  C_21
REMARK    8  A    between atoms: C_21  and  C_22
REMARK    9  A    between atoms: C_23  and  N_24
REMARK   10  A    between atoms: N_27  and  S_30
REMARK   11  A    between atoms: S_30  and  C_33
REMARK                            x       y       z     vdW  Elec       q    Type
REMARK                         _______ _______ _______ _____ _____    ______ ____
ROOT
ATOM      1  N   UNL     1      -1.389  -0.480  -0.042  0.00  0.00    -0.258 N 
ATOM      2  C   UNL     1      -1.965  -0.622   1.188  0.00  0.00    +0.041 C 
ATOM      3  C   UNL     1      -3.213  -1.121   1.321  0.00  0.00    +0.080 C 
ATOM      4  C   UNL     1      -3.951  -1.517   0.058  0.00  0.00    +0.144 C 
ATOM      5  N   UNL     1      -3.243  -1.323  -1.218  0.00  0.00    -0.288 N 
ATOM      6  C   UNL     1      -1.998  -0.808  -1.188  0.00  0.00    +0.307 C 
ATOM      7  O   UNL     1      -1.405  -0.641  -2.237  0.00  0.00    -0.252 OA
ATOM      8  H   UNL     1      -3.663  -1.558  -2.060  0.00  0.00    +0.151 HD
ENDROOT
BRANCH   4   9
ATOM      9  C   UNL     1      -4.315  -2.975   0.170  0.00  0.00    -0.022 A 
ATOM     10  C   UNL     1      -3.366  -3.946  -0.092  0.00  0.00    +0.008 A 
ATOM     11  C   UNL     1      -3.697  -5.283   0.011  0.00  0.00    +0.038 A 
ATOM     12  C   UNL     1      -4.981  -5.652   0.377  0.00  0.00    +0.123 A 
ATOM     13  C   UNL     1      -5.931  -4.679   0.640  0.00  0.00    +0.038 A 
ATOM     14  C   UNL     1      -5.595  -3.342   0.541  0.00  0.00    +0.008 A 
ATOM     15  F   UNL     1      -5.306  -6.959   0.478  0.00  0.00    -0.205 F 
ENDBRANCH   4   9
BRANCH   1  17
ATOM     16  C   UNL     1      -0.104   1.592  -0.229  0.00  0.00    +0.025 C 
ATOM     17  C   UNL     1      -0.033   0.069  -0.111  0.00  0.00    +0.111 C 
ENDBRANCH   1  17
BRANCH   3  18
ATOM     18  C   UNL     1      -3.810  -1.270   2.594  0.00  0.00    +0.339 C 
ATOM     19  O   UNL     1      -3.824  -2.360   3.136  0.00  0.00    -0.245 OA
BRANCH  18  20
ATOM     20  O   UNL     1      -4.363  -0.204   3.209  0.00  0.00    -0.462 OA
BRANCH  20  21
ATOM     21  C   UNL     1      -4.948  -0.427   4.493  0.00  0.00    +0.229 C 
ATOM     22  C   UNL     1      -5.520   0.888   5.028  0.00  0.00    +0.048 C 
ENDBRANCH  20  21
ENDBRANCH  18  20
ENDBRANCH   3  18
BRANCH   2  23
ATOM     23  C   UNL     1      -1.195  -0.216   2.419  0.00  0.00    +0.136 C 
BRANCH  23  24
ATOM     24  N   UNL     1      -0.043  -1.111   2.593  0.00  0.00    -0.294 NA
ATOM     25  C   UNL     1      -0.482  -2.482   2.884  0.00  0.00    +0.102 C 
ATOM     26  C   UNL     1       0.733  -3.416   2.880  0.00  0.00    +0.125 C 
ATOM     27  N   UNL     1       1.740  -2.876   3.805  0.00  0.00    -0.174 NA
ATOM     28  C   UNL     1       2.131  -1.465   3.663  0.00  0.00    +0.125 C 
ATOM     29  C   UNL     1       0.861  -0.608   3.636  0.00  0.00    +0.102 C 
BRANCH  27  30
ATOM     30  S   UNL     1       2.417  -3.831   4.976  0.00  0.00    +0.061 S 
ATOM     31  O   UNL     1       2.873  -2.957   6.000  0.00  0.00    -0.153 OA
ATOM     32  O   UNL     1       1.494  -4.882   5.227  0.00  0.00    -0.153 OA
BRANCH  30  33
ATOM     33  C   UNL     1       3.852  -4.577   4.276  0.00  0.00    +0.105 A 
ATOM     34  C   UNL     1       3.751  -5.792   3.625  0.00  0.00    +0.028 A 
ATOM     35  C   UNL     1       4.876  -6.377   3.075  0.00  0.00    +0.002 A 
ATOM     36  C   UNL     1       6.102  -5.747   3.176  0.00  0.00    +0.000 A 
ATOM     37  C   UNL     1       6.203  -4.532   3.827  0.00  0.00    +0.002 A 
ATOM     38  C   UNL     1       5.077  -3.944   4.373  0.00  0.00    +0.028 A 
ENDBRANCH  30  33
ENDBRANCH  27  30
ENDBRANCH  23  24
ENDBRANCH   2  23
TORSDOF 9
