REMARK  Name = ZINC54431871
REMARK  10 active torsions:
REMARK  status: ('A' for Active; 'I' for Inactive)
REMARK    1  A    between atoms: C_1  and  C_2
REMARK    2  A    between atoms: C_5  and  C_29
REMARK    3  A    between atoms: N_8  and  C_10
REMARK    4  A    between atoms: C_10  and  C_11
REMARK    5  A    between atoms: C_10  and  C_12
REMARK    6  A    between atoms: C_10  and  C_13
REMARK    7  A    between atoms: C_13  and  N_14
REMARK    8  A    between atoms: N_17  and  C_18
REMARK    9  A    between atoms: C_20  and  C_25
REMARK   10  A    between atoms: N_27  and  C_28
REMARK                            x       y       z     vdW  Elec       q    Type
REMARK                         _______ _______ _______ _____ _____    ______ ____
ROOT
ATOM      1  N   UNL     1       3.510  -2.497   0.949  0.00  0.00    -0.300 N 
ATOM      2  C   UNL     1       4.800  -2.296   0.612  0.00  0.00    +0.304 C 
ATOM      3  O   UNL     1       5.593  -1.904   1.446  0.00  0.00    -0.253 OA
ATOM      4  N   UNL     1       5.210  -2.529  -0.651  0.00  0.00    -0.268 N 
ATOM      5  H   UNL     1       2.878  -2.809   0.283  0.00  0.00    +0.150 HD
ATOM      6  H   UNL     1       4.594  -2.902  -1.300  0.00  0.00    +0.156 HD
ENDROOT
BRANCH   4   7
ATOM      7  C   UNL     1       6.527  -2.231  -1.025  0.00  0.00    +0.054 A 
ATOM      8  C   UNL     1       7.545  -2.295  -0.087  0.00  0.00    +0.038 A 
ATOM      9  C   UNL     1       8.855  -1.998  -0.465  0.00  0.00    +0.039 A 
ATOM     10  C   UNL     1       9.132  -1.639  -1.786  0.00  0.00    +0.014 A 
ATOM     11  C   UNL     1       8.112  -1.578  -2.712  0.00  0.00    +0.022 A 
ATOM     12  C   UNL     1       6.813  -1.878  -2.339  0.00  0.00    +0.062 A 
ATOM     13 CL   UNL     1       5.537  -1.806  -3.514  0.00  0.00    -0.082 Cl
BRANCH   9  14
ATOM     14  C   UNL     1       9.946  -2.064   0.530  0.00  0.00    +0.244 C 
ATOM     15  O   UNL     1       9.703  -2.376   1.679  0.00  0.00    -0.270 OA
ATOM     16  N   UNL     1      11.210  -1.777   0.163  0.00  0.00    -0.314 N 
ATOM     17  C   UNL     1      12.292  -1.842   1.149  0.00  0.00    +0.128 C 
ATOM     18  H   UNL     1      11.405  -1.528  -0.754  0.00  0.00    +0.149 HD
ENDBRANCH   9  14
ENDBRANCH   4   7
BRANCH   1  19
ATOM     19  C   UNL     1       3.064  -2.243   2.321  0.00  0.00    +0.093 C 
BRANCH  19  20
ATOM     20  C   UNL     1       1.594  -2.643   2.461  0.00  0.00    -0.055 C 
ATOM     21  C   UNL     1       1.106  -2.306   3.871  0.00  0.00    -0.008 C 
ATOM     22  C   UNL     1       1.449  -4.147   2.218  0.00  0.00    -0.008 C 
BRANCH  20  28
ATOM     23  C   UNL     1       0.414   1.806   0.795  0.00  0.00    +0.005 C 
ATOM     24  C   UNL     1       0.213   0.303   0.592  0.00  0.00    -0.031 C 
ATOM     25  C   UNL     1      -1.277  -0.033   0.701  0.00  0.00    +0.003 C 
ATOM     26  C   UNL     1      -1.460  -1.548   0.574  0.00  0.00    -0.031 C 
ATOM     27  C   UNL     1      -0.627  -2.248   1.650  0.00  0.00    -0.075 C 
ATOM     28  N   UNL     1       0.790  -1.908   1.476  0.00  0.00    +0.384 N 
ATOM     29  C   UNL     1       0.985  -0.466   1.666  0.00  0.00    -0.075 C 
ATOM     30  C   UNL     1      -2.937  -1.902   0.759  0.00  0.00    +0.005 C 
ATOM     31  H   UNL     1       1.085  -2.165   0.545  0.00  0.00    -0.081 HD
ENDBRANCH  20  28
ENDBRANCH  19  20
ENDBRANCH   1  19
TORSDOF 5
