REMARK  Name = ZINC15624165
REMARK  7 active torsions:
REMARK  status: ('A' for Active; 'I' for Inactive)
REMARK    1  A    between atoms: C_4  and  C_7
REMARK    2  A    between atoms: C_7  and  N_67
REMARK    3  A    between atoms: C_10  and  N_13
REMARK    4  A    between atoms: C_14  and  C_16
REMARK    5  A    between atoms: C_16  and  C_17
REMARK    6  A    between atoms: C_17  and  N_18
REMARK    7  A    between atoms: N_21  and  C_22
REMARK                            x       y       z     vdW  Elec       q    Type
REMARK                         _______ _______ _______ _____ _____    ______ ____
ROOT
ATOM      1  C   UNL     1       1.739  -2.853  -3.583  0.00  0.00    +0.114 C 
ENDROOT
BRANCH   1   3
ATOM      2  N   UNL     1       1.081  -1.192  -1.871  0.00  0.00    -0.314 N 
ATOM      3  C   UNL     1       1.998  -2.073  -2.319  0.00  0.00    +0.215 C 
ATOM      4  O   UNL     1       3.031  -2.237  -1.706  0.00  0.00    -0.276 OA
ATOM      5  H   UNL     1       0.254  -1.061  -2.361  0.00  0.00    +0.149 HD
BRANCH   2   8
ATOM      6  C   UNL     1       1.405   1.899  -0.001  0.00  0.00    -0.077 C 
ATOM      7  C   UNL     1       2.070   0.885  -0.966  0.00  0.00    +0.002 C 
ATOM      8  C   UNL     1       1.333  -0.434  -0.643  0.00  0.00    +0.055 C 
ATOM      9  C   UNL     1       0.002  -0.004   0.002  0.00  0.00    -0.056 C 
ATOM     10  N   UNL     1       0.001   1.460  -0.003  0.00  0.00    +0.384 N 
ATOM     11  H   UNL     1      -0.469   1.803  -0.848  0.00  0.00    -0.081 HD
BRANCH  10  12
ATOM     12  C   UNL     1      -0.710   1.985   1.201  0.00  0.00    -0.043 C 
BRANCH  12  16
ATOM     13  C   UNL     1      -0.116   6.205   1.494  0.00  0.00    +0.000 A 
ATOM     14  C   UNL     1      -1.199   5.707   0.794  0.00  0.00    +0.000 A 
ATOM     15  C   UNL     1      -1.391   4.341   0.699  0.00  0.00    +0.002 A 
ATOM     16  C   UNL     1      -0.500   3.474   1.304  0.00  0.00    -0.064 A 
ATOM     17  C   UNL     1       0.580   3.973   2.009  0.00  0.00    +0.002 A 
ATOM     18  C   UNL     1       0.775   5.338   2.099  0.00  0.00    +0.000 A 
ENDBRANCH  12  16
ENDBRANCH  10  12
ENDBRANCH   2   8
ENDBRANCH   1   3
BRANCH   1  19
ATOM     19  C   UNL     1       2.927  -3.773  -3.866  0.00  0.00    +0.115 C 
BRANCH  19  20
ATOM     20  N   UNL     1       2.675  -4.532  -5.094  0.00  0.00    -0.299 N 
ATOM     21  C   UNL     1       3.592  -5.412  -5.543  0.00  0.00    +0.300 C 
ATOM     22  O   UNL     1       4.629  -5.576  -4.928  0.00  0.00    -0.253 OA
ATOM     23  N   UNL     1       3.361  -6.109  -6.673  0.00  0.00    -0.294 N 
ATOM     24  H   UNL     1       1.849  -4.400  -5.584  0.00  0.00    +0.150 HD
ATOM     25  H   UNL     1       2.534  -5.978  -7.163  0.00  0.00    +0.151 HD
BRANCH  23  26
ATOM     26  C   UNL     1       4.357  -7.066  -7.160  0.00  0.00    +0.037 C 
ATOM     27  C   UNL     1       4.590  -8.145  -6.101  0.00  0.00    +0.029 C 
ATOM     28  C   UNL     1       5.631  -9.144  -6.610  0.00  0.00    -0.008 C 
ATOM     29  C   UNL     1       5.125  -9.795  -7.898  0.00  0.00    +0.007 C 
ATOM     30  C   UNL     1       4.892  -8.716  -8.958  0.00  0.00    -0.008 C 
ATOM     31  C   UNL     1       3.852  -7.717  -8.449  0.00  0.00    +0.029 C 
ATOM     32  C   UNL     1       6.207  -7.985  -9.238  0.00  0.00    +0.007 C 
ATOM     33  C   UNL     1       6.713  -7.333  -7.949  0.00  0.00    -0.008 C 
ATOM     34  C   UNL     1       6.945  -8.412  -6.890  0.00  0.00    +0.007 C 
ATOM     35  C   UNL     1       5.672  -6.335  -7.440  0.00  0.00    +0.029 C 
ENDBRANCH  23  26
ENDBRANCH  19  20
ENDBRANCH   1  19
TORSDOF 7
