REMARK  Name = ZINC16116877
REMARK  9 active torsions:
REMARK  status: ('A' for Active; 'I' for Inactive)
REMARK    1  A    between atoms: C_1  and  C_2
REMARK    2  A    between atoms: C_2  and  C_3
REMARK    3  A    between atoms: C_2  and  C_4
REMARK    4  A    between atoms: C_4  and  N_5
REMARK    5  A    between atoms: C_15  and  S_16
REMARK    6  A    between atoms: S_16  and  C_17
REMARK    7  A    between atoms: C_17  and  C_18
REMARK    8  A    between atoms: C_21  and  C_27
REMARK    9  A    between atoms: C_23  and  N_24
REMARK                            x       y       z     vdW  Elec       q    Type
REMARK                         _______ _______ _______ _____ _____    ______ ____
ROOT
ATOM      1  N   UNL     1       0.361  -2.121  -0.933  0.00  0.00    -0.287 N 
ATOM      2  C   UNL     1       1.338  -2.892  -0.402  0.00  0.00    +0.262 A 
ATOM      3  O   UNL     1       2.189  -2.418   0.328  0.00  0.00    -0.267 OA
ATOM      4  C   UNL     1       1.331  -4.323  -0.734  0.00  0.00    +0.066 A 
ATOM      5  C   UNL     1       2.292  -5.200  -0.232  0.00  0.00    +0.030 A 
ATOM      6  C   UNL     1       2.241  -6.532  -0.582  0.00  0.00    +0.019 A 
ATOM      7  C   UNL     1       1.242  -7.003  -1.427  0.00  0.00    +0.017 A 
ATOM      8  C   UNL     1       0.291  -6.161  -1.928  0.00  0.00    +0.029 A 
ATOM      9  C   UNL     1       0.317  -4.805  -1.593  0.00  0.00    +0.079 A 
ATOM     10  N   UNL     1      -0.608  -3.939  -2.070  0.00  0.00    -0.223 NA
ATOM     11  C   UNL     1      -0.584  -2.667  -1.755  0.00  0.00    +0.172 A 
ATOM     12 BR   UNL     1       3.539  -7.729   0.093  0.00  0.00    -0.050 Br
ENDROOT
BRANCH   1  13
ATOM     13  C   UNL     1       0.320  -0.689  -0.630  0.00  0.00    +0.130 C 
BRANCH  13  15
ATOM     14  C   UNL     1      -0.681   1.047   0.863  0.00  0.00    +0.009 C 
ATOM     15  C   UNL     1      -0.534  -0.456   0.618  0.00  0.00    +0.003 C 
ATOM     16  C   UNL     1       0.141  -1.107   1.827  0.00  0.00    +0.009 C 
ENDBRANCH  13  15
ENDBRANCH   1  13
BRANCH  11  17
ATOM     17  S   UNL     1      -1.827  -1.612  -2.422  0.00  0.00    -0.083 S 
BRANCH  17  18
ATOM     18  C   UNL     1      -2.769  -2.813  -3.395  0.00  0.00    +0.114 C 
BRANCH  18  19
ATOM     19  C   UNL     1      -3.918  -2.117  -4.077  0.00  0.00    -0.007 A 
ATOM     20  C   UNL     1      -3.791  -1.703  -5.391  0.00  0.00    +0.007 A 
ATOM     21  C   UNL     1      -4.839  -1.065  -6.021  0.00  0.00    +0.013 A 
ATOM     22  C   UNL     1      -6.030  -0.838  -5.331  0.00  0.00    +0.039 A 
ATOM     23  C   UNL     1      -6.152  -1.258  -4.005  0.00  0.00    +0.046 A 
ATOM     24  C   UNL     1      -5.098  -1.899  -3.388  0.00  0.00    +0.131 A 
BRANCH  22  25
ATOM     25  C   UNL     1      -7.158  -0.155  -6.000  0.00  0.00    +0.242 C 
ATOM     26  O   UNL     1      -8.194   0.042  -5.396  0.00  0.00    -0.270 OA
ATOM     27  N   UNL     1      -7.037   0.250  -7.280  0.00  0.00    -0.325 N 
ATOM     28  H   UNL     1      -6.210   0.093  -7.762  0.00  0.00    +0.145 HD
ATOM     29  H   UNL     1      -7.777   0.698  -7.719  0.00  0.00    +0.145 HD
ENDBRANCH  22  25
BRANCH  24  30
ATOM     30  N   UNL     1      -5.228  -2.350  -1.985  0.00  0.00    +0.057 N 
ATOM     31  O   UNL     1      -6.300  -2.262  -1.413  0.00  0.00    -0.126 OA
ATOM     32  O   UNL     1      -4.263  -2.811  -1.401  0.00  0.00    -0.126 OA
ENDBRANCH  24  30
ENDBRANCH  18  19
ENDBRANCH  17  18
ENDBRANCH  11  17
TORSDOF 7
