REMARK  Name = ZINC02823567
REMARK  8 active torsions:
REMARK  status: ('A' for Active; 'I' for Inactive)
REMARK    1  A    between atoms: C_1  and  C_2
REMARK    2  A    between atoms: C_2  and  C_3
REMARK    3  A    between atoms: C_3  and  S_4
REMARK    4  A    between atoms: S_4  and  C_5
REMARK    5  A    between atoms: C_18  and  C_21
REMARK    6  A    between atoms: C_24  and  C_27
REMARK    7  A    between atoms: C_27  and  O_29
REMARK    8  A    between atoms: O_29  and  C_30
REMARK                            x       y       z     vdW  Elec       q    Type
REMARK                         _______ _______ _______ _____ _____    ______ ____
ROOT
ATOM      1  C   UNL     1      -0.799 -10.250  -2.726  0.00  0.00    +0.212 A 
ATOM      2  N   UNL     1      -0.523  -8.958  -2.877  0.00  0.00    -0.184 NA
ATOM      3  C   UNL     1      -0.632  -8.148  -1.838  0.00  0.00    +0.248 A 
ATOM      4  C   UNL     1      -1.035  -8.687  -0.596  0.00  0.00    +0.156 A 
ATOM      5  N   UNL     1      -1.299  -9.982  -0.513  0.00  0.00    -0.141 NA
ATOM      6  N   UNL     1      -1.182 -10.736  -1.552  0.00  0.00    -0.122 NA
ATOM      7  C   UNL     1      -1.147  -7.802   0.582  0.00  0.00    +0.029 A 
ATOM      8  C   UNL     1      -2.266  -7.826   1.406  0.00  0.00    +0.027 A 
ATOM      9  C   UNL     1      -2.326  -6.992   2.506  0.00  0.00    +0.019 A 
ATOM     10  C   UNL     1      -1.278  -6.133   2.793  0.00  0.00    +0.017 A 
ATOM     11  C   UNL     1      -0.161  -6.096   1.978  0.00  0.00    +0.025 A 
ATOM     12  C   UNL     1      -0.089  -6.919   0.870  0.00  0.00    +0.040 A 
ATOM     13  N   UNL     1       1.007  -6.882   0.005  0.00  0.00    -0.305 N 
ATOM     14  C   UNL     1       0.827  -6.343  -1.340  0.00  0.00    +0.294 C 
ATOM     15  O   UNL     1      -0.369  -6.824  -1.944  0.00  0.00    -0.449 OA
ATOM     16 BR   UNL     1      -3.849  -7.022   3.627  0.00  0.00    -0.050 Br
ATOM     17  H   UNL     1       1.873  -7.208   0.294  0.00  0.00    +0.150 HD
ENDROOT
BRANCH  14  18
ATOM     18  C   UNL     1       0.768  -4.840  -1.263  0.00  0.00    +0.011 A 
ATOM     19  C   UNL     1       1.570  -4.165  -0.360  0.00  0.00    +0.010 A 
ATOM     20  C   UNL     1       1.522  -2.788  -0.284  0.00  0.00    +0.015 A 
ATOM     21  C   UNL     1       0.661  -2.076  -1.122  0.00  0.00    +0.059 A 
ATOM     22  C   UNL     1      -0.150  -2.764  -2.027  0.00  0.00    +0.015 A 
ATOM     23  C   UNL     1      -0.087  -4.140  -2.096  0.00  0.00    +0.010 A 
BRANCH  21  24
ATOM     24  C   UNL     1       0.603  -0.602  -1.047  0.00  0.00    +0.339 C 
ATOM     25  O   UNL     1       1.306  -0.006  -0.255  0.00  0.00    -0.245 OA
BRANCH  24  26
ATOM     26  O   UNL     1      -0.228   0.082  -1.856  0.00  0.00    -0.464 OA
ATOM     27  C   UNL     1      -0.232   1.529  -1.727  0.00  0.00    +0.280 C 
ENDBRANCH  24  26
ENDBRANCH  21  24
ENDBRANCH  14  18
BRANCH   1  28
ATOM     28  S   UNL     1      -0.654 -11.335  -4.107  0.00  0.00    -0.084 S 
BRANCH  28  29
ATOM     29  C   UNL     1      -1.136 -12.898  -3.331  0.00  0.00    +0.077 C 
BRANCH  29  31
ATOM     30  C   UNL     1      -1.492 -15.341  -3.714  0.00  0.00    +0.004 C 
ATOM     31  C   UNL     1      -1.084 -14.020  -4.370  0.00  0.00    +0.008 C 
ENDBRANCH  29  31
ENDBRANCH  28  29
ENDBRANCH   1  28
TORSDOF 6
