REMARK  Name = ZINC60238861
REMARK  10 active torsions:
REMARK  status: ('A' for Active; 'I' for Inactive)
REMARK    1  A    between atoms: C_1  and  C_2
REMARK    2  A    between atoms: C_5  and  C_8
REMARK    3  A    between atoms: C_8  and  C_10
REMARK    4  A    between atoms: C_8  and  N_28
REMARK    5  A    between atoms: C_10  and  N_11
REMARK    6  A    between atoms: C_12  and  C_14
REMARK    7  A    between atoms: C_14  and  C_16
REMARK    8  A    between atoms: C_14  and  N_17
REMARK    9  A    between atoms: C_18  and  C_20
REMARK   10  A    between atoms: C_21  and  C_22
REMARK                            x       y       z     vdW  Elec       q    Type
REMARK                         _______ _______ _______ _____ _____    ______ ____
ROOT
ATOM      1  N   UNL     1       1.463  -6.250   0.253  0.00  0.00    -0.315 N 
ATOM      2  C   UNL     1       2.620  -6.918   0.429  0.00  0.00    +0.233 C 
ATOM      3  O   UNL     1       3.675  -6.322   0.399  0.00  0.00    -0.274 OA
ATOM      4  H   UNL     1       0.619  -6.726   0.276  0.00  0.00    +0.149 HD
ENDROOT
BRANCH   2   5
ATOM      5  C   UNL     1       2.601  -8.407   0.663  0.00  0.00    +0.156 C 
ATOM      6  C   UNL     1       1.950  -9.104  -0.533  0.00  0.00    +0.038 C 
BRANCH   5   7
ATOM      7  N   UNL     1       3.974  -8.893   0.824  0.00  0.00    -0.301 N 
ATOM      8  C   UNL     1       4.211 -10.024   1.518  0.00  0.00    +0.237 C 
ATOM      9  O   UNL     1       3.285 -10.641   2.011  0.00  0.00    -0.271 OA
ATOM     10  H   UNL     1       4.711  -8.401   0.431  0.00  0.00    +0.150 HD
BRANCH   8  11
ATOM     11  C   UNL     1       5.583 -10.510   1.679  0.00  0.00    +0.068 C 
ATOM     12  C   UNL     1       5.820 -11.641   2.373  0.00  0.00    +0.013 C 
BRANCH  12  13
ATOM     13  C   UNL     1       7.199 -12.130   2.535  0.00  0.00    -0.025 A 
ATOM     14  C   UNL     1       8.266 -11.421   1.975  0.00  0.00    +0.008 A 
ATOM     15  C   UNL     1       9.555 -11.885   2.130  0.00  0.00    +0.001 A 
ATOM     16  C   UNL     1       9.794 -13.049   2.839  0.00  0.00    +0.000 A 
ATOM     17  C   UNL     1       8.744 -13.757   3.396  0.00  0.00    +0.001 A 
ATOM     18  C   UNL     1       7.449 -13.303   3.254  0.00  0.00    +0.008 A 
ENDBRANCH  12  13
ENDBRANCH   8  11
ENDBRANCH   5   7
ENDBRANCH   2   5
BRANCH   1  19
ATOM     19  C   UNL     1       1.481  -4.803   0.025  0.00  0.00    +0.093 C 
BRANCH  19  20
ATOM     20  C   UNL     1       0.062  -4.315  -0.273  0.00  0.00    -0.020 C 
BRANCH  20  25
ATOM     21  C   UNL     1      -1.752  -6.590  -5.266  0.00  0.00    +0.044 C 
ATOM     22  C   UNL     1      -1.279  -5.997  -3.964  0.00  0.00    -0.050 A 
ATOM     23  C   UNL     1      -1.683  -6.552  -2.764  0.00  0.00    +0.003 A 
ATOM     24  C   UNL     1      -1.249  -6.008  -1.570  0.00  0.00    +0.002 A 
ATOM     25  C   UNL     1      -0.411  -4.909  -1.575  0.00  0.00    -0.059 A 
ATOM     26  C   UNL     1      -0.006  -4.354  -2.775  0.00  0.00    +0.002 A 
ATOM     27  C   UNL     1      -0.437  -4.901  -3.969  0.00  0.00    +0.003 A 
ENDBRANCH  20  25
BRANCH  20  28
ATOM     28  N   UNL     1       0.058  -2.850  -0.373  0.00  0.00    +0.385 N 
ATOM     29  C   UNL     1      -1.317  -2.358  -0.648  0.00  0.00    -0.078 C 
ATOM     30  C   UNL     1      -1.268  -0.885  -0.172  0.00  0.00    -0.020 C 
ATOM     31  C   UNL     1      -0.372  -0.957   1.086  0.00  0.00    -0.020 C 
ATOM     32  C   UNL     1       0.450  -2.249   0.920  0.00  0.00    -0.078 C 
ATOM     33  H   UNL     1       0.688  -2.549  -1.102  0.00  0.00    -0.081 HD
ENDBRANCH  20  28
ENDBRANCH  19  20
ENDBRANCH   1  19
TORSDOF 8
