REMARK  Name = ZINC12599502
REMARK  9 active torsions:
REMARK  status: ('A' for Active; 'I' for Inactive)
REMARK    1  A    between atoms: C_1  and  C_2
REMARK    2  A    between atoms: C_2  and  C_4
REMARK    3  A    between atoms: C_2  and  N_13
REMARK    4  A    between atoms: C_14  and  C_16
REMARK    5  A    between atoms: C_16  and  C_18
REMARK    6  A    between atoms: C_16  and  N_23
REMARK    7  A    between atoms: C_18  and  C_19
REMARK    8  A    between atoms: C_19  and  C_20
REMARK    9  A    between atoms: C_24  and  C_26
REMARK                            x       y       z     vdW  Elec       q    Type
REMARK                         _______ _______ _______ _____ _____    ______ ____
ROOT
ATOM      1  C   UNL     1       0.313  -1.468   3.526  0.00  0.00    +0.160 C 
ENDROOT
BRANCH   1   3
ATOM      2  N   UNL     1       0.515  -0.707   1.181  0.00  0.00    -0.307 N 
ATOM      3  C   UNL     1      -0.214  -0.744   2.313  0.00  0.00    +0.234 C 
ATOM      4  O   UNL     1      -1.295  -0.195   2.357  0.00  0.00    -0.274 OA
ATOM      5  H   UNL     1       1.379  -1.147   1.145  0.00  0.00    +0.149 HD
BRANCH   2   7
ATOM      6  C   UNL     1       0.402   1.471   0.074  0.00  0.00    +0.033 C 
ATOM      7  C   UNL     1       0.002  -0.004   0.002  0.00  0.00    +0.102 C 
BRANCH   7   8
ATOM      8  C   UNL     1       0.584  -0.621  -1.244  0.00  0.00    -0.006 A 
ATOM      9  C   UNL     1       1.812  -1.254  -1.193  0.00  0.00    +0.046 A 
ATOM     10  C   UNL     1       2.346  -1.821  -2.337  0.00  0.00    +0.142 A 
ATOM     11  C   UNL     1       1.649  -1.755  -3.533  0.00  0.00    +0.077 A 
ATOM     12  C   UNL     1       0.420  -1.122  -3.582  0.00  0.00    +0.043 A 
ATOM     13  C   UNL     1      -0.115  -0.560  -2.436  0.00  0.00    +0.047 A 
ATOM     14 CL   UNL     1      -1.660   0.229  -2.497  0.00  0.00    -0.083 Cl
ATOM     15 CL   UNL     1       2.318  -2.466  -4.968  0.00  0.00    -0.081 Cl
ATOM     16  F   UNL     1       3.546  -2.439  -2.287  0.00  0.00    -0.204 F 
ENDBRANCH   7   8
ENDBRANCH   2   7
ENDBRANCH   1   3
BRANCH   1  17
ATOM     17  N   UNL     1      -0.658  -1.363   4.618  0.00  0.00    -0.300 N 
ATOM     18  C   UNL     1      -0.247  -1.464   5.897  0.00  0.00    +0.245 C 
ATOM     19  O   UNL     1       0.930  -1.643   6.145  0.00  0.00    -0.270 OA
ATOM     20  H   UNL     1      -1.597  -1.220   4.420  0.00  0.00    +0.150 HD
BRANCH  18  21
ATOM     21  C   UNL     1      -1.226  -1.359   6.999  0.00  0.00    +0.037 A 
ATOM     22  C   UNL     1      -2.577  -1.147   6.717  0.00  0.00    +0.014 A 
ATOM     23  C   UNL     1      -3.488  -1.056   7.749  0.00  0.00    +0.021 A 
ATOM     24  C   UNL     1      -3.062  -1.161   9.063  0.00  0.00    +0.041 A 
ATOM     25  C   UNL     1      -1.722  -1.364   9.349  0.00  0.00    +0.021 A 
ATOM     26  C   UNL     1      -0.803  -1.463   8.325  0.00  0.00    +0.014 A 
ATOM     27 CL   UNL     1      -4.213  -1.037  10.357  0.00  0.00    -0.084 Cl
ENDBRANCH  18  21
ENDBRANCH   1  17
BRANCH   1  28
ATOM     28  C   UNL     1       0.537  -2.942   3.183  0.00  0.00    +0.041 C 
BRANCH  28  29
ATOM     29  C   UNL     1       1.188  -3.649   4.373  0.00  0.00    +0.098 C 
BRANCH  29  30
ATOM     30  C   UNL     1       1.409  -5.101   4.035  0.00  0.00    +0.211 C 
ATOM     31  O   UNL     1       1.079  -5.528   2.949  0.00  0.00    -0.276 OA
ATOM     32  N   UNL     1       1.975  -5.925   4.939  0.00  0.00    -0.329 N 
ATOM     33  H   UNL     1       2.239  -5.583   5.808  0.00  0.00    +0.145 HD
ATOM     34  H   UNL     1       2.117  -6.859   4.721  0.00  0.00    +0.145 HD
ENDBRANCH  29  30
ENDBRANCH  28  29
ENDBRANCH   1  28
TORSDOF 8
