REMARK  Name = ZINC34887474
REMARK  9 active torsions:
REMARK  status: ('A' for Active; 'I' for Inactive)
REMARK    1  A    between atoms: C_1  and  C_2
REMARK    2  A    between atoms: C_7  and  N_8
REMARK    3  A    between atoms: C_9  and  C_11
REMARK    4  A    between atoms: C_11  and  C_13
REMARK    5  A    between atoms: C_11  and  O_14
REMARK    6  A    between atoms: O_14  and  C_15
REMARK    7  A    between atoms: C_15  and  C_17
REMARK    8  A    between atoms: C_20  and  O_36
REMARK    9  A    between atoms: C_24  and  C_26
REMARK                            x       y       z     vdW  Elec       q    Type
REMARK                         _______ _______ _______ _____ _____    ______ ____
ROOT
ATOM      1  C   UNL     1       0.515  -1.289   8.245  0.00  0.00    +0.187 C 
ATOM      2  C   UNL     1       1.475  -2.421   7.820  0.00  0.00    +0.066 C 
ATOM      3  C   UNL     1       2.320  -2.657   9.100  0.00  0.00    +0.134 C 
ATOM      4  C   UNL     1       2.441  -1.220   9.664  0.00  0.00    +0.140 C 
ATOM      5  N   UNL     1       1.133  -0.592   9.382  0.00  0.00    -0.285 N 
ATOM      6  C   UNL     1       0.596   0.446  10.053  0.00  0.00    +0.223 C 
ATOM      7  O   UNL     1      -0.523   0.828   9.784  0.00  0.00    -0.275 OA
ENDROOT
BRANCH   6   8
ATOM      8  C   UNL     1       1.385   1.131  11.139  0.00  0.00    +0.048 C 
ATOM      9  C   UNL     1       2.778   1.484  10.611  0.00  0.00    +0.019 C 
ATOM     10  C   UNL     1       3.579   2.180  11.713  0.00  0.00    -0.009 C 
ATOM     11  C   UNL     1       2.856   3.459  12.139  0.00  0.00    +0.007 C 
ATOM     12  C   UNL     1       1.464   3.107  12.666  0.00  0.00    -0.009 C 
ATOM     13  C   UNL     1       0.662   2.411  11.565  0.00  0.00    +0.019 C 
ATOM     14  C   UNL     1       1.596   2.171  13.870  0.00  0.00    +0.007 C 
ATOM     15  C   UNL     1       2.319   0.892  13.444  0.00  0.00    -0.009 C 
ATOM     16  C   UNL     1       3.711   1.244  12.916  0.00  0.00    +0.007 C 
ATOM     17  C   UNL     1       1.517   0.196  12.342  0.00  0.00    +0.019 C 
ENDBRANCH   6   8
BRANCH   1  18
ATOM     18  C   UNL     1       0.318  -0.328   7.101  0.00  0.00    +0.329 C 
ATOM     19  O   UNL     1       0.652   0.827   7.218  0.00  0.00    -0.249 OA
BRANCH  18  20
ATOM     20  O   UNL     1      -0.228  -0.755   5.952  0.00  0.00    -0.451 OA
BRANCH  20  21
ATOM     21  C   UNL     1      -0.385   0.210   4.909  0.00  0.00    +0.259 C 
ATOM     22  C   UNL     1      -1.753   0.883   5.039  0.00  0.00    +0.062 C 
BRANCH  21  24
ATOM     23  N   UNL     1      -0.305   0.253   2.437  0.00  0.00    -0.282 N 
ATOM     24  C   UNL     1      -0.287  -0.476   3.571  0.00  0.00    +0.258 C 
ATOM     25  O   UNL     1      -0.193  -1.684   3.514  0.00  0.00    -0.271 OA
ATOM     26  H   UNL     1      -0.314   1.222   2.484  0.00  0.00    +0.155 HD
BRANCH  23  33
ATOM     27  C   UNL     1      -1.771   1.453   0.315  0.00  0.00    +0.045 C 
ATOM     28  C   UNL     1      -1.014   0.163   0.130  0.00  0.00    -0.029 A 
ATOM     29  C   UNL     1      -1.013  -0.468  -1.098  0.00  0.00    +0.006 A 
ATOM     30  C   UNL     1      -0.319  -1.651  -1.269  0.00  0.00    +0.020 A 
ATOM     31  C   UNL     1       0.378  -2.207  -0.210  0.00  0.00    +0.043 A 
ATOM     32  C   UNL     1       0.382  -1.579   1.022  0.00  0.00    +0.043 A 
ATOM     33  C   UNL     1      -0.311  -0.388   1.194  0.00  0.00    +0.038 A 
ATOM     34 CL   UNL     1       1.249  -3.692  -0.429  0.00  0.00    -0.083 Cl
ENDBRANCH  23  33
ENDBRANCH  21  24
ENDBRANCH  20  21
ENDBRANCH  18  20
ENDBRANCH   1  18
BRANCH   3  35
ATOM     35  O   UNL     1       1.633  -3.512  10.016  0.00  0.00    -0.390 OA
ATOM     36  H   UNL     1       2.123  -3.689  10.831  0.00  0.00    +0.210 HD
ENDBRANCH   3  35
TORSDOF 7
