REMARK  Name = ZINC18518591
REMARK  8 active torsions:
REMARK  status: ('A' for Active; 'I' for Inactive)
REMARK    1  A    between atoms: C_1  and  C_2
REMARK    2  A    between atoms: C_2  and  C_4
REMARK    3  A    between atoms: C_2  and  S_19
REMARK    4  A    between atoms: C_16  and  C_17
REMARK    5  A    between atoms: C_16  and  C_18
REMARK    6  A    between atoms: S_19  and  C_20
REMARK    7  A    between atoms: C_23  and  C_28
REMARK    8  A    between atoms: N_24  and  C_25
REMARK                            x       y       z     vdW  Elec       q    Type
REMARK                         _______ _______ _______ _____ _____    ______ ____
ROOT
ATOM      1  S   UNL     1       1.541   3.850   1.073  0.00  0.00    -0.073 S 
ENDROOT
BRANCH   1   2
ATOM      2  C   UNL     1       2.993   3.104   0.410  0.00  0.00    +0.193 A 
ATOM      3  N   UNL     1       4.161   3.682   0.251  0.00  0.00    -0.122 NA
ATOM      4  N   UNL     1       4.999   2.852  -0.259  0.00  0.00    -0.128 NA
ATOM      5  C   UNL     1       4.419   1.689  -0.451  0.00  0.00    +0.167 A 
ATOM      6  N   UNL     1       3.114   1.816  -0.034  0.00  0.00    -0.299 N 
BRANCH   5   7
ATOM      7  C   UNL     1       5.047   0.476  -1.013  0.00  0.00    +0.044 A 
ATOM      8  C   UNL     1       4.423  -0.687  -1.332  0.00  0.00    +0.095 A 
ATOM      9  N   UNL     1       5.333  -1.577  -1.825  0.00  0.00    -0.360 N 
ATOM     10  H   UNL     1       5.125  -2.477  -2.121  0.00  0.00    +0.165 HD
ATOM     11  C   UNL     1       6.591  -1.013  -1.841  0.00  0.00    +0.047 A 
ATOM     12  C   UNL     1       6.471   0.295  -1.341  0.00  0.00    +0.010 A 
ATOM     13  C   UNL     1       7.599   1.107  -1.236  0.00  0.00    +0.011 A 
ATOM     14  C   UNL     1       8.826   0.625  -1.634  0.00  0.00    +0.001 A 
ATOM     15  C   UNL     1       8.944  -0.665  -2.133  0.00  0.00    +0.002 A 
ATOM     16  C   UNL     1       7.839  -1.481  -2.237  0.00  0.00    +0.026 A 
ENDBRANCH   5   7
BRANCH   6  17
ATOM     17  C   UNL     1       2.073   0.786  -0.056  0.00  0.00    +0.091 C 
ATOM     18  C   UNL     1       0.824   1.025   0.795  0.00  0.00    +0.027 C 
ATOM     19  C   UNL     1       0.745   1.137  -0.730  0.00  0.00    +0.027 C 
ENDBRANCH   6  17
ENDBRANCH   1   2
BRANCH   1  21
ATOM     20  C   UNL     1       2.542   6.198   0.101  0.00  0.00    +0.029 C 
ATOM     21  C   UNL     1       2.169   5.512   1.417  0.00  0.00    +0.137 C 
BRANCH  21  22
ATOM     22  C   UNL     1       1.105   6.316   2.119  0.00  0.00    +0.234 C 
ATOM     23  O   UNL     1       0.017   5.826   2.332  0.00  0.00    -0.274 OA
ATOM     24  N   UNL     1       1.364   7.579   2.510  0.00  0.00    -0.255 N 
ATOM     25  C   UNL     1       0.334   8.428   2.947  0.00  0.00    +0.059 A 
ATOM     26  C   UNL     1      -0.956   8.291   2.466  0.00  0.00    +0.025 A 
ATOM     27  C   UNL     1      -1.948   9.145   2.913  0.00  0.00    +0.002 A 
ATOM     28  C   UNL     1      -1.653  10.132   3.836  0.00  0.00    +0.002 A 
ATOM     29  C   UNL     1      -0.362  10.269   4.331  0.00  0.00    +0.025 A 
ATOM     30  C   UNL     1       0.638   9.418   3.886  0.00  0.00    +0.055 A 
ATOM     31  N   UNL     1       1.947   9.541   4.362  0.00  0.00    -0.282 N 
ATOM     32  C   UNL     1       2.967   8.918   3.742  0.00  0.00    +0.241 C 
ATOM     33  O   UNL     1       4.088   9.004   4.199  0.00  0.00    -0.273 OA
ATOM     34  C   UNL     1       2.733   8.116   2.488  0.00  0.00    +0.113 C 
ATOM     35  C   UNL     1       3.734   6.960   2.425  0.00  0.00    +0.042 C 
ATOM     36  C   UNL     1       2.910   9.016   1.264  0.00  0.00    +0.042 C 
ATOM     37  H   UNL     1       2.123  10.082   5.149  0.00  0.00    +0.155 HD
ENDBRANCH  21  22
ENDBRANCH   1  21
TORSDOF 5
