REMARK  Name = ZINC28000499
REMARK  10 active torsions:
REMARK  status: ('A' for Active; 'I' for Inactive)
REMARK    1  A    between atoms: C_1  and  S_2
REMARK    2  A    between atoms: S_2  and  N_5
REMARK    3  A    between atoms: N_5  and  C_6
REMARK    4  A    between atoms: C_7  and  C_29
REMARK    5  A    between atoms: N_10  and  C_13
REMARK    6  A    between atoms: C_13  and  C_14
REMARK    7  A    between atoms: N_16  and  C_17
REMARK    8  A    between atoms: C_23  and  O_25
REMARK    9  A    between atoms: C_29  and  C_30
REMARK   10  A    between atoms: C_30  and  C_31
REMARK                            x       y       z     vdW  Elec       q    Type
REMARK                         _______ _______ _______ _____ _____    ______ ____
ROOT
ATOM      1  C   UNL     1       1.699  -0.408  -1.152  0.00  0.00    +0.115 A 
ATOM      2  C   UNL     1       2.305   0.049  -0.014  0.00  0.00    -0.018 A 
ATOM      3  C   UNL     1       3.653   0.436  -0.064  0.00  0.00    +0.023 A 
ATOM      4  C   UNL     1       4.338   0.355  -1.227  0.00  0.00    +0.090 A 
ATOM      5  N   UNL     1       3.736  -0.099  -2.360  0.00  0.00    -0.305 N 
ATOM      6  C   UNL     1       2.446  -0.484  -2.348  0.00  0.00    +0.274 A 
ATOM      7  O   UNL     1       1.921  -0.895  -3.371  0.00  0.00    -0.266 OA
ENDROOT
BRANCH   1   8
ATOM      8  N   UNL     1       0.355  -0.801  -1.129  0.00  0.00    -0.215 N 
ATOM      9  H   UNL     1      -0.152  -0.749  -0.304  0.00  0.00    +0.173 HD
BRANCH   8  11
ATOM     10  C   UNL     1       0.512  -2.888  -2.917  0.00  0.00    +0.218 C 
ATOM     11  S   UNL     1      -0.369  -1.355  -2.512  0.00  0.00    +0.040 S 
ATOM     12  O   UNL     1      -0.094  -0.360  -3.489  0.00  0.00    -0.155 OA
ATOM     13  O   UNL     1      -1.706  -1.646  -2.130  0.00  0.00    -0.155 OA
ENDBRANCH   8  11
ENDBRANCH   1   8
BRANCH   5  14
ATOM     14  C   UNL     1       4.503  -0.175  -3.606  0.00  0.00    +0.220 C 
BRANCH  14  15
ATOM     15  C   UNL     1       5.159  -1.528  -3.710  0.00  0.00    +0.233 C 
ATOM     16  O   UNL     1       5.002  -2.347  -2.830  0.00  0.00    -0.274 OA
ATOM     17  N   UNL     1       5.921  -1.827  -4.781  0.00  0.00    -0.307 N 
ATOM     18  H   UNL     1       6.047  -1.171  -5.485  0.00  0.00    +0.149 HD
BRANCH  17  19
ATOM     19  C   UNL     1       6.559  -3.142  -4.882  0.00  0.00    +0.120 C 
ATOM     20  C   UNL     1       5.573  -4.142  -5.490  0.00  0.00    +0.028 C 
ATOM     21  C   UNL     1       6.227  -5.523  -5.566  0.00  0.00    +0.021 C 
ATOM     22  C   UNL     1       7.461  -5.450  -6.471  0.00  0.00    +0.110 C 
ATOM     23  N   UNL     1       8.348  -4.389  -5.975  0.00  0.00    -0.278 N 
ATOM     24  C   UNL     1       7.797  -3.042  -5.778  0.00  0.00    +0.225 C 
ATOM     25  C   UNL     1       9.663  -4.651  -5.702  0.00  0.00    +0.153 C 
ATOM     26  N   UNL     1      10.257  -4.064  -4.664  0.00  0.00    -0.375 N 
ATOM     27  N   UNL     1      10.349  -5.493  -6.473  0.00  0.00    -0.333 N 
ATOM     28  H   UNL     1       9.750  -3.474  -4.085  0.00  0.00    +0.158 HD
ATOM     29  H   UNL     1       9.942  -5.857  -7.275  0.00  0.00    +0.145 HD
ATOM     30  H   UNL     1      11.255  -5.741  -6.233  0.00  0.00    +0.145 HD
ATOM     31  H   UNL     1      11.197  -4.227  -4.488  0.00  0.00    +0.158 HD
BRANCH  24  32
ATOM     32  O   UNL     1       8.776  -2.210  -5.151  0.00  0.00    -0.372 OA
ATOM     33  H   UNL     1       9.545  -2.021  -5.706  0.00  0.00    +0.212 HD
ENDBRANCH  24  32
ENDBRANCH  17  19
ENDBRANCH  14  15
ENDBRANCH   5  14
BRANCH   2  34
ATOM     34  C   UNL     1       1.535   0.137   1.278  0.00  0.00    +0.037 C 
BRANCH  34  35
ATOM     35  C   UNL     1       1.748  -1.144   2.087  0.00  0.00    +0.008 C 
BRANCH  35  36
ATOM     36  C   UNL     1       0.867  -1.111   3.337  0.00  0.00    -0.011 C 
ATOM     37  C   UNL     1       1.324   0.027   4.252  0.00  0.00    +0.003 C 
ATOM     38  C   UNL     1       0.443   0.060   5.503  0.00  0.00    +0.000 C 
ATOM     39  C   UNL     1       0.562  -1.272   6.246  0.00  0.00    +0.000 C 
ATOM     40  C   UNL     1       0.105  -2.409   5.331  0.00  0.00    +0.000 C 
ATOM     41  C   UNL     1       0.986  -2.443   4.080  0.00  0.00    +0.003 C 
ENDBRANCH  35  36
ENDBRANCH  34  35
ENDBRANCH   2  34
TORSDOF 9
