REMARK  Name = ZINC00714778
REMARK  11 active torsions:
REMARK  status: ('A' for Active; 'I' for Inactive)
REMARK    1  A    between atoms: C_1  and  C_2
REMARK    2  A    between atoms: C_2  and  C_38
REMARK    3  A    between atoms: C_6  and  C_25
REMARK    4  A    between atoms: C_8  and  C_23
REMARK    5  A    between atoms: C_9  and  N_22
REMARK    6  A    between atoms: N_10  and  C_11
REMARK    7  A    between atoms: C_12  and  C_20
REMARK    8  A    between atoms: C_28  and  O_33
REMARK    9  A    between atoms: C_29  and  O_31
REMARK   10  A    between atoms: O_31  and  C_32
REMARK   11  A    between atoms: O_33  and  C_34
REMARK                            x       y       z     vdW  Elec       q    Type
REMARK                         _______ _______ _______ _____ _____    ______ ____
ROOT
ATOM      1  C   UNL     1       0.058   1.506  -0.074  0.00  0.00    +0.011 C 
ATOM      2  C   UNL     1       0.056  -0.024  -0.057  0.00  0.00    -0.023 C 
ATOM      3  C   UNL     1      -1.386  -0.536  -0.009  0.00  0.00    +0.058 C 
ATOM      4  C   UNL     1      -1.386  -2.043   0.057  0.00  0.00    +0.025 C 
ATOM      5  C   UNL     1      -0.383  -2.712   0.665  0.00  0.00    +0.025 C 
ATOM      6  C   UNL     1      -0.392  -4.218   0.742  0.00  0.00    +0.097 C 
ATOM      7  C   UNL     1      -1.336  -4.808  -0.264  0.00  0.00    +0.077 C 
ATOM      8  C   UNL     1      -2.304  -4.053  -0.843  0.00  0.00    +0.107 C 
ATOM      9  N   UNL     1      -2.430  -2.721  -0.518  0.00  0.00    -0.253 N 
ATOM     10  C   UNL     1       0.701  -2.026   1.240  0.00  0.00    +0.162 C 
ATOM     11  O   UNL     1       1.583  -2.658   1.789  0.00  0.00    -0.292 OA
ATOM     12  C   UNL     1       0.791  -0.526   1.190  0.00  0.00    +0.086 C 
ATOM     13  C   UNL     1       0.752  -0.553  -1.312  0.00  0.00    +0.011 C 
ENDROOT
BRANCH   9  14
ATOM     14  C   UNL     1      -3.623  -2.058  -0.775  0.00  0.00    +0.095 A 
ATOM     15  C   UNL     1      -4.020  -1.446  -1.952  0.00  0.00    +0.084 A 
ATOM     16  C   UNL     1      -5.328  -0.816  -1.965  0.00  0.00    -0.018 A 
ATOM     17  C   UNL     1      -6.000  -0.914  -0.796  0.00  0.00    -0.004 A 
ATOM     18  S   UNL     1      -4.917  -1.822   0.268  0.00  0.00    -0.076 S 
ATOM     19  C   UNL     1      -7.362  -0.370  -0.493  0.00  0.00    +0.043 C 
ATOM     20  C   UNL     1      -7.730   0.644  -1.587  0.00  0.00    +0.005 C 
ATOM     21  C   UNL     1      -7.441   0.022  -2.957  0.00  0.00    +0.005 C 
ATOM     22  C   UNL     1      -5.929  -0.100  -3.165  0.00  0.00    +0.037 C 
BRANCH  15  23
ATOM     23  C   UNL     1      -3.176  -1.434  -3.109  0.00  0.00    +0.102 C 
ATOM     24  N   UNL     1      -2.506  -1.425  -4.026  0.00  0.00    -0.191 NA
ENDBRANCH  15  23
ENDBRANCH   9  14
BRANCH   6  25
ATOM     25  C   UNL     1      -0.819  -4.639   2.125  0.00  0.00    -0.031 A 
ATOM     26  C   UNL     1      -2.062  -4.271   2.604  0.00  0.00    +0.008 A 
ATOM     27  C   UNL     1      -2.459  -4.655   3.872  0.00  0.00    +0.050 A 
ATOM     28  C   UNL     1      -1.609  -5.410   4.665  0.00  0.00    +0.162 A 
ATOM     29  C   UNL     1      -0.358  -5.780   4.182  0.00  0.00    +0.162 A 
ATOM     30  C   UNL     1       0.031  -5.396   2.909  0.00  0.00    +0.054 A 
BRANCH  29  31
ATOM     31  O   UNL     1       0.479  -6.521   4.956  0.00  0.00    -0.491 OA
ATOM     32  C   UNL     1       1.748  -6.864   4.396  0.00  0.00    +0.277 C 
ENDBRANCH  29  31
BRANCH  28  33
ATOM     33  O   UNL     1      -1.998  -5.788   5.912  0.00  0.00    -0.491 OA
ATOM     34  C   UNL     1      -3.296  -5.371   6.341  0.00  0.00    +0.277 C 
ENDBRANCH  28  33
ENDBRANCH   6  25
BRANCH   8  35
ATOM     35  N   UNL     1      -3.161  -4.620  -1.756  0.00  0.00    -0.345 N 
ATOM     36  H   UNL     1      -3.022  -5.534  -2.050  0.00  0.00    +0.144 HD
ATOM     37  H   UNL     1      -3.905  -4.106  -2.107  0.00  0.00    +0.144 HD
ENDBRANCH   8  35
BRANCH   7  38
ATOM     38  C   UNL     1      -1.213  -6.190  -0.618  0.00  0.00    +0.099 C 
ATOM     39  N   UNL     1      -1.116  -7.286  -0.899  0.00  0.00    -0.191 NA
ENDBRANCH   7  38
TORSDOF 7
