REMARK  Name = ZINC35192014
REMARK  6 active torsions:
REMARK  status: ('A' for Active; 'I' for Inactive)
REMARK    1  A    between atoms: C_4  and  C_7
REMARK    2  A    between atoms: C_7  and  N_8
REMARK    3  A    between atoms: C_11  and  N_14
REMARK    4  A    between atoms: C_15  and  C_17
REMARK    5  A    between atoms: C_21  and  C_33
REMARK    6  A    between atoms: C_24  and  C_26
REMARK                            x       y       z     vdW  Elec       q    Type
REMARK                         _______ _______ _______ _____ _____    ______ ____
ROOT
ATOM      1  C   UNL     1       6.766  -4.105   6.470  0.00  0.00    +0.173 C 
ATOM      2  C   UNL     1       7.109  -2.784   7.220  0.00  0.00    +0.103 C 
ATOM      3  S   UNL     1       7.610  -3.518   8.842  0.00  0.00    -0.136 S 
ATOM      4  C   UNL     1       8.268  -5.108   8.184  0.00  0.00    +0.138 C 
ATOM      5  N   UNL     1       7.713  -5.160   6.819  0.00  0.00    -0.273 N 
ATOM      6  C   UNL     1       8.059  -6.126   5.946  0.00  0.00    +0.248 C 
ATOM      7  O   UNL     1       7.558  -6.152   4.838  0.00  0.00    -0.270 OA
ENDROOT
BRANCH   6   8
ATOM      8  C   UNL     1       9.046  -7.154   6.334  0.00  0.00    +0.037 A 
ATOM      9  C   UNL     1       9.625  -7.125   7.604  0.00  0.00    +0.016 A 
ATOM     10  C   UNL     1      10.546  -8.087   7.961  0.00  0.00    +0.039 A 
ATOM     11  C   UNL     1      10.898  -9.081   7.061  0.00  0.00    +0.123 A 
ATOM     12  C   UNL     1      10.327  -9.114   5.798  0.00  0.00    +0.039 A 
ATOM     13  C   UNL     1       9.400  -8.161   5.433  0.00  0.00    +0.016 A 
ATOM     14  F   UNL     1      11.802 -10.020   7.416  0.00  0.00    -0.205 F 
ENDBRANCH   6   8
BRANCH   4  15
ATOM     15  C   UNL     1       7.769  -6.288   9.021  0.00  0.00    +0.020 C 
ATOM     16  C   UNL     1       6.251  -6.190   9.187  0.00  0.00    +0.006 C 
ATOM     17  C   UNL     1       5.752  -7.369  10.024  0.00  0.00    +0.000 C 
ATOM     18  C   UNL     1       6.418  -7.335  11.401  0.00  0.00    +0.000 C 
ATOM     19  C   UNL     1       7.936  -7.433  11.236  0.00  0.00    +0.000 C 
ATOM     20  C   UNL     1       8.435  -6.253  10.399  0.00  0.00    +0.006 C 
ENDBRANCH   4  15
BRANCH   1  22
ATOM     21  N   UNL     1       5.705  -3.505   4.318  0.00  0.00    -0.311 N 
ATOM     22  C   UNL     1       6.821  -3.860   4.984  0.00  0.00    +0.235 C 
ATOM     23  O   UNL     1       7.870  -3.983   4.388  0.00  0.00    -0.274 OA
ATOM     24  H   UNL     1       4.883  -3.336   4.804  0.00  0.00    +0.149 HD
BRANCH  21  28
ATOM     25  N   UNL     1       4.716  -2.070   0.480  0.00  0.00    +0.382 N 
ATOM     26  C   UNL     1       4.362  -3.464   0.775  0.00  0.00    -0.077 C 
ATOM     27  C   UNL     1       4.346  -3.680   2.290  0.00  0.00    +0.003 C 
ATOM     28  C   UNL     1       5.734  -3.373   2.859  0.00  0.00    +0.069 C 
ATOM     29  C   UNL     1       6.124  -1.941   2.481  0.00  0.00    +0.003 C 
ATOM     30  C   UNL     1       6.075  -1.790   0.959  0.00  0.00    -0.077 C 
ATOM     31  H   UNL     1       4.064  -1.455   0.941  0.00  0.00    -0.081 HD
BRANCH  25  32
ATOM     32  C   UNL     1       4.655  -1.848  -0.971  0.00  0.00    -0.043 C 
BRANCH  32  36
ATOM     33  C   UNL     1       0.629  -2.325  -2.318  0.00  0.00    +0.000 A 
ATOM     34  C   UNL     1       1.080  -1.082  -1.912  0.00  0.00    +0.000 A 
ATOM     35  C   UNL     1       2.382  -0.928  -1.476  0.00  0.00    +0.002 A 
ATOM     36  C   UNL     1       3.235  -2.016  -1.445  0.00  0.00    -0.064 A 
ATOM     37  C   UNL     1       2.784  -3.259  -1.851  0.00  0.00    +0.002 A 
ATOM     38  C   UNL     1       1.482  -3.413  -2.288  0.00  0.00    +0.000 A 
ENDBRANCH  32  36
ENDBRANCH  25  32
ENDBRANCH  21  28
ENDBRANCH   1  22
TORSDOF 6
