REMARK  Name = ZINC39637368
REMARK  10 active torsions:
REMARK  status: ('A' for Active; 'I' for Inactive)
REMARK    1  A    between atoms: C_1  and  C_2
REMARK    2  A    between atoms: C_2  and  C_3
REMARK    3  A    between atoms: C_3  and  C_4
REMARK    4  A    between atoms: C_4  and  C_5
REMARK    5  A    between atoms: C_5  and  C_6
REMARK    6  A    between atoms: C_6  and  C_7
REMARK    7  A    between atoms: C_11  and  C_20
REMARK    8  A    between atoms: N_22  and  C_23
REMARK    9  A    between atoms: C_28  and  C_33
REMARK   10  A    between atoms: C_30  and  C_32
REMARK                            x       y       z     vdW  Elec       q    Type
REMARK                         _______ _______ _______ _____ _____    ______ ____
ROOT
ATOM      1  C   UNL     1       1.991  -4.616   3.477  0.00  0.00    +0.216 C 
ATOM      2  O   UNL     1       2.379  -3.751   4.232  0.00  0.00    -0.276 OA
ATOM      3  N   UNL     1       2.228  -5.913   3.759  0.00  0.00    -0.300 N 
ATOM      4  C   UNL     1       1.842  -7.101   2.962  0.00  0.00    +0.121 C 
ATOM      5  C   UNL     1       3.053  -8.055   3.071  0.00  0.00    +0.100 C 
ATOM      6  C   UNL     1       3.765  -7.638   4.369  0.00  0.00    -0.004 C 
ATOM      7  C   UNL     1       2.940  -6.472   4.933  0.00  0.00    +0.115 C 
ATOM      8  C   UNL     1       5.186  -7.173   4.067  0.00  0.00    -0.010 C 
ATOM      9  C   UNL     1       5.892  -6.819   5.379  0.00  0.00    -0.082 C 
ATOM     10  N   UNL     1       5.916  -7.995   6.258  0.00  0.00    +0.379 N 
ATOM     11  C   UNL     1       4.546  -8.379   6.618  0.00  0.00    -0.082 C 
ATOM     12  C   UNL     1       3.783  -8.799   5.358  0.00  0.00    -0.010 C 
ATOM     13  H   UNL     1       6.364  -8.761   5.778  0.00  0.00    -0.086 HD
ATOM     14  H   UNL     1       6.434  -7.777   7.095  0.00  0.00    -0.086 HD
ENDROOT
BRANCH   5  15
ATOM     15  C   UNL     1       3.970  -7.877   1.888  0.00  0.00    +0.218 C 
ATOM     16  O   UNL     1       4.055  -6.796   1.344  0.00  0.00    -0.275 OA
ATOM     17  N   UNL     1       4.694  -8.919   1.434  0.00  0.00    -0.312 N 
ATOM     18  H   UNL     1       4.625  -9.784   1.869  0.00  0.00    +0.149 HD
BRANCH  17  19
ATOM     19  C   UNL     1       5.584  -8.747   0.284  0.00  0.00    +0.076 C 
ATOM     20  C   UNL     1       6.934  -8.206   0.760  0.00  0.00    +0.022 C 
ATOM     21  C   UNL     1       7.864  -8.025  -0.441  0.00  0.00    +0.002 C 
ATOM     22  C   UNL     1       8.071  -9.374  -1.133  0.00  0.00    +0.003 C 
ATOM     23  C   UNL     1       6.721  -9.915  -1.609  0.00  0.00    -0.009 C 
ATOM     24  C   UNL     1       5.791 -10.095  -0.408  0.00  0.00    +0.009 C 
ATOM     25  C   UNL     1       4.442 -10.637  -0.885  0.00  0.00    +0.009 C 
ATOM     26  C   UNL     1       6.095  -8.927  -2.595  0.00  0.00    +0.008 C 
ENDBRANCH  17  19
ENDBRANCH   5  15
BRANCH   1  27
ATOM     27  C   UNL     1       1.243  -4.243   2.222  0.00  0.00    +0.096 C 
BRANCH  27  28
ATOM     28  C   UNL     1       1.110  -2.721   2.143  0.00  0.00    +0.009 C 
BRANCH  28  29
ATOM     29  C   UNL     1       0.351  -2.341   0.869  0.00  0.00    +0.000 C 
BRANCH  29  30
ATOM     30  C   UNL     1       0.218  -0.819   0.789  0.00  0.00    -0.000 C 
BRANCH  30  32
ATOM     31  C   UNL     1      -0.674   1.082  -0.564  0.00  0.00    +0.004 C 
ATOM     32  C   UNL     1      -0.541  -0.440  -0.484  0.00  0.00    -0.003 C 
ENDBRANCH  30  32
ENDBRANCH  29  30
ENDBRANCH  28  29
ENDBRANCH  27  28
ENDBRANCH   1  27
TORSDOF 7
