REMARK  Name = ZINC40014670
REMARK  16 active torsions:
REMARK  status: ('A' for Active; 'I' for Inactive)
REMARK    1  A    between atoms: C_1  and  C_2
REMARK    2  A    between atoms: C_2  and  C_3
REMARK    3  A    between atoms: C_3  and  C_4
REMARK    4  A    between atoms: C_4  and  O_5
REMARK    5  A    between atoms: O_5  and  C_6
REMARK    6  A    between atoms: C_9  and  C_14
REMARK    7  A    between atoms: C_11  and  O_12
REMARK    8  A    between atoms: O_12  and  C_13
REMARK    9  A    between atoms: N_29  and  C_30
REMARK   10  A    between atoms: C_30  and  C_31
REMARK   11  A    between atoms: C_31  and  C_32
REMARK   12  A    between atoms: C_32  and  N_33
REMARK   13  A    between atoms: N_33  and  C_34
REMARK   14  A    between atoms: N_33  and  C_36
REMARK   15  A    between atoms: C_34  and  C_35
REMARK   16  A    between atoms: C_36  and  C_37
REMARK                            x       y       z     vdW  Elec       q    Type
REMARK                         _______ _______ _______ _____ _____    ______ ____
ROOT
ATOM      1  C   UNL     1       1.952  -7.994   2.612  0.00  0.00    +0.145 C 
ATOM      2  C   UNL     1       2.830  -8.635   1.588  0.00  0.00    +0.072 A 
ATOM      3  C   UNL     1       4.227  -8.382   1.218  0.00  0.00    +0.199 A 
ATOM      4  O   UNL     1       4.968  -7.661   1.862  0.00  0.00    -0.287 OA
ATOM      5  C   UNL     1       4.651  -9.089  -0.017  0.00  0.00    +0.066 A 
ATOM      6  C   UNL     1       5.880  -8.798  -0.610  0.00  0.00    +0.035 A 
ATOM      7  C   UNL     1       6.255  -9.460  -1.758  0.00  0.00    +0.042 A 
ATOM      8  C   UNL     1       5.412 -10.410  -2.321  0.00  0.00    +0.023 A 
ATOM      9  C   UNL     1       4.198 -10.705  -1.744  0.00  0.00    +0.048 A 
ATOM     10  C   UNL     1       3.797 -10.052  -0.579  0.00  0.00    +0.140 A 
ATOM     11  O   UNL     1       2.603 -10.369  -0.027  0.00  0.00    -0.450 OA
ATOM     12  C   UNL     1       2.096  -9.597   0.954  0.00  0.00    +0.199 A 
ATOM     13  C   UNL     1       0.742  -9.603   1.534  0.00  0.00    +0.283 C 
ATOM     14  O   UNL     1      -0.160 -10.340   1.190  0.00  0.00    -0.267 OA
ATOM     15  N   UNL     1       0.649  -8.670   2.506  0.00  0.00    -0.284 N 
ATOM     16 CL   UNL     1       7.783  -9.106  -2.503  0.00  0.00    -0.084 Cl
ENDROOT
BRANCH   1  20
ATOM     17  C   UNL     1       1.518  -3.822   1.777  0.00  0.00    +0.162 A 
ATOM     18  C   UNL     1       0.965  -4.764   0.924  0.00  0.00    +0.050 A 
ATOM     19  C   UNL     1       1.107  -6.111   1.197  0.00  0.00    +0.009 A 
ATOM     20  C   UNL     1       1.801  -6.523   2.320  0.00  0.00    -0.019 A 
ATOM     21  C   UNL     1       2.355  -5.589   3.175  0.00  0.00    +0.055 A 
ATOM     22  C   UNL     1       2.221  -4.237   2.904  0.00  0.00    +0.162 A 
BRANCH  22  23
ATOM     23  O   UNL     1       2.771  -3.317   3.741  0.00  0.00    -0.491 OA
ATOM     24  C   UNL     1       3.478  -3.815   4.879  0.00  0.00    +0.277 C 
ENDBRANCH  22  23
BRANCH  17  25
ATOM     25  O   UNL     1       1.379  -2.496   1.510  0.00  0.00    -0.488 OA
BRANCH  25  26
ATOM     26  C   UNL     1       0.645  -2.144   0.336  0.00  0.00    +0.229 C 
BRANCH  26  27
ATOM     27  C   UNL     1       0.596  -0.620   0.203  0.00  0.00    +0.041 C 
BRANCH  27  29
ATOM     28  C   UNL     1      -0.239   1.280  -1.188  0.00  0.00    +0.004 C 
ATOM     29  C   UNL     1      -0.190  -0.243  -1.055  0.00  0.00    -0.000 C 
ENDBRANCH  27  29
ENDBRANCH  26  27
ENDBRANCH  25  26
ENDBRANCH  17  25
ENDBRANCH   1  20
BRANCH  15  30
ATOM     30  C   UNL     1      -0.539  -8.381   3.313  0.00  0.00    +0.107 C 
BRANCH  30  31
ATOM     31  C   UNL     1      -1.447  -7.411   2.555  0.00  0.00    +0.000 C 
BRANCH  31  32
ATOM     32  C   UNL     1      -2.649  -7.048   3.429  0.00  0.00    -0.077 C 
BRANCH  32  33
ATOM     33  N   UNL     1      -3.452  -6.019   2.756  0.00  0.00    +0.379 N 
ATOM     34  H   UNL     1      -2.865  -5.233   2.523  0.00  0.00    -0.082 HD
BRANCH  33  35
ATOM     35  C   UNL     1      -4.032  -6.578   1.527  0.00  0.00    -0.082 C 
ATOM     36  C   UNL     1      -4.765  -5.474   0.761  0.00  0.00    -0.017 C 
ENDBRANCH  33  35
BRANCH  33  37
ATOM     37  C   UNL     1      -4.531  -5.577   3.649  0.00  0.00    -0.082 C 
ATOM     38  C   UNL     1      -3.930  -4.862   4.860  0.00  0.00    -0.017 C 
ENDBRANCH  33  37
ENDBRANCH  32  33
ENDBRANCH  31  32
ENDBRANCH  30  31
ENDBRANCH  15  30
TORSDOF 12
