REMARK  Name = ZINC63375440
REMARK  10 active torsions:
REMARK  status: ('A' for Active; 'I' for Inactive)
REMARK    1  A    between atoms: CB_1  and  CA_2
REMARK    2  A    between atoms: CA_2  and  C_4
REMARK    3  A    between atoms: CA_2  and  N_7
REMARK    4  A    between atoms: C_8  and  CA_10
REMARK    5  A    between atoms: CA_10  and  CB_12
REMARK    6  A    between atoms: CA_10  and  N_16
REMARK    7  A    between atoms: CB_12  and  CG_13
REMARK    8  A    between atoms: CG_13  and  CD1_14
REMARK    9  A    between atoms: CG_13  and  CD2_15
REMARK   10  A    between atoms: C_17  and  C_19
REMARK                            x       y       z     vdW  Elec       q    Type
REMARK                         _______ _______ _______ _____ _____    ______ ____
ROOT
ATOM      1  C   UNK A   0      -0.381  -2.215   7.443  0.00  0.00    +0.167 C 
ATOM      2  C   UNK A   0      -1.439  -1.128   7.718  0.00  0.00    +0.065 C 
ATOM      3  C   UNK A   0      -1.257  -0.687   9.148  0.00  0.00    -0.034 C 
ATOM      4  C   UNK A   0      -1.119   0.531   9.665  0.00  0.00    -0.001 A 
ATOM      5  C   UNK A   0      -1.193   1.867   9.052  0.00  0.00    +0.010 A 
ATOM      6  C   UNK A   0      -0.983   2.921   9.885  0.00  0.00    +0.001 A 
ATOM      7  C   UNK A   0      -0.710   2.780  11.249  0.00  0.00    +0.002 A 
ATOM      8  C   UNK A   0      -0.630   1.591  11.897  0.00  0.00    +0.026 A 
ATOM      9  C   UNK A   0      -0.841   0.410  11.128  0.00  0.00    +0.043 A 
ATOM     10  N   UNK A   0      -0.845  -0.839  11.489  0.00  0.00    -0.375 N 
ATOM     11  C   UNK A   0      -1.178  -1.656  10.320  0.00  0.00    +0.131 C 
ATOM     12  C   UNK A   0      -0.083  -2.670   9.998  0.00  0.00    +0.134 C 
ATOM     13  N   UNK A   0       0.440  -2.368   8.651  0.00  0.00    -0.276 N 
ATOM     14  C   UNK A   0       1.778  -2.240   8.729  0.00  0.00    +0.248 C 
ATOM     15  O   UNK A   0       2.522  -2.106   7.777  0.00  0.00    -0.270 OA
ATOM     16  C   UNK A   0       2.206  -2.286  10.129  0.00  0.00    +0.042 A 
ATOM     17  C   UNK A   0       1.071  -2.551  10.939  0.00  0.00    -0.013 A 
ATOM     18  C   UNK A   0       1.154  -2.652  12.310  0.00  0.00    +0.006 A 
ATOM     19  C   UNK A   0       2.413  -2.489  12.880  0.00  0.00    +0.000 A 
ATOM     20  C   UNK A   0       3.533  -2.240  12.112  0.00  0.00    +0.001 A 
ATOM     21  C   UNK A   0       3.470  -2.126  10.704  0.00  0.00    +0.013 A 
ATOM     22  H   UNK A   0      -0.658  -1.173  12.380  0.00  0.00    +0.160 HD
ENDROOT
BRANCH   1  24
ATOM     23  N   LEU A   1       0.439  -2.481   5.125  0.00  0.00    -0.302 N 
ATOM     24  C   UNK A   0       0.488  -1.798   6.285  0.00  0.00    +0.235 C 
ATOM     25  O   UNK A   0       1.233  -0.847   6.398  0.00  0.00    -0.274 OA
ATOM     26  H   LEU A   1      -0.208  -3.195   5.009  0.00  0.00    +0.150 HD
BRANCH  23  27
ATOM     27  CA  LEU A   1       1.363  -2.148   4.038  0.00  0.00    +0.159 C 
BRANCH  27  29
ATOM     28  N   LEU A   1       1.334  -2.215   1.565  0.00  0.00    -0.301 N 
ATOM     29  C   LEU A   1       0.793  -2.628   2.728  0.00  0.00    +0.234 C 
ATOM     30  O   LEU A   1      -0.154  -3.387   2.721  0.00  0.00    -0.274 OA
ATOM     31  H   LEU A   1       2.061  -1.573   1.570  0.00  0.00    +0.150 HD
BRANCH  28  33
ATOM     32  CB  LEU A   1      -0.386  -1.913  -0.146  0.00  0.00    +0.040 C 
ATOM     33  CA  LEU A   1       0.825  -2.737   0.294  0.00  0.00    +0.183 C 
BRANCH  33  34
ATOM     34  C   LEU A   1       1.904  -2.645  -0.754  0.00  0.00    +0.376 C 
ATOM     35  O   LEU A   1       2.740  -1.760  -0.692  0.00  0.00    -0.244 OA
ATOM     36  OXT LEU A   1       1.940  -3.455  -1.664  0.00  0.00    -0.244 OA
ENDBRANCH  33  34
ENDBRANCH  28  33
ENDBRANCH  27  29
BRANCH  27  37
ATOM     37  CB  LEU A   1       2.711  -2.827   4.287  0.00  0.00    +0.034 C 
BRANCH  37  38
ATOM     38  CG  LEU A   1       3.686  -2.452   3.169  0.00  0.00    -0.015 C 
ATOM     39  CD1 LEU A   1       3.998  -0.957   3.246  0.00  0.00    +0.007 C 
ATOM     40  CD2 LEU A   1       4.979  -3.253   3.331  0.00  0.00    +0.007 C 
ENDBRANCH  37  38
ENDBRANCH  27  37
ENDBRANCH  23  27
ENDBRANCH   1  24
TORSDOF 7
