REMARK  Name = ZINC08568279
REMARK  9 active torsions:
REMARK  status: ('A' for Active; 'I' for Inactive)
REMARK    1  A    between atoms: C_1  and  C_2
REMARK    2  A    between atoms: C_2  and  C_3
REMARK    3  A    between atoms: C_3  and  C_4
REMARK    4  A    between atoms: C_11  and  N_35
REMARK    5  A    between atoms: C_12  and  C_31
REMARK    6  A    between atoms: N_20  and  C_23
REMARK    7  A    between atoms: C_23  and  C_24
REMARK    8  A    between atoms: C_31  and  O_33
REMARK    9  A    between atoms: O_33  and  C_34
REMARK                            x       y       z     vdW  Elec       q    Type
REMARK                         _______ _______ _______ _____ _____    ______ ____
ROOT
ATOM      1  C   UNL     1       0.399  -2.087  -1.276  0.00  0.00    +0.071 A 
ATOM      2  C   UNL     1       1.361  -2.946  -0.763  0.00  0.00    +0.061 A 
ATOM      3  C   UNL     1       0.997  -4.226  -1.079  0.00  0.00    +0.223 A 
ATOM      4  N   UNL     1      -0.154  -4.162  -1.766  0.00  0.00    -0.246 N 
ATOM      5  H   UNL     1      -0.649  -4.917  -2.122  0.00  0.00    +0.192 HD
ATOM      6  N   UNL     1      -0.516  -2.811  -1.875  0.00  0.00    -0.176 NA
ATOM      7  O   UNL     1       1.733  -5.306  -0.717  0.00  0.00    -0.424 OA
ATOM      8  C   UNL     1       2.707  -5.129   0.197  0.00  0.00    +0.198 C 
ATOM      9  C   UNL     1       3.163  -3.910   0.584  0.00  0.00    +0.117 C 
ATOM     10  C   UNL     1       2.611  -2.634   0.011  0.00  0.00    +0.142 C 
ATOM     11  C   UNL     1       3.621  -1.939  -0.845  0.00  0.00    -0.002 A 
ATOM     12  C   UNL     1       4.273  -2.332  -1.994  0.00  0.00    +0.007 A 
ATOM     13  C   UNL     1       5.170  -1.427  -2.551  0.00  0.00    +0.000 A 
ATOM     14  C   UNL     1       5.395  -0.193  -1.978  0.00  0.00    +0.002 A 
ATOM     15  C   UNL     1       4.745   0.209  -0.821  0.00  0.00    +0.024 A 
ATOM     16  C   UNL     1       3.842  -0.690  -0.252  0.00  0.00    +0.041 A 
ATOM     17  N   UNL     1       3.066  -0.554   0.886  0.00  0.00    -0.265 N 
ATOM     18  C   UNL     1       2.312  -1.649   1.119  0.00  0.00    +0.240 C 
ATOM     19  O   UNL     1       1.541  -1.811   2.041  0.00  0.00    -0.274 OA
ENDROOT
BRANCH   8  20
ATOM     20  N   UNL     1       3.268  -6.240   0.768  0.00  0.00    -0.329 N 
ATOM     21  H   UNL     1       2.911  -7.120   0.570  0.00  0.00    +0.145 HD
ATOM     22  H   UNL     1       4.022  -6.147   1.371  0.00  0.00    +0.145 HD
ENDBRANCH   8  20
BRANCH   9  23
ATOM     23  C   UNL     1       4.181  -3.839   1.546  0.00  0.00    +0.341 C 
ATOM     24  O   UNL     1       5.314  -3.539   1.213  0.00  0.00    -0.245 OA
BRANCH  23  25
ATOM     25  O   UNL     1       3.905  -4.104   2.841  0.00  0.00    -0.465 OA
ATOM     26  C   UNL     1       4.989  -4.012   3.768  0.00  0.00    +0.280 C 
ENDBRANCH  23  25
ENDBRANCH   9  23
BRANCH   1  27
ATOM     27  C   UNL     1       0.402  -0.584  -1.160  0.00  0.00    +0.057 C 
BRANCH  27  29
ATOM     28  C   UNL     1      -0.552   1.364   0.080  0.00  0.00    +0.004 C 
ATOM     29  C   UNL     1      -0.466  -0.162   0.027  0.00  0.00    +0.003 C 
ENDBRANCH  27  29
ENDBRANCH   1  27
BRANCH  17  30
ATOM     30  C   UNL     1       3.064   0.638   1.738  0.00  0.00    +0.148 C 
BRANCH  30  31
ATOM     31  C   UNL     1       4.180   0.537   2.746  0.00  0.00    -0.030 A 
ATOM     32  C   UNL     1       3.985  -0.157   3.926  0.00  0.00    +0.008 A 
ATOM     33  C   UNL     1       5.008  -0.250   4.850  0.00  0.00    +0.038 A 
ATOM     34  C   UNL     1       6.228   0.351   4.595  0.00  0.00    +0.123 A 
ATOM     35  C   UNL     1       6.423   1.046   3.413  0.00  0.00    +0.038 A 
ATOM     36  C   UNL     1       5.400   1.134   2.488  0.00  0.00    +0.008 A 
ATOM     37  F   UNL     1       7.229   0.261   5.498  0.00  0.00    -0.205 F 
ENDBRANCH  30  31
ENDBRANCH  17  30
TORSDOF 7
