REMARK  Name = ZINC14254139
REMARK  12 active torsions:
REMARK  status: ('A' for Active; 'I' for Inactive)
REMARK    1  A    between atoms: C_1  and  C_2
REMARK    2  A    between atoms: C_2  and  O_3
REMARK    3  A    between atoms: O_3  and  C_4
REMARK    4  A    between atoms: C_4  and  C_6
REMARK    5  A    between atoms: C_7  and  C_32
REMARK    6  A    between atoms: C_8  and  C_21
REMARK    7  A    between atoms: C_10  and  N_11
REMARK    8  A    between atoms: C_12  and  C_14
REMARK    9  A    between atoms: C_14  and  N_64
REMARK   10  A    between atoms: N_23  and  C_24
REMARK   11  A    between atoms: C_27  and  C_31
REMARK   12  A    between atoms: C_29  and  C_30
REMARK                            x       y       z     vdW  Elec       q    Type
REMARK                         _______ _______ _______ _____ _____    ______ ____
ROOT
ATOM      1  C   UNL     1       5.253  -2.711   0.353  0.00  0.00    +0.091 A 
ATOM      2  C   UNL     1       3.935  -2.287   0.277  0.00  0.00    -0.015 A 
ATOM      3  C   UNL     1       3.706  -0.942   0.175  0.00  0.00    +0.080 A 
ATOM      4  S   UNL     1       5.354  -0.261   0.178  0.00  0.00    -0.068 S 
ATOM      5  C   UNL     1       6.255  -1.735   0.320  0.00  0.00    +0.087 A 
ATOM      6  C   UNL     1       2.796  -3.272   0.306  0.00  0.00    +0.046 C 
ENDROOT
BRANCH   5   7
ATOM      7  N   UNL     1       7.624  -1.904   0.380  0.00  0.00    -0.281 N 
ATOM      8  C   UNL     1       8.438  -0.831   0.334  0.00  0.00    +0.201 C 
ATOM      9  O   UNL     1       7.969   0.283   0.239  0.00  0.00    -0.278 OA
ATOM     10  H   UNL     1       8.000  -2.795   0.456  0.00  0.00    +0.155 HD
BRANCH   8  11
ATOM     11  C   UNL     1       9.933  -1.015   0.399  0.00  0.00    +0.020 C 
BRANCH  11  18
ATOM     12  C   UNL     1      10.706   0.769  -1.095  0.00  0.00    -0.068 C 
ATOM     13  C   UNL     1      11.609  -0.369  -1.699  0.00  0.00    -0.017 C 
ATOM     14  C   UNL     1      12.531  -0.759  -0.518  0.00  0.00    -0.017 C 
ATOM     15  C   UNL     1      12.062   0.178   0.636  0.00  0.00    -0.068 C 
ATOM     16  C   UNL     1      12.561   1.603   0.252  0.00  0.00    -0.017 C 
ATOM     17  C   UNL     1      11.639   2.005  -0.925  0.00  0.00    -0.017 C 
ATOM     18  N   UNL     1      10.652   0.314   0.278  0.00  0.00    +0.389 N 
ATOM     19  H   UNL     1      10.187   1.008   0.875  0.00  0.00    -0.080 HD
ENDBRANCH  11  18
ENDBRANCH   8  11
ENDBRANCH   5   7
BRANCH   3  20
ATOM     20  C   UNL     1       2.426  -0.237   0.080  0.00  0.00    +0.255 C 
ATOM     21  O   UNL     1       1.383  -0.866   0.087  0.00  0.00    -0.269 OA
ATOM     22  N   UNL     1       2.402   1.107  -0.015  0.00  0.00    -0.281 N 
ATOM     23  H   UNL     1       3.233   1.603  -0.086  0.00  0.00    +0.155 HD
BRANCH  22  24
ATOM     24  C   UNL     1       1.180   1.787  -0.010  0.00  0.00    +0.037 A 
ATOM     25  C   UNL     1       0.064   1.216  -0.608  0.00  0.00    +0.024 A 
ATOM     26  C   UNL     1      -1.140   1.892  -0.607  0.00  0.00    +0.005 A 
ATOM     27  C   UNL     1      -1.238   3.131  -0.000  0.00  0.00    -0.050 A 
ATOM     28  C   UNL     1      -0.130   3.702   0.596  0.00  0.00    +0.008 A 
ATOM     29  C   UNL     1       1.079   3.034   0.593  0.00  0.00    -0.029 A 
ATOM     30  C   UNL     1       2.287   3.657   1.244  0.00  0.00    +0.045 C 
ATOM     31  C   UNL     1      -2.556   3.863   0.005  0.00  0.00    +0.044 C 
ENDBRANCH  22  24
ENDBRANCH   3  20
BRANCH   1  32
ATOM     32  C   UNL     1       5.587  -4.136   0.465  0.00  0.00    +0.342 C 
ATOM     33  O   UNL     1       5.761  -4.800  -0.539  0.00  0.00    -0.245 OA
BRANCH  32  34
ATOM     34  O   UNL     1       5.699  -4.709   1.680  0.00  0.00    -0.461 OA
BRANCH  34  36
ATOM     35  C   UNL     1       6.114  -6.591   3.169  0.00  0.00    +0.048 C 
ATOM     36  C   UNL     1       6.030  -6.122   1.715  0.00  0.00    +0.229 C 
ENDBRANCH  34  36
ENDBRANCH  32  34
ENDBRANCH   1  32
TORSDOF 8
