REMARK  Name = ZINC26354099
REMARK  8 active torsions:
REMARK  status: ('A' for Active; 'I' for Inactive)
REMARK    1  A    between atoms: C_1  and  C_2
REMARK    2  A    between atoms: C_2  and  O_3
REMARK    3  A    between atoms: O_3  and  C_4
REMARK    4  A    between atoms: C_9  and  C_10
REMARK    5  A    between atoms: C_11  and  C_12
REMARK    6  A    between atoms: N_14  and  C_15
REMARK    7  A    between atoms: C_18  and  N_21
REMARK    8  A    between atoms: C_26  and  C_29
REMARK                            x       y       z     vdW  Elec       q    Type
REMARK                         _______ _______ _______ _____ _____    ______ ____
ROOT
ATOM      1  C   UNL     1      -0.078   5.683   0.038  0.00  0.00    +0.241 C 
ATOM      2  O   UNL     1       0.970   6.302   0.046  0.00  0.00    -0.270 OA
ATOM      3  N   UNL     1      -1.252   6.346   0.050  0.00  0.00    -0.282 N 
ATOM      4  H   UNL     1      -2.198   5.790  -0.034  0.00  0.00    +0.155 HD
ENDROOT
BRANCH   3   5
ATOM      5  C   UNL     1      -1.267   7.740   0.170  0.00  0.00    +0.034 A 
ATOM      6  C   UNL     1      -2.288   8.366   0.875  0.00  0.00    +0.025 A 
ATOM      7  C   UNL     1      -2.300   9.740   0.998  0.00  0.00    +0.025 A 
ATOM      8  C   UNL     1      -1.298  10.499   0.407  0.00  0.00    +0.035 A 
ATOM      9  C   UNL     1      -0.281   9.875  -0.303  0.00  0.00    +0.025 A 
ATOM     10  C   UNL     1      -0.265   8.499  -0.421  0.00  0.00    +0.025 A 
BRANCH   8  11
ATOM     11  N   UNL     1      -1.313  11.895   0.527  0.00  0.00    -0.270 N 
ATOM     12  C   UNL     1      -1.758  12.469   1.663  0.00  0.00    +0.301 C 
ATOM     13  O   UNL     1      -2.224  11.780   2.550  0.00  0.00    -0.253 OA
ATOM     14  N   UNL     1      -1.686  13.806   1.816  0.00  0.00    -0.313 N 
ATOM     15  H   UNL     1      -0.963  12.523  -0.305  0.00  0.00    +0.156 HD
ATOM     16  H   UNL     1      -2.049  14.274   2.743  0.00  0.00    +0.146 HD
ATOM     17  H   UNL     1      -1.265  14.429   1.013  0.00  0.00    +0.146 HD
ENDBRANCH   8  11
ENDBRANCH   3   5
BRANCH   1  19
ATOM     18  C   UNL     1       1.112   3.558   0.002  0.00  0.00    +0.017 C 
ATOM     19  C   UNL     1      -0.064   4.221   0.014  0.00  0.00    +0.068 C 
BRANCH  18  25
ATOM     20  C   UNL     1       2.348   1.398  -0.034  0.00  0.00    +0.128 A 
ATOM     21  C   UNL     1       2.347   0.011  -0.051  0.00  0.00    +0.053 A 
ATOM     22  C   UNL     1       1.155  -0.680  -0.056  0.00  0.00    +0.001 A 
ATOM     23  C   UNL     1      -0.066  -0.010  -0.050  0.00  0.00    +0.125 A 
ATOM     24  C   UNL     1      -0.076   1.377  -0.032  0.00  0.00    +0.057 A 
ATOM     25  C   UNL     1       1.126   2.089  -0.021  0.00  0.00    +0.020 A 
ATOM     26  O   UNL     1      -1.108  -0.888  -0.073  0.00  0.00    -0.488 OA
ATOM     27  C   UNL     1      -0.646  -2.183   0.346  0.00  0.00    +0.175 C 
ATOM     28  C   UNL     1       0.845  -2.165  -0.062  0.00  0.00    +0.083 C 
ATOM     29  C   UNL     1      -1.398  -3.291  -0.395  0.00  0.00    +0.052 C 
BRANCH  20  30
ATOM     30  O   UNL     1       3.521   2.081  -0.029  0.00  0.00    -0.492 OA
BRANCH  30  32
ATOM     31  C   UNL     1       5.932   2.245  -0.036  0.00  0.00    +0.048 C 
ATOM     32  C   UNL     1       4.722   1.308  -0.043  0.00  0.00    +0.226 C 
ENDBRANCH  30  32
ENDBRANCH  20  30
ENDBRANCH  18  25
ENDBRANCH   1  19
TORSDOF 6
