REMARK  Name = ZINC35370209
REMARK  6 active torsions:
REMARK  status: ('A' for Active; 'I' for Inactive)
REMARK    1  A    between atoms: C_1  and  C_2
REMARK    2  A    between atoms: C_5  and  C_8
REMARK    3  A    between atoms: C_17  and  C_21
REMARK    4  A    between atoms: N_23  and  C_24
REMARK    5  A    between atoms: C_24  and  C_25
REMARK    6  A    between atoms: C_25  and  C_26
REMARK                            x       y       z     vdW  Elec       q    Type
REMARK                         _______ _______ _______ _____ _____    ______ ____
ROOT
ATOM      1  C   UNL     1       0.059  -4.251  -0.021  0.00  0.00    +0.247 C 
ATOM      2  O   UNL     1      -0.045  -4.855  -1.071  0.00  0.00    -0.270 OA
ATOM      3  N   UNL     1       0.176  -4.930   1.137  0.00  0.00    -0.298 N 
ATOM      4  C   UNL     1       0.168  -4.220   2.424  0.00  0.00    +0.107 C 
ATOM      5  C   UNL     1      -0.923  -4.827   3.313  0.00  0.00    +0.017 C 
ATOM      6  C   UNL     1      -0.726  -6.332   3.403  0.00  0.00    -0.016 C 
ATOM      7  C   UNL     1      -0.780  -6.989   2.032  0.00  0.00    +0.017 C 
ATOM      8  C   UNL     1       0.306  -6.394   1.136  0.00  0.00    +0.107 C 
ATOM      9  N   UNL     1       0.535  -6.662   4.099  0.00  0.00    +0.397 N 
ATOM     10  C   UNL     1       0.348  -6.768   5.560  0.00  0.00    +0.028 C 
ATOM     11  C   UNL     1      -0.895  -7.665   5.841  0.00  0.00    +0.061 C 
ATOM     12  S   UNL     1      -2.007  -7.065   4.495  0.00  0.00    -0.174 S 
ATOM     13  H   UNL     1       0.884  -7.541   3.748  0.00  0.00    -0.083 HD
ATOM     14  H   UNL     1       1.214  -5.940   3.907  0.00  0.00    -0.083 HD
ENDROOT
BRANCH   1  19
ATOM     15  C   UNL     1       0.056   1.503   0.004  0.00  0.00    +0.044 C 
ATOM     16  C   UNL     1       0.057  -0.004  -0.003  0.00  0.00    -0.050 A 
ATOM     17  C   UNL     1      -0.825  -0.689  -0.819  0.00  0.00    +0.004 A 
ATOM     18  C   UNL     1      -0.829  -2.069  -0.830  0.00  0.00    +0.013 A 
ATOM     19  C   UNL     1       0.059  -2.773  -0.015  0.00  0.00    +0.037 A 
ATOM     20  C   UNL     1       0.945  -2.075   0.806  0.00  0.00    +0.013 A 
ATOM     21  C   UNL     1       0.943  -0.696   0.804  0.00  0.00    +0.004 A 
ENDBRANCH   1  19
BRANCH  10  22
ATOM     22  C   UNL     1       1.570  -7.391   6.183  0.00  0.00    +0.200 C 
ATOM     23  O   UNL     1       2.507  -7.717   5.486  0.00  0.00    -0.278 OA
ATOM     24  N   UNL     1       1.621  -7.587   7.516  0.00  0.00    -0.316 N 
ATOM     25  H   UNL     1       0.872  -7.327   8.073  0.00  0.00    +0.149 HD
BRANCH  24  26
ATOM     26  C   UNL     1       2.809  -8.193   8.122  0.00  0.00    +0.109 C 
BRANCH  26  27
ATOM     27  C   UNL     1       2.611  -8.301   9.635  0.00  0.00    +0.055 C 
BRANCH  27  28
ATOM     28  C   UNL     1       3.833  -8.924  10.259  0.00  0.00    -0.027 A 
ATOM     29  C   UNL     1       3.871 -10.286  10.493  0.00  0.00    +0.006 A 
ATOM     30  C   UNL     1       4.992 -10.859  11.065  0.00  0.00    +0.020 A 
ATOM     31  C   UNL     1       6.077 -10.069  11.403  0.00  0.00    +0.042 A 
ATOM     32  C   UNL     1       6.039  -8.706  11.168  0.00  0.00    +0.040 A 
ATOM     33  C   UNL     1       4.919  -8.134  10.591  0.00  0.00    +0.046 A 
ATOM     34 CL   UNL     1       4.874  -6.425  10.291  0.00  0.00    -0.083 Cl
ATOM     35 CL   UNL     1       7.484 -10.787  12.121  0.00  0.00    -0.083 Cl
ENDBRANCH  27  28
ENDBRANCH  26  27
ENDBRANCH  24  26
ENDBRANCH  10  22
TORSDOF 5
