REMARK  Name = ZINC16628200
REMARK  16 active torsions:
REMARK  status: ('A' for Active; 'I' for Inactive)
REMARK    1  A    between atoms: C_1  and  C_2
REMARK    2  A    between atoms: C_2  and  C_3
REMARK    3  A    between atoms: C_3  and  C_4
REMARK    4  A    between atoms: C_4  and  N_5
REMARK    5  A    between atoms: N_5  and  C_6
REMARK    6  A    between atoms: C_7  and  N_19
REMARK    7  A    between atoms: N_8  and  C_15
REMARK    8  A    between atoms: C_15  and  C_16
REMARK    9  A    between atoms: C_16  and  C_17
REMARK   10  A    between atoms: C_16  and  C_18
REMARK   11  A    between atoms: C_20  and  C_22
REMARK   12  A    between atoms: C_22  and  N_72
REMARK   13  A    between atoms: C_23  and  C_24
REMARK   14  A    between atoms: C_23  and  N_72
REMARK   15  A    between atoms: C_25  and  C_26
REMARK   16  A    between atoms: C_25  and  N_72
REMARK                            x       y       z     vdW  Elec       q    Type
REMARK                         _______ _______ _______ _____ _____    ______ ____
ROOT
ATOM      1  N   UNL     1       4.985   2.086  -3.127  0.00  0.00    -0.266 N 
ATOM      2  C   UNL     1       3.727   1.635  -2.939  0.00  0.00    +0.203 C 
ATOM      3  O   UNL     1       3.185   0.973  -3.799  0.00  0.00    -0.277 OA
ENDROOT
BRANCH   1   4
ATOM      4  C   UNL     1       5.703   1.711  -4.282  0.00  0.00    +0.140 A 
ATOM      5  C   UNL     1       6.020   0.388  -4.513  0.00  0.00    +0.127 A 
ATOM      6  N   UNL     1       6.721   0.053  -5.648  0.00  0.00    -0.280 N 
ATOM      7  C   UNL     1       7.093   1.005  -6.523  0.00  0.00    +0.331 A 
ATOM      8  O   UNL     1       7.713   0.689  -7.521  0.00  0.00    -0.246 OA
ATOM      9  N   UNL     1       6.794   2.299  -6.315  0.00  0.00    -0.273 N 
ATOM     10  H   UNL     1       7.086   2.987  -6.979  0.00  0.00    +0.173 HD
ATOM     11  C   UNL     1       6.105   2.679  -5.221  0.00  0.00    +0.277 A 
ATOM     12  O   UNL     1       5.834   3.855  -5.044  0.00  0.00    -0.266 OA
BRANCH   5  13
ATOM     13  N   UNL     1       5.639  -0.584  -3.619  0.00  0.00    -0.343 N 
ATOM     14  H   UNL     1       5.112  -0.347  -2.840  0.00  0.00    +0.144 HD
ATOM     15  H   UNL     1       5.898  -1.507  -3.767  0.00  0.00    +0.144 HD
ENDBRANCH   5  13
BRANCH   6  16
ATOM     16  C   UNL     1       7.063  -1.348  -5.906  0.00  0.00    +0.131 C 
BRANCH  16  17
ATOM     17  C   UNL     1       5.941  -2.007  -6.712  0.00  0.00    +0.003 C 
ATOM     18  C   UNL     1       5.851  -1.351  -8.091  0.00  0.00    +0.009 C 
ATOM     19  C   UNL     1       6.239  -3.499  -6.874  0.00  0.00    +0.009 C 
ENDBRANCH  16  17
ENDBRANCH   6  16
ENDBRANCH   1   4
BRANCH   1  20
ATOM     20  C   UNL     1       5.605   2.965  -2.132  0.00  0.00    +0.114 C 
BRANCH  20  21
ATOM     21  C   UNL     1       6.423   2.126  -1.149  0.00  0.00    +0.019 C 
BRANCH  21  23
ATOM     22  C   UNL     1       7.888   2.204   0.873  0.00  0.00    +0.004 C 
ATOM     23  C   UNL     1       7.070   3.044  -0.110  0.00  0.00    -0.002 C 
ENDBRANCH  21  23
ENDBRANCH  20  21
ENDBRANCH   1  20
BRANCH   2  24
ATOM     24  C   UNL     1       2.996   1.954  -1.660  0.00  0.00    +0.019 C 
BRANCH  24  25
ATOM     25  N   UNL     1       1.679   1.283  -1.688  0.00  0.00    +0.388 N 
ATOM     26  H   UNL     1       1.798   0.330  -2.051  0.00  0.00    -0.081 HD
BRANCH  25  27
ATOM     27  C   UNL     1       1.121   1.210  -0.321  0.00  0.00    -0.081 C 
ATOM     28  C   UNL     1       1.885   0.142   0.465  0.00  0.00    -0.017 C 
ENDBRANCH  25  27
BRANCH  25  29
ATOM     29  C   UNL     1       0.754   2.022  -2.572  0.00  0.00    -0.030 C 
BRANCH  29  30
ATOM     30  C   UNL     1      -0.518   1.193  -2.759  0.00  0.00    +0.195 C 
ATOM     31  C   UNL     1      -1.479   1.926  -3.705  0.00  0.00    +0.271 C 
ATOM     32  O   UNL     1      -2.651   1.119  -3.867  0.00  0.00    -0.485 OA
ATOM     33  C   UNL     1      -2.453  -0.206  -4.108  0.00  0.00    +0.162 A 
ATOM     34  C   UNL     1      -3.492  -0.968  -4.620  0.00  0.00    +0.049 A 
ATOM     35  C   UNL     1      -3.307  -2.315  -4.867  0.00  0.00    +0.004 A 
ATOM     36  C   UNL     1      -2.086  -2.907  -4.603  0.00  0.00    +0.004 A 
ATOM     37  C   UNL     1      -1.046  -2.153  -4.093  0.00  0.00    +0.049 A 
ATOM     38  C   UNL     1      -1.225  -0.801  -3.845  0.00  0.00    +0.162 A 
ATOM     39  O   UNL     1      -0.189  -0.071  -3.345  0.00  0.00    -0.484 OA
ENDBRANCH  29  30
ENDBRANCH  25  29
ENDBRANCH  24  25
ENDBRANCH   2  24
TORSDOF 12
