REMARK  Name = ZINC57416105
REMARK  8 active torsions:
REMARK  status: ('A' for Active; 'I' for Inactive)
REMARK    1  A    between atoms: C_1  and  C_2
REMARK    2  A    between atoms: C_2  and  O_3
REMARK    3  A    between atoms: O_3  and  C_4
REMARK    4  A    between atoms: C_4  and  C_6
REMARK    5  A    between atoms: C_7  and  C_19
REMARK    6  A    between atoms: C_12  and  C_14
REMARK    7  A    between atoms: C_19  and  N_20
REMARK    8  A    between atoms: N_23  and  C_26
REMARK                            x       y       z     vdW  Elec       q    Type
REMARK                         _______ _______ _______ _____ _____    ______ ____
ROOT
ATOM      1  C   UNL     1      -2.795  -2.407   0.102  0.00  0.00    +0.080 C 
ATOM      2  C   UNL     1      -2.985  -3.731  -0.085  0.00  0.00    +0.038 C 
ATOM      3  N   UNL     1      -4.241  -4.259  -0.162  0.00  0.00    -0.271 N 
ATOM      4  C   UNL     1      -5.360  -3.530  -0.063  0.00  0.00    +0.304 C 
ATOM      5  O   UNL     1      -6.436  -4.091  -0.144  0.00  0.00    -0.252 OA
ATOM      6  N   UNL     1      -5.333  -2.196   0.125  0.00  0.00    -0.288 N 
ATOM      7  C   UNL     1      -4.024  -1.529   0.228  0.00  0.00    +0.150 C 
ATOM      8  H   UNL     1      -4.329  -5.215  -0.297  0.00  0.00    +0.156 HD
ATOM      9  H   UNL     1      -6.156  -1.687   0.194  0.00  0.00    +0.151 HD
ENDROOT
BRANCH   7  10
ATOM     10  C   UNL     1      -3.957  -0.478  -0.850  0.00  0.00    +0.015 A 
ATOM     11  C   UNL     1      -3.558   0.814  -0.758  0.00  0.00    +0.013 A 
ATOM     12  C   UNL     1      -3.579   1.604  -1.892  0.00  0.00    +0.008 A 
ATOM     13  C   UNL     1      -3.998   1.063  -3.062  0.00  0.00    +0.045 A 
ATOM     14  S   UNL     1      -4.375  -0.614  -2.580  0.00  0.00    -0.099 S 
ENDBRANCH   7  10
BRANCH   1  15
ATOM     15  C   UNL     1      -1.494  -1.858   0.183  0.00  0.00    +0.339 C 
ATOM     16  O   UNL     1      -1.019  -1.575   1.267  0.00  0.00    -0.245 OA
BRANCH  15  17
ATOM     17  O   UNL     1      -0.778  -1.650  -0.942  0.00  0.00    -0.462 OA
BRANCH  17  19
ATOM     18  C   UNL     1       1.181  -0.931  -2.160  0.00  0.00    +0.048 C 
ATOM     19  C   UNL     1       0.529  -1.093  -0.786  0.00  0.00    +0.229 C 
ENDBRANCH  17  19
ENDBRANCH  15  17
ENDBRANCH   1  15
BRANCH   2  20
ATOM     20  C   UNL     1      -1.789  -4.640  -0.210  0.00  0.00    +0.136 C 
BRANCH  20  21
ATOM     21  N   UNL     1      -1.770  -5.582   0.917  0.00  0.00    -0.294 NA
ATOM     22  C   UNL     1      -1.552  -4.878   2.188  0.00  0.00    +0.103 C 
ATOM     23  C   UNL     1      -1.719  -5.864   3.349  0.00  0.00    +0.120 C 
ATOM     24  N   UNL     1      -0.834  -7.016   3.116  0.00  0.00    -0.326 N 
ATOM     25  C   UNL     1      -0.899  -7.689   1.810  0.00  0.00    +0.120 C 
ATOM     26  C   UNL     1      -0.764  -6.632   0.709  0.00  0.00    +0.103 C 
BRANCH  24  27
ATOM     27  C   UNL     1       0.045  -7.458   4.108  0.00  0.00    +0.048 A 
ATOM     28  C   UNL     1      -0.364  -8.420   5.022  0.00  0.00    +0.024 A 
ATOM     29  C   UNL     1       0.508  -8.855   6.001  0.00  0.00    +0.002 A 
ATOM     30  C   UNL     1       1.787  -8.333   6.073  0.00  0.00    +0.002 A 
ATOM     31  C   UNL     1       2.198  -7.375   5.165  0.00  0.00    +0.022 A 
ATOM     32  C   UNL     1       1.333  -6.939   4.179  0.00  0.00    +0.062 A 
ATOM     33 CL   UNL     1       1.852  -5.741   3.034  0.00  0.00    -0.082 Cl
ENDBRANCH  24  27
ENDBRANCH  20  21
ENDBRANCH   2  20
TORSDOF 7
