REMARK  Name = ZINC54632815
REMARK  10 active torsions:
REMARK  status: ('A' for Active; 'I' for Inactive)
REMARK    1  A    between atoms: C_1  and  C_2
REMARK    2  A    between atoms: C_2  and  C_22
REMARK    3  A    between atoms: N_5  and  C_9
REMARK    4  A    between atoms: C_9  and  C_10
REMARK    5  A    between atoms: N_12  and  C_13
REMARK    6  A    between atoms: C_13  and  C_14
REMARK    7  A    between atoms: C_14  and  C_15
REMARK    8  A    between atoms: C_18  and  O_21
REMARK    9  A    between atoms: C_25  and  O_28
REMARK   10  A    between atoms: O_28  and  C_29
REMARK                            x       y       z     vdW  Elec       q    Type
REMARK                         _______ _______ _______ _____ _____    ______ ____
ROOT
ATOM      1  C   UNL     1      -0.019   1.526   0.010  0.00  0.00    +0.047 C 
ATOM      2  C   UNL     1       0.002  -0.004   0.002  0.00  0.00    +0.135 C 
ATOM      3  C   UNL     1       0.815  -0.520  -1.169  0.00  0.00    +0.251 C 
ATOM      4  O   UNL     1       0.595  -0.342  -2.348  0.00  0.00    -0.272 OA
ATOM      5  N   UNL     1       1.833  -1.217  -0.627  0.00  0.00    -0.215 N 
ATOM      6  C   UNL     1       1.777  -1.214   0.710  0.00  0.00    +0.310 C 
ATOM      7  O   UNL     1       2.586  -1.776   1.421  0.00  0.00    -0.252 OA
ATOM      8  N   UNL     1       0.724  -0.519   1.178  0.00  0.00    -0.281 N 
ATOM      9  H   UNL     1       0.487  -0.383   2.109  0.00  0.00    +0.152 HD
ENDROOT
BRANCH   2  10
ATOM     10  C   UNL     1      -1.401  -0.551  -0.040  0.00  0.00    -0.015 A 
ATOM     11  C   UNL     1      -2.004  -0.814  -1.256  0.00  0.00    +0.010 A 
ATOM     12  C   UNL     1      -3.290  -1.316  -1.298  0.00  0.00    +0.046 A 
ATOM     13  C   UNL     1      -3.978  -1.556  -0.117  0.00  0.00    +0.120 A 
ATOM     14  C   UNL     1      -3.371  -1.292   1.102  0.00  0.00    +0.046 A 
ATOM     15  C   UNL     1      -2.082  -0.796   1.138  0.00  0.00    +0.010 A 
BRANCH  13  16
ATOM     16  O   UNL     1      -5.244  -2.049  -0.155  0.00  0.00    -0.495 OA
ATOM     17  C   UNL     1      -5.891  -2.272   1.099  0.00  0.00    +0.277 C 
ENDBRANCH  13  16
ENDBRANCH   2  10
BRANCH   5  18
ATOM     18  C   UNL     1       2.871  -1.896  -1.406  0.00  0.00    +0.213 C 
BRANCH  18  19
ATOM     19  C   UNL     1       4.020  -0.950  -1.644  0.00  0.00    +0.231 C 
ATOM     20  O   UNL     1       3.975   0.180  -1.206  0.00  0.00    -0.274 OA
ATOM     21  N   UNL     1       5.097  -1.360  -2.343  0.00  0.00    -0.314 N 
ATOM     22  H   UNL     1       5.133  -2.264  -2.693  0.00  0.00    +0.149 HD
BRANCH  21  23
ATOM     23  C   UNL     1       6.213  -0.440  -2.574  0.00  0.00    +0.109 C 
BRANCH  23  24
ATOM     24  C   UNL     1       7.298  -1.149  -3.387  0.00  0.00    +0.054 C 
BRANCH  24  25
ATOM     25  C   UNL     1       8.447  -0.203  -3.625  0.00  0.00    -0.046 A 
ATOM     26  C   UNL     1       8.453   0.607  -4.745  0.00  0.00    +0.007 A 
ATOM     27  C   UNL     1       9.505   1.475  -4.966  0.00  0.00    +0.045 A 
ATOM     28  C   UNL     1      10.555   1.534  -4.062  0.00  0.00    +0.117 A 
ATOM     29  C   UNL     1      10.546   0.721  -2.938  0.00  0.00    +0.045 A 
ATOM     30  C   UNL     1       9.490  -0.142  -2.719  0.00  0.00    +0.007 A 
BRANCH  28  31
ATOM     31  O   UNL     1      11.591   2.387  -4.277  0.00  0.00    -0.507 OA
ATOM     32  H   UNL     1      11.467   3.263  -3.887  0.00  0.00    +0.292 HD
ENDBRANCH  28  31
ENDBRANCH  24  25
ENDBRANCH  23  24
ENDBRANCH  21  23
ENDBRANCH  18  19
ENDBRANCH   5  18
TORSDOF 8
