REMARK  Name = ZINC14158090
REMARK  8 active torsions:
REMARK  status: ('A' for Active; 'I' for Inactive)
REMARK    1  A    between atoms: C_1  and  C_2
REMARK    2  A    between atoms: C_4  and  C_35
REMARK    3  A    between atoms: N_10  and  C_11
REMARK    4  A    between atoms: C_11  and  N_13
REMARK    5  A    between atoms: N_13  and  C_14
REMARK    6  A    between atoms: N_22  and  C_23
REMARK    7  A    between atoms: C_23  and  C_24
REMARK    8  A    between atoms: C_24  and  C_25
REMARK                            x       y       z     vdW  Elec       q    Type
REMARK                         _______ _______ _______ _____ _____    ______ ____
ROOT
ATOM      1  C   UNL     1      -7.152  -3.315  -5.849  0.00  0.00    +0.066 C 
ATOM      2  C   UNL     1      -5.811  -2.631  -5.936  0.00  0.00    +0.044 A 
ATOM      3  C   UNL     1      -5.319  -2.204  -7.160  0.00  0.00    +0.046 A 
ATOM      4  C   UNL     1      -4.083  -1.579  -7.194  0.00  0.00    +0.044 A 
ATOM      5  N   UNL     1      -3.413  -1.411  -6.066  0.00  0.00    -0.217 NA
ATOM      6  C   UNL     1      -3.912  -1.831  -4.914  0.00  0.00    +0.231 A 
ATOM      7  N   UNL     1      -5.088  -2.435  -4.846  0.00  0.00    -0.217 NA
ATOM      8  N   UNL     1      -3.181  -1.638  -3.749  0.00  0.00    -0.297 N 
ATOM      9  C   UNL     1      -3.631  -2.156  -2.565  0.00  0.00    +0.195 C 
ATOM     10  N   UNL     1      -4.707  -2.925  -2.546  0.00  0.00    -0.159 NA
ATOM     11  N   UNL     1      -2.970  -1.880  -1.403  0.00  0.00    -0.357 N 
ATOM     12  C   UNL     1      -3.508  -1.098  -8.502  0.00  0.00    +0.066 C 
ATOM     13  H   UNL     1      -2.241  -1.068  -3.777  0.00  0.00    +0.171 HD
ATOM     14  H   UNL     1      -3.377  -2.228  -0.442  0.00  0.00    +0.162 HD
ENDROOT
BRANCH  10  15
ATOM     15  C   UNL     1      -5.208  -3.349  -1.377  0.00  0.00    +0.162 C 
ATOM     16  S   UNL     1      -5.852  -2.220  -0.262  0.00  0.00    -0.016 S 
BRANCH  15  17
ATOM     17  N   UNL     1      -5.204  -4.663  -1.079  0.00  0.00    -0.294 N 
ATOM     18  H   UNL     1      -4.701  -5.377  -1.748  0.00  0.00    +0.154 HD
BRANCH  17  19
ATOM     19  C   UNL     1      -5.840  -5.120   0.081  0.00  0.00    +0.051 A 
ATOM     20  C   UNL     1      -7.016  -4.519   0.512  0.00  0.00    +0.026 A 
ATOM     21  C   UNL     1      -7.642  -4.971   1.657  0.00  0.00    +0.022 A 
ATOM     22  C   UNL     1      -7.099  -6.023   2.375  0.00  0.00    +0.042 A 
ATOM     23  C   UNL     1      -5.928  -6.624   1.948  0.00  0.00    +0.041 A 
ATOM     24  C   UNL     1      -5.300  -6.179   0.800  0.00  0.00    +0.063 A 
ATOM     25 CL   UNL     1      -3.835  -6.938   0.261  0.00  0.00    -0.082 Cl
ATOM     26 CL   UNL     1      -7.889  -6.589   3.813  0.00  0.00    -0.083 Cl
ENDBRANCH  17  19
ENDBRANCH  15  17
ENDBRANCH  10  15
BRANCH  11  27
ATOM     27  C   UNL     1      -1.718  -1.120  -1.436  0.00  0.00    +0.120 C 
BRANCH  27  28
ATOM     28  C   UNL     1      -1.122  -1.057  -0.028  0.00  0.00    +0.058 C 
BRANCH  28  29
ATOM     29  C   UNL     1       0.099  -0.174  -0.038  0.00  0.00    -0.021 A 
ATOM     30  C   UNL     1       1.377  -0.580  -0.080  0.00  0.00    +0.087 A 
ATOM     31  N   UNL     1       2.212   0.505  -0.075  0.00  0.00    -0.360 N 
ATOM     32  H   UNL     1       3.302   0.361  -0.106  0.00  0.00    +0.165 HD
ATOM     33  C   UNL     1       1.471   1.665  -0.029  0.00  0.00    +0.047 A 
ATOM     34  C   UNL     1       0.115   1.291  -0.004  0.00  0.00    +0.003 A 
ATOM     35  C   UNL     1      -0.877   2.271   0.050  0.00  0.00    +0.010 A 
ATOM     36  C   UNL     1      -0.526   3.592   0.068  0.00  0.00    +0.001 A 
ATOM     37  C   UNL     1       0.810   3.966   0.043  0.00  0.00    +0.002 A 
ATOM     38  C   UNL     1       1.806   3.015  -0.004  0.00  0.00    +0.026 A 
ENDBRANCH  28  29
ENDBRANCH  27  28
ENDBRANCH  11  27
TORSDOF 6
