REMARK  Name = ZINC31055802
REMARK  6 active torsions:
REMARK  status: ('A' for Active; 'I' for Inactive)
REMARK    1  A    between atoms: C_4  and  C_7
REMARK    2  A    between atoms: C_7  and  N_8
REMARK    3  A    between atoms: C_11  and  N_14
REMARK    4  A    between atoms: N_17  and  C_18
REMARK    5  A    between atoms: C_18  and  C_19
REMARK    6  A    between atoms: N_23  and  C_25
REMARK                            x       y       z     vdW  Elec       q    Type
REMARK                         _______ _______ _______ _____ _____    ______ ____
ROOT
ATOM      1  N   UNL     1       6.388  -1.099   4.912  0.00  0.00    -0.297 N 
ATOM      2  C   UNL     1       7.655  -1.400   5.256  0.00  0.00    +0.300 C 
ATOM      3  O   UNL     1       8.527  -1.421   4.409  0.00  0.00    -0.253 OA
ATOM      4  N   UNL     1       7.957  -1.679   6.540  0.00  0.00    -0.299 N 
ATOM      5  H   UNL     1       5.692  -1.082   5.588  0.00  0.00    +0.151 HD
ATOM      6  H   UNL     1       7.262  -1.662   7.216  0.00  0.00    +0.150 HD
ENDROOT
BRANCH   1  10
ATOM      7  N   UNL     1       4.153  -0.953   1.342  0.00  0.00    +0.382 N 
ATOM      8  C   UNL     1       4.424   0.329   2.003  0.00  0.00    -0.077 C 
ATOM      9  C   UNL     1       4.807   0.083   3.464  0.00  0.00    +0.004 C 
ATOM     10  C   UNL     1       6.060  -0.796   3.517  0.00  0.00    +0.071 C 
ATOM     11  C   UNL     1       5.790  -2.099   2.760  0.00  0.00    +0.004 C 
ATOM     12  C   UNL     1       5.371  -1.772   1.325  0.00  0.00    -0.077 C 
ATOM     13  H   UNL     1       3.427  -1.441   1.844  0.00  0.00    -0.081 HD
BRANCH   7  14
ATOM     14  C   UNL     1       3.711  -0.707  -0.038  0.00  0.00    -0.043 C 
BRANCH  14  18
ATOM     15  C   UNL     1      -0.017   1.378   0.010  0.00  0.00    +0.000 A 
ATOM     16  C   UNL     1       1.171   2.086   0.002  0.00  0.00    +0.000 A 
ATOM     17  C   UNL     1       2.377   1.411  -0.013  0.00  0.00    +0.002 A 
ATOM     18  C   UNL     1       2.396   0.029  -0.020  0.00  0.00    -0.064 A 
ATOM     19  C   UNL     1       1.208  -0.679  -0.012  0.00  0.00    +0.002 A 
ATOM     20  C   UNL     1       0.002  -0.004   0.002  0.00  0.00    +0.000 A 
ENDBRANCH  14  18
ENDBRANCH   7  14
ENDBRANCH   1  10
BRANCH   4  21
ATOM     21  C   UNL     1       9.335  -2.007   6.914  0.00  0.00    +0.110 C 
BRANCH  21  22
ATOM     22  C   UNL     1       9.404  -2.278   8.418  0.00  0.00    +0.025 C 
ATOM     23  C   UNL     1       8.664  -3.595   8.773  0.00  0.00    +0.025 C 
ATOM     24  C   UNL     1       9.394  -4.023  10.070  0.00  0.00    +0.105 C 
ATOM     25  N   UNL     1      10.803  -3.650   9.851  0.00  0.00    -0.330 N 
ATOM     26  C   UNL     1      10.856  -2.565   8.856  0.00  0.00    +0.110 C 
BRANCH  25  27
ATOM     27  C   UNL     1      11.906  -4.227  10.484  0.00  0.00    +0.030 A 
ATOM     28  C   UNL     1      13.189  -3.780  10.193  0.00  0.00    +0.023 A 
ATOM     29  C   UNL     1      14.277  -4.352  10.821  0.00  0.00    +0.002 A 
ATOM     30  C   UNL     1      14.092  -5.369  11.739  0.00  0.00    +0.000 A 
ATOM     31  C   UNL     1      12.816  -5.817  12.032  0.00  0.00    +0.002 A 
ATOM     32  C   UNL     1      11.723  -5.245  11.411  0.00  0.00    +0.023 A 
ENDBRANCH  25  27
ENDBRANCH  21  22
ENDBRANCH   4  21
TORSDOF 6
