REMARK  Name = ZINC33871659
REMARK  10 active torsions:
REMARK  status: ('A' for Active; 'I' for Inactive)
REMARK    1  A    between atoms: C_1  and  O_2
REMARK    2  A    between atoms: O_2  and  C_3
REMARK    3  A    between atoms: C_7  and  C_10
REMARK    4  A    between atoms: C_8  and  O_9
REMARK    5  A    between atoms: N_18  and  C_21
REMARK    6  A    between atoms: C_21  and  C_22
REMARK    7  A    between atoms: C_28  and  C_30
REMARK    8  A    between atoms: C_28  and  C_38
REMARK    9  A    between atoms: C_30  and  C_31
REMARK   10  A    between atoms: C_34  and  O_37
REMARK                            x       y       z     vdW  Elec       q    Type
REMARK                         _______ _______ _______ _____ _____    ______ ____
ROOT
ATOM      1  C   UNL     1      -2.549  -4.175   0.017  0.00  0.00    -0.023 C 
ATOM      2  C   UNL     1      -2.487  -4.703  -1.407  0.00  0.00    +0.077 C 
ATOM      3  C   UNL     1      -4.022  -4.615  -1.756  0.00  0.00    +0.086 C 
ATOM      4  C   UNL     1      -4.003  -4.723  -3.193  0.00  0.00    +0.225 C 
ATOM      5  O   UNL     1      -4.829  -5.253  -3.904  0.00  0.00    -0.275 OA
ATOM      6  N   UNL     1      -2.846  -4.094  -3.582  0.00  0.00    -0.237 N 
ATOM      7  C   UNL     1      -1.985  -3.855  -2.534  0.00  0.00    +0.225 C 
ATOM      8  O   UNL     1      -1.027  -3.113  -2.518  0.00  0.00    -0.275 OA
ATOM      9  C   UNL     1      -4.639  -5.258  -0.583  0.00  0.00    +0.052 C 
ATOM     10  N   UNL     1      -3.862  -4.636   0.560  0.00  0.00    +0.396 N 
ATOM     11  H   UNL     1      -3.711  -5.327   1.280  0.00  0.00    -0.083 HD
ATOM     12  H   UNL     1      -4.370  -3.851   0.940  0.00  0.00    -0.083 HD
ENDROOT
BRANCH   1  17
ATOM     13  C   UNL     1      -1.204  -0.638   0.109  0.00  0.00    +0.161 A 
ATOM     14  C   UNL     1      -2.374   0.099   0.019  0.00  0.00    +0.049 A 
ATOM     15  C   UNL     1      -3.593  -0.547  -0.072  0.00  0.00    +0.004 A 
ATOM     16  C   UNL     1      -3.648  -1.928  -0.072  0.00  0.00    +0.006 A 
ATOM     17  C   UNL     1      -2.485  -2.669   0.017  0.00  0.00    -0.015 A 
ATOM     18  C   UNL     1      -1.260  -2.028   0.102  0.00  0.00    +0.160 A 
BRANCH  13  20
ATOM     19  C   UNL     1      -0.024   1.425   0.198  0.00  0.00    +0.277 C 
ATOM     20  O   UNL     1      -0.005  -0.004   0.197  0.00  0.00    -0.491 OA
ENDBRANCH  13  20
BRANCH  18  21
ATOM     21  O   UNL     1      -0.114  -2.756   0.184  0.00  0.00    -0.503 OA
ATOM     22  H   UNL     1       0.153  -2.968   1.089  0.00  0.00    +0.292 HD
ENDBRANCH  18  21
ENDBRANCH   1  17
BRANCH   9  23
ATOM     23  C   UNL     1      -4.450  -6.753  -0.631  0.00  0.00    +0.347 C 
ATOM     24  O   UNL     1      -3.850  -7.321   0.265  0.00  0.00    -0.248 OA
ATOM     25  O   UNL     1      -4.899  -7.394  -1.566  0.00  0.00    -0.248 OA
ENDBRANCH   9  23
BRANCH   6  26
ATOM     26  C   UNL     1      -2.549  -3.726  -4.969  0.00  0.00    +0.151 C 
BRANCH  26  27
ATOM     27  C   UNL     1      -3.065  -2.337  -5.241  0.00  0.00    -0.030 A 
ATOM     28  C   UNL     1      -4.354  -2.157  -5.707  0.00  0.00    +0.005 A 
ATOM     29  C   UNL     1      -4.827  -0.882  -5.957  0.00  0.00    +0.000 A 
ATOM     30  C   UNL     1      -4.012   0.213  -5.740  0.00  0.00    +0.000 A 
ATOM     31  C   UNL     1      -2.723   0.033  -5.273  0.00  0.00    +0.000 A 
ATOM     32  C   UNL     1      -2.251  -1.241  -5.019  0.00  0.00    +0.005 A 
ENDBRANCH  26  27
ENDBRANCH   6  26
BRANCH   9  33
ATOM     33  C   UNL     1      -6.122  -4.899  -0.482  0.00  0.00    +0.035 C 
BRANCH  33  34
ATOM     34  C   UNL     1      -6.693  -5.470   0.790  0.00  0.00    -0.048 A 
ATOM     35  C   UNL     1      -7.233  -6.743   0.794  0.00  0.00    +0.007 A 
ATOM     36  C   UNL     1      -7.757  -7.268   1.959  0.00  0.00    +0.045 A 
ATOM     37  C   UNL     1      -7.740  -6.519   3.126  0.00  0.00    +0.117 A 
ATOM     38  C   UNL     1      -7.197  -5.242   3.120  0.00  0.00    +0.045 A 
ATOM     39  C   UNL     1      -6.670  -4.723   1.953  0.00  0.00    +0.007 A 
BRANCH  37  40
ATOM     40  O   UNL     1      -8.255  -7.033   4.273  0.00  0.00    -0.507 OA
ATOM     41  H   UNL     1      -7.613  -7.518   4.810  0.00  0.00    +0.292 HD
ENDBRANCH  37  40
ENDBRANCH  33  34
ENDBRANCH   9  33
TORSDOF 9
