REMARK  Name = ZINC45841144
REMARK  16 active torsions:
REMARK  status: ('A' for Active; 'I' for Inactive)
REMARK    1  A    between atoms: C_1  and  C_2
REMARK    2  A    between atoms: C_2  and  C_3
REMARK    3  A    between atoms: C_2  and  C_4
REMARK    4  A    between atoms: C_4  and  C_5
REMARK    5  A    between atoms: C_8  and  C_11
REMARK    6  A    between atoms: C_11  and  C_13
REMARK    7  A    between atoms: C_11  and  N_16
REMARK    8  A    between atoms: C_13  and  C_14
REMARK    9  A    between atoms: C_13  and  C_15
REMARK   10  A    between atoms: N_16  and  C_17
REMARK   11  A    between atoms: C_17  and  C_18
REMARK   12  A    between atoms: N_20  and  C_21
REMARK   13  A    between atoms: C_21  and  C_22
REMARK   14  A    between atoms: C_26  and  N_28
REMARK   15  A    between atoms: N_28  and  S_29
REMARK   16  A    between atoms: S_29  and  C_32
REMARK                            x       y       z     vdW  Elec       q    Type
REMARK                         _______ _______ _______ _____ _____    ______ ____
ROOT
ATOM      1  C   UNL     1       6.798  -0.411  -2.728  0.00  0.00    +0.016 C 
ENDROOT
BRANCH   1   2
ATOM      2  C   UNL     1       7.614  -1.642  -3.030  0.00  0.00    +0.196 C 
ATOM      3  O   UNL     1       8.249  -2.181  -2.148  0.00  0.00    -0.278 OA
ATOM      4  N   UNL     1       7.638  -2.144  -4.281  0.00  0.00    -0.313 N 
ATOM      5  H   UNL     1       7.131  -1.713  -4.986  0.00  0.00    +0.149 HD
BRANCH   4   6
ATOM      6  C   UNL     1       8.431  -3.340  -4.575  0.00  0.00    +0.139 C 
BRANCH   6   7
ATOM      7  C   UNL     1       8.289  -3.691  -6.033  0.00  0.00    -0.029 A 
ATOM      8  C   UNL     1       7.275  -4.538  -6.444  0.00  0.00    +0.005 A 
ATOM      9  C   UNL     1       7.141  -4.863  -7.781  0.00  0.00    +0.002 A 
ATOM     10  C   UNL     1       8.020  -4.343  -8.712  0.00  0.00    +0.024 A 
ATOM     11  C   UNL     1       9.039  -3.492  -8.303  0.00  0.00    +0.048 A 
ATOM     12  C   UNL     1       9.167  -3.163  -6.959  0.00  0.00    +0.029 A 
BRANCH  11  13
ATOM     13  N   UNL     1       9.929  -2.964  -9.241  0.00  0.00    -0.221 N 
ATOM     14  H   UNL     1      10.881  -2.958  -9.055  0.00  0.00    +0.173 HD
BRANCH  13  15
ATOM     15  S   UNL     1       9.359  -2.350 -10.669  0.00  0.00    +0.040 S 
ATOM     16  O   UNL     1      10.520  -1.933 -11.373  0.00  0.00    -0.155 OA
ATOM     17  O   UNL     1       8.521  -3.370 -11.194  0.00  0.00    -0.155 OA
ATOM     18  C   UNL     1       8.365  -0.909 -10.193  0.00  0.00    +0.218 C 
ENDBRANCH  13  15
ENDBRANCH  11  13
ENDBRANCH   6   7
ENDBRANCH   4   6
ENDBRANCH   1   2
BRANCH   1  19
ATOM     19  N   UNL     1       6.937  -0.069  -1.306  0.00  0.00    +0.389 N 
ATOM     20  H   UNL     1       7.915   0.034  -1.079  0.00  0.00    -0.084 HD
ATOM     21  H   UNL     1       6.536  -0.804  -0.743  0.00  0.00    -0.084 HD
BRANCH  19  22
ATOM     22  C   UNL     1       6.237   1.193  -1.036  0.00  0.00    -0.038 C 
BRANCH  22  26
ATOM     23  C   UNL     1       2.044   0.652  -1.648  0.00  0.00    -0.047 A 
ATOM     24  C   UNL     1       2.658   1.821  -2.061  0.00  0.00    +0.004 A 
ATOM     25  C   UNL     1       4.014   1.996  -1.862  0.00  0.00    +0.002 A 
ATOM     26  C   UNL     1       4.757   1.003  -1.251  0.00  0.00    -0.061 A 
ATOM     27  C   UNL     1       4.143  -0.165  -0.838  0.00  0.00    +0.002 A 
ATOM     28  C   UNL     1       2.786  -0.338  -1.032  0.00  0.00    +0.004 A 
BRANCH  23  29
ATOM     29  C   UNL     1       0.565   0.462  -1.865  0.00  0.00    +0.038 C 
BRANCH  29  31
ATOM     30  C   UNL     1       0.001   2.510  -0.550  0.00  0.00    +0.007 C 
ATOM     31  C   UNL     1      -0.201   0.997  -0.653  0.00  0.00    -0.013 C 
ATOM     32  C   UNL     1      -1.692   0.691  -0.816  0.00  0.00    +0.007 C 
ENDBRANCH  29  31
ENDBRANCH  23  29
ENDBRANCH  22  26
BRANCH  22  33
ATOM     33  C   UNL     1       6.491   1.618   0.412  0.00  0.00    -0.027 C 
ATOM     34  C   UNL     1       7.985   1.879   0.612  0.00  0.00    +0.006 C 
ATOM     35  C   UNL     1       5.705   2.895   0.715  0.00  0.00    +0.006 C 
ENDBRANCH  22  33
ENDBRANCH  19  22
ENDBRANCH   1  19
TORSDOF 11
