REMARK  Name = ZINC44714270
REMARK  9 active torsions:
REMARK  status: ('A' for Active; 'I' for Inactive)
REMARK    1  A    between atoms: C_1  and  C_2
REMARK    2  A    between atoms: C_3  and  C_9
REMARK    3  A    between atoms: C_4  and  C_8
REMARK    4  A    between atoms: C_9  and  C_11
REMARK    5  A    between atoms: C_9  and  N_12
REMARK    6  A    between atoms: C_13  and  C_15
REMARK    7  A    between atoms: C_26  and  C_28
REMARK    8  A    between atoms: C_29  and  C_39
REMARK    9  A    between atoms: C_32  and  C_33
REMARK                            x       y       z     vdW  Elec       q    Type
REMARK                         _______ _______ _______ _____ _____    ______ ____
ROOT
ATOM      1  C   UNL     1       2.526  -1.343  -5.213  0.00  0.00    +0.100 C 
ATOM      2  C   UNL     1       1.927  -2.694  -5.663  0.00  0.00    +0.121 C 
ATOM      3  N   UNL     1       1.418  -2.441  -7.031  0.00  0.00    -0.296 N 
ATOM      4  C   UNL     1       2.442  -1.567  -7.650  0.00  0.00    +0.115 C 
ATOM      5  C   UNL     1       2.866  -0.607  -6.520  0.00  0.00    -0.004 C 
ATOM      6  C   UNL     1       2.079   0.696  -6.613  0.00  0.00    -0.010 C 
ATOM      7  C   UNL     1       2.476   1.437  -7.893  0.00  0.00    -0.082 C 
ATOM      8  N   UNL     1       3.918   1.713  -7.873  0.00  0.00    +0.379 N 
ATOM      9  C   UNL     1       4.669   0.452  -7.877  0.00  0.00    -0.082 C 
ATOM     10  C   UNL     1       4.364  -0.330  -6.596  0.00  0.00    -0.010 C 
ATOM     11  C   UNL     1       0.280  -2.902  -7.588  0.00  0.00    +0.252 C 
ATOM     12  O   UNL     1      -0.001  -2.604  -8.733  0.00  0.00    -0.270 OA
ATOM     13  H   UNL     1       4.167   2.254  -8.688  0.00  0.00    -0.086 HD
ATOM     14  H   UNL     1       4.147   2.237  -7.042  0.00  0.00    -0.086 HD
ENDROOT
BRANCH  11  15
ATOM     15  C   UNL     1      -0.622  -3.768  -6.810  0.00  0.00    +0.106 A 
ATOM     16  C   UNL     1      -1.660  -3.362  -6.022  0.00  0.00    +0.147 A 
ATOM     17  O   UNL     1      -2.230  -4.446  -5.490  0.00  0.00    -0.359 OA
ATOM     18  N   UNL     1      -1.552  -5.603  -5.937  0.00  0.00    -0.077 NA
ATOM     19  C   UNL     1      -0.583  -5.236  -6.736  0.00  0.00    +0.126 A 
ATOM     20  C   UNL     1      -2.089  -1.936  -5.793  0.00  0.00    +0.090 C 
BRANCH  19  21
ATOM     21  C   UNL     1       0.374  -6.130  -7.433  0.00  0.00    +0.004 A 
ATOM     22  C   UNL     1       0.840  -5.801  -8.704  0.00  0.00    +0.010 A 
ATOM     23  C   UNL     1       1.731  -6.636  -9.348  0.00  0.00    +0.001 A 
ATOM     24  C   UNL     1       2.162  -7.798  -8.732  0.00  0.00    +0.000 A 
ATOM     25  C   UNL     1       1.702  -8.130  -7.471  0.00  0.00    +0.001 A 
ATOM     26  C   UNL     1       0.816  -7.299  -6.816  0.00  0.00    +0.010 A 
ENDBRANCH  19  21
ENDBRANCH  11  15
BRANCH   1  28
ATOM     27  N   UNL     1       1.925   0.383  -3.546  0.00  0.00    -0.308 N 
ATOM     28  C   UNL     1       1.514  -0.559  -4.418  0.00  0.00    +0.219 C 
ATOM     29  O   UNL     1       0.329  -0.775  -4.563  0.00  0.00    -0.275 OA
ATOM     30  H   UNL     1       2.872   0.556  -3.430  0.00  0.00    +0.149 HD
BRANCH  27  31
ATOM     31  C   UNL     1       0.941   1.145  -2.773  0.00  0.00    +0.104 C 
ATOM     32  C   UNL     1       0.559   0.358  -1.517  0.00  0.00    +0.033 C 
BRANCH  31  35
ATOM     33  C   UNL     1      -0.475   3.928  -2.962  0.00  0.00    +0.065 C 
ATOM     34  C   UNL     1       0.921   3.675  -2.455  0.00  0.00    +0.038 A 
ATOM     35  C   UNL     1       1.534   2.471  -2.373  0.00  0.00    +0.015 A 
ATOM     36  C   UNL     1       2.816   2.676  -1.852  0.00  0.00    +0.065 A 
ATOM     37  N   UNL     1       2.967   3.957  -1.629  0.00  0.00    -0.179 NA
ATOM     38  N   UNL     1       1.786   4.609  -2.007  0.00  0.00    -0.281 N 
ATOM     39  H   UNL     1       1.619   5.563  -1.953  0.00  0.00    +0.189 HD
ATOM     40  C   UNL     1       3.846   1.607  -1.592  0.00  0.00    +0.068 C 
ENDBRANCH  31  35
ENDBRANCH  27  31
ENDBRANCH   1  28
TORSDOF 5
