REMARK  Name = ZINC06409970
REMARK  9 active torsions:
REMARK  status: ('A' for Active; 'I' for Inactive)
REMARK    1  A    between atoms: C_1  and  C_2
REMARK    2  A    between atoms: C_7  and  C_14
REMARK    3  A    between atoms: C_14  and  C_16
REMARK    4  A    between atoms: C_14  and  N_67
REMARK    5  A    between atoms: N_20  and  C_21
REMARK    6  A    between atoms: C_26  and  C_27
REMARK    7  A    between atoms: C_26  and  N_67
REMARK    8  A    between atoms: C_34  and  C_35
REMARK    9  A    between atoms: C_34  and  N_67
REMARK                            x       y       z     vdW  Elec       q    Type
REMARK                         _______ _______ _______ _____ _____    ______ ____
ROOT
ATOM      1  C   UNL     1      -2.476   0.764   0.060  0.00  0.00    +0.040 C 
ENDROOT
BRANCH   1   8
ATOM      2  C   UNL     1       4.785   4.064   0.053  0.00  0.00    +0.044 C 
ATOM      3  C   UNL     1       3.526   3.237   0.067  0.00  0.00    -0.048 A 
ATOM      4  C   UNL     1       3.614   1.852   0.124  0.00  0.00    +0.004 A 
ATOM      5  C   UNL     1       2.485   1.083   0.137  0.00  0.00    +0.010 A 
ATOM      6  C   UNL     1       1.229   1.696   0.093  0.00  0.00    -0.001 A 
ATOM      7  C   UNL     1      -0.002   0.902   0.106  0.00  0.00    +0.017 A 
ATOM      8  C   UNL     1      -1.191   1.551   0.056  0.00  0.00    +0.011 A 
ATOM      9  C   UNL     1      -1.231   2.961   0.003  0.00  0.00    +0.251 A 
ATOM     10  O   UNL     1      -2.311   3.524  -0.036  0.00  0.00    -0.268 OA
ATOM     11  N   UNL     1      -0.106   3.698  -0.009  0.00  0.00    -0.322 N 
ATOM     12  H   UNL     1      -0.169   4.665  -0.048  0.00  0.00    +0.169 HD
ATOM     13  C   UNL     1       1.135   3.099   0.036  0.00  0.00    +0.049 A 
ATOM     14  C   UNL     1       2.298   3.862   0.022  0.00  0.00    +0.029 A 
ENDBRANCH   1   8
BRANCH   1  15
ATOM     15  C   UNL     1      -3.183   0.948  -1.258  0.00  0.00    +0.143 A 
ATOM     16  N   UNL     1      -3.840   2.011  -1.652  0.00  0.00    -0.115 NA
ATOM     17  N   UNL     1      -4.298   1.781  -2.834  0.00  0.00    -0.023 NA
ATOM     18  N   UNL     1      -3.950   0.599  -3.205  0.00  0.00    -0.044 NA
ATOM     19  N   UNL     1      -3.257   0.055  -2.263  0.00  0.00    -0.227 N 
BRANCH  19  20
ATOM     20  C   UNL     1      -2.663  -1.285  -2.281  0.00  0.00    +0.111 C 
ATOM     21  C   UNL     1      -1.704  -1.421  -3.481  0.00  0.00    +0.027 C 
ATOM     22  C   UNL     1      -1.909  -2.878  -3.966  0.00  0.00    +0.002 C 
ATOM     23  C   UNL     1      -3.432  -3.089  -3.783  0.00  0.00    +0.002 C 
ATOM     24  C   UNL     1      -3.762  -2.345  -2.473  0.00  0.00    +0.027 C 
ENDBRANCH  19  20
ENDBRANCH   1  15
BRANCH   1  25
ATOM     25  N   UNL     1      -3.347   1.268   1.143  0.00  0.00    +0.397 N 
ATOM     26  H   UNL     1      -3.615   2.236   0.932  0.00  0.00    -0.079 HD
BRANCH  25  27
ATOM     27  C   UNL     1      -2.619   1.242   2.429  0.00  0.00    -0.041 C 
BRANCH  27  28
ATOM     28  C   UNL     1      -3.364   2.094   3.424  0.00  0.00    -0.064 A 
ATOM     29  C   UNL     1      -3.159   3.461   3.453  0.00  0.00    +0.004 A 
ATOM     30  C   UNL     1      -3.846   4.244   4.362  0.00  0.00    +0.038 A 
ATOM     31  C   UNL     1      -4.731   3.657   5.251  0.00  0.00    +0.123 A 
ATOM     32  C   UNL     1      -4.931   2.287   5.224  0.00  0.00    +0.038 A 
ATOM     33  C   UNL     1      -4.247   1.507   4.311  0.00  0.00    +0.004 A 
ATOM     34  F   UNL     1      -5.399   4.421   6.143  0.00  0.00    -0.205 F 
ENDBRANCH  27  28
ENDBRANCH  25  27
BRANCH  25  35
ATOM     35  C   UNL     1      -4.568   0.440   1.237  0.00  0.00    -0.001 C 
BRANCH  35  36
ATOM     36  C   UNL     1      -4.210  -1.005   1.471  0.00  0.00    +0.089 A 
ATOM     37  C   UNL     1      -4.150  -1.616   2.667  0.00  0.00    +0.042 A 
ATOM     38  C   UNL     1      -3.779  -2.959   2.423  0.00  0.00    +0.041 A 
ATOM     39  C   UNL     1      -3.635  -3.087   1.092  0.00  0.00    +0.195 A 
ATOM     40  O   UNL     1      -3.903  -1.902   0.520  0.00  0.00    -0.470 OA
ENDBRANCH  35  36
ENDBRANCH  25  35
ENDBRANCH   1  25
TORSDOF 8
