REMARK  Name = ZINC63830696
REMARK  12 active torsions:
REMARK  status: ('A' for Active; 'I' for Inactive)
REMARK    1  A    between atoms: C_1  and  C_2
REMARK    2  A    between atoms: C_2  and  C_3
REMARK    3  A    between atoms: C_3  and  C_35
REMARK    4  A    between atoms: N_6  and  C_10
REMARK    5  A    between atoms: C_10  and  C_11
REMARK    6  A    between atoms: N_13  and  C_14
REMARK    7  A    between atoms: C_14  and  C_15
REMARK    8  A    between atoms: C_15  and  C_17
REMARK    9  A    between atoms: C_15  and  C_26
REMARK   10  A    between atoms: C_20  and  N_23
REMARK   11  A    between atoms: N_23  and  C_24
REMARK   12  A    between atoms: N_23  and  C_25
REMARK                            x       y       z     vdW  Elec       q    Type
REMARK                         _______ _______ _______ _____ _____    ______ ____
ROOT
ATOM      1  C   UNL     1       1.671  -7.267   5.666  0.00  0.00    +0.064 C 
ENDROOT
BRANCH   1   2
ATOM      2  C   UNL     1       1.647  -8.200   4.482  0.00  0.00    -0.033 C 
ATOM      3  C   UNL     1       0.611  -8.965   4.071  0.00  0.00    -0.000 A 
ATOM      4  C   UNL     1      -0.752  -9.152   4.584  0.00  0.00    +0.010 A 
ATOM      5  C   UNL     1      -1.581 -10.008   3.945  0.00  0.00    +0.001 A 
ATOM      6  C   UNL     1      -1.173 -10.719   2.808  0.00  0.00    +0.002 A 
ATOM      7  C   UNL     1       0.062 -10.600   2.278  0.00  0.00    +0.026 A 
ATOM      8  C   UNL     1       1.017  -9.727   2.869  0.00  0.00    +0.043 A 
ATOM      9  N   UNL     1       2.256  -9.444   2.549  0.00  0.00    -0.380 N 
ATOM     10  C   UNL     1       2.775  -8.464   3.510  0.00  0.00    +0.145 C 
ATOM     11  H   UNL     1       2.747  -9.816   1.800  0.00  0.00    +0.160 HD
ENDBRANCH   1   2
BRANCH   1  12
ATOM     12  C   UNL     1       2.752  -7.698   6.624  0.00  0.00    -0.039 A 
ATOM     13  C   UNL     1       4.070  -7.736   6.206  0.00  0.00    +0.006 A 
ATOM     14  C   UNL     1       5.062  -8.131   7.081  0.00  0.00    +0.023 A 
ATOM     15  C   UNL     1       4.736  -8.491   8.383  0.00  0.00    +0.029 A 
ATOM     16  C   UNL     1       3.411  -8.452   8.799  0.00  0.00    +0.023 A 
ATOM     17  C   UNL     1       2.424  -8.051   7.920  0.00  0.00    +0.006 A 
BRANCH  15  18
ATOM     18  N   UNL     1       5.737  -8.891   9.270  0.00  0.00    -0.336 N 
ATOM     19  C   UNL     1       7.114  -9.053   8.797  0.00  0.00    +0.129 C 
ATOM     20  C   UNL     1       5.410  -9.150  10.675  0.00  0.00    +0.129 C 
ENDBRANCH  15  18
ENDBRANCH   1  12
BRANCH   1  21
ATOM     21  C   UNL     1       1.954  -5.842   5.186  0.00  0.00    +0.116 C 
BRANCH  21  24
ATOM     22  C   UNL     1       0.875  -4.143   3.813  0.00  0.00    +0.231 C 
ATOM     23  O   UNL     1       1.823  -3.414   4.022  0.00  0.00    -0.274 OA
ATOM     24  N   UNL     1       0.844  -5.378   4.350  0.00  0.00    -0.313 N 
ATOM     25  H   UNL     1       0.087  -5.961   4.183  0.00  0.00    +0.149 HD
BRANCH  22  26
ATOM     26  C   UNL     1      -0.266  -3.666   2.953  0.00  0.00    +0.213 C 
BRANCH  26  30
ATOM     27  C   UNL     1       0.701  -0.488   1.292  0.00  0.00    +0.110 C 
ATOM     28  C   UNL     1       0.656  -2.002   1.353  0.00  0.00    +0.247 C 
ATOM     29  O   UNL     1       1.112  -2.781   0.544  0.00  0.00    -0.273 OA
ATOM     30  N   UNL     1       0.005  -2.301   2.494  0.00  0.00    -0.215 N 
ATOM     31  C   UNL     1      -0.365  -1.199   3.155  0.00  0.00    +0.310 C 
ATOM     32  O   UNL     1      -0.966  -1.214   4.211  0.00  0.00    -0.252 OA
ATOM     33  N   UNL     1       0.004  -0.071   2.521  0.00  0.00    -0.285 N 
ATOM     34  C   UNL     1       2.147   0.012   1.297  0.00  0.00    +0.041 C 
ATOM     35  H   UNL     1      -0.158   0.839   2.815  0.00  0.00    +0.151 HD
BRANCH  27  37
ATOM     36  C   UNL     1      -0.073   1.552   0.074  0.00  0.00    +0.006 C 
ATOM     37  C   UNL     1      -0.039   0.023   0.053  0.00  0.00    +0.031 C 
ENDBRANCH  27  37
ENDBRANCH  26  30
ENDBRANCH  22  26
ENDBRANCH  21  24
ENDBRANCH   1  21
TORSDOF 8
