REMARK  Name = ZINC01752939
REMARK  5 active torsions:
REMARK  status: ('A' for Active; 'I' for Inactive)
REMARK    1  A    between atoms: C_11  and  C_12
REMARK    2  A    between atoms: N_13  and  N_14
REMARK    3  A    between atoms: C_15  and  C_17
REMARK    4  A    between atoms: C_22  and  N_23
REMARK    5  A    between atoms: C_24  and  C_26
REMARK                            x       y       z     vdW  Elec       q    Type
REMARK                         _______ _______ _______ _____ _____    ______ ____
ROOT
ATOM      1  N   UNL     1       7.298   0.047   0.154  0.00  0.00    -0.226 N 
ATOM      2  C   UNL     1       8.457  -0.635   0.242  0.00  0.00    +0.263 C 
ATOM      3  O   UNL     1       8.448  -1.851   0.251  0.00  0.00    -0.268 OA
ATOM      4  H   UNL     1       7.305   1.017   0.146  0.00  0.00    +0.175 HD
ENDROOT
BRANCH   2   5
ATOM      5  C   UNL     1       9.737   0.094   0.326  0.00  0.00    +0.059 A 
ATOM      6  C   UNL     1       9.747   1.487   0.432  0.00  0.00    +0.015 A 
ATOM      7  C   UNL     1      10.946   2.162   0.510  0.00  0.00    +0.001 A 
ATOM      8  C   UNL     1      12.144   1.465   0.484  0.00  0.00    +0.002 A 
ATOM      9  C   UNL     1      12.150   0.089   0.380  0.00  0.00    +0.024 A 
ATOM     10  C   UNL     1      10.951  -0.608   0.306  0.00  0.00    +0.046 A 
BRANCH  10  11
ATOM     11  N   UNL     1      10.955  -1.997   0.207  0.00  0.00    -0.281 N 
ATOM     12  C   UNL     1      12.002  -2.703   0.676  0.00  0.00    +0.250 C 
ATOM     13  O   UNL     1      12.895  -2.139   1.277  0.00  0.00    -0.270 OA
ATOM     14  H   UNL     1      10.204  -2.456  -0.201  0.00  0.00    +0.155 HD
BRANCH  12  15
ATOM     15  C   UNL     1      12.065  -4.163   0.461  0.00  0.00    +0.055 A 
ATOM     16  C   UNL     1      11.043  -4.814  -0.234  0.00  0.00    +0.014 A 
ATOM     17  C   UNL     1      11.107  -6.177  -0.432  0.00  0.00    +0.001 A 
ATOM     18  C   UNL     1      12.181  -6.901   0.057  0.00  0.00    +0.001 A 
ATOM     19  C   UNL     1      13.197  -6.265   0.746  0.00  0.00    +0.021 A 
ATOM     20  C   UNL     1      13.149  -4.899   0.946  0.00  0.00    +0.053 A 
ATOM     21 CL   UNL     1      14.428  -4.099   1.805  0.00  0.00    -0.083 Cl
ENDBRANCH  12  15
ENDBRANCH  10  11
ENDBRANCH   2   5
BRANCH   1  23
ATOM     22  C   UNL     1       4.923   0.038  -0.013  0.00  0.00    +0.111 C 
ATOM     23  N   UNL     1       6.082  -0.644   0.074  0.00  0.00    -0.311 N 
ATOM     24  H   UNL     1       6.075  -1.614   0.082  0.00  0.00    +0.184 HD
BRANCH  22  35
ATOM     25  C   UNL     1      -0.005   1.399   0.078  0.00  0.00    +0.001 A 
ATOM     26  C   UNL     1       1.180   2.125   0.052  0.00  0.00    +0.001 A 
ATOM     27  C   UNL     1       2.396   1.478   0.031  0.00  0.00    +0.009 A 
ATOM     28  C   UNL     1       2.434   0.084   0.035  0.00  0.00    -0.006 A 
ATOM     29  C   UNL     1       1.231  -0.653   0.061  0.00  0.00    -0.017 A 
ATOM     30  C   UNL     1       0.008   0.035   0.082  0.00  0.00    +0.008 A 
ATOM     31  C   UNL     1       1.260  -2.067   0.066  0.00  0.00    +0.012 A 
ATOM     32  C   UNL     1       2.417  -2.760   0.047  0.00  0.00    +0.052 A 
ATOM     33  C   UNL     1       3.671  -2.110   0.021  0.00  0.00    +0.188 A 
ATOM     34  O   UNL     1       4.705  -2.760   0.004  0.00  0.00    -0.287 OA
ATOM     35  C   UNL     1       3.716  -0.642   0.012  0.00  0.00    +0.047 A 
ENDBRANCH  22  35
ENDBRANCH   1  23
TORSDOF 5
