REMARK  Name = ZINC00699646
REMARK  13 active torsions:
REMARK  status: ('A' for Active; 'I' for Inactive)
REMARK    1  A    between atoms: C_1  and  C_2
REMARK    2  A    between atoms: C_2  and  C_3
REMARK    3  A    between atoms: C_8  and  N_9
REMARK    4  A    between atoms: N_12  and  C_13
REMARK    5  A    between atoms: N_12  and  C_20
REMARK    6  A    between atoms: C_13  and  C_14
REMARK    7  A    between atoms: C_14  and  N_15
REMARK    8  A    between atoms: C_20  and  C_21
REMARK    9  A    between atoms: N_23  and  C_24
REMARK   10  A    between atoms: N_23  and  C_32
REMARK   11  A    between atoms: C_24  and  C_25
REMARK   12  A    between atoms: C_32  and  C_33
REMARK   13  A    between atoms: C_34  and  C_38
REMARK                            x       y       z     vdW  Elec       q    Type
REMARK                         _______ _______ _______ _____ _____    ______ ____
ROOT
ATOM      1  N   UNL     1      -5.057  -3.755  -1.513  0.00  0.00    -0.269 N 
ATOM      2  C   UNL     1      -3.762  -3.391  -1.429  0.00  0.00    +0.307 C 
ATOM      3  O   UNL     1      -3.040  -3.486  -2.402  0.00  0.00    -0.252 OA
ATOM      4  N   UNL     1      -3.268  -2.922  -0.266  0.00  0.00    -0.278 N 
ATOM      5  H   UNL     1      -5.727  -3.606  -0.653  0.00  0.00    +0.156 HD
ENDROOT
BRANCH   1  11
ATOM      6  C   UNL     1      -6.648  -5.171  -2.652  0.00  0.00    -0.026 A 
ATOM      7  C   UNL     1      -7.132  -5.729  -3.819  0.00  0.00    +0.005 A 
ATOM      8  C   UNL     1      -6.524  -5.444  -5.028  0.00  0.00    +0.000 A 
ATOM      9  C   UNL     1      -5.429  -4.599  -5.072  0.00  0.00    +0.002 A 
ATOM     10  C   UNL     1      -4.944  -4.034  -3.910  0.00  0.00    +0.023 A 
ATOM     11  C   UNL     1      -5.550  -4.322  -2.693  0.00  0.00    +0.038 A 
BRANCH   6  13
ATOM     12  C   UNL     1      -8.329  -4.388  -1.006  0.00  0.00    +0.009 C 
ATOM     13  C   UNL     1      -7.312  -5.482  -1.335  0.00  0.00    +0.033 C 
ENDBRANCH   6  13
ENDBRANCH   1  11
BRANCH   4  14
ATOM     14  C   UNL     1      -4.138  -2.807   0.907  0.00  0.00    +0.091 C 
BRANCH  14  15
ATOM     15  C   UNL     1      -4.793  -1.425   0.923  0.00  0.00    -0.060 C 
BRANCH  15  16
ATOM     16  N   UNL     1      -5.666  -1.310   2.099  0.00  0.00    +0.381 N 
ATOM     17  C   UNL     1      -4.932  -1.659   3.342  0.00  0.00    -0.079 C 
ATOM     18  C   UNL     1      -5.784  -0.997   4.454  0.00  0.00    -0.020 C 
ATOM     19  C   UNL     1      -6.240   0.327   3.798  0.00  0.00    -0.020 C 
ATOM     20  C   UNL     1      -6.129   0.083   2.282  0.00  0.00    -0.079 C 
ATOM     21  H   UNL     1      -6.508  -1.994   1.915  0.00  0.00    -0.082 HD
ENDBRANCH  15  16
ENDBRANCH  14  15
ENDBRANCH   4  14
BRANCH   4  22
ATOM     22  C   UNL     1      -1.860  -2.526  -0.175  0.00  0.00    +0.205 C 
BRANCH  22  23
ATOM     23  C   UNL     1      -1.724  -1.068  -0.530  0.00  0.00    +0.234 C 
ATOM     24  O   UNL     1      -2.689  -0.447  -0.925  0.00  0.00    -0.274 OA
ATOM     25  N   UNL     1      -0.531  -0.453  -0.410  0.00  0.00    -0.291 N 
BRANCH  25  26
ATOM     26  C   UNL     1      -0.422   0.988  -0.647  0.00  0.00    +0.143 C 
BRANCH  26  27
ATOM     27  C   UNL     1      -0.756   1.733   0.619  0.00  0.00    -0.030 A 
ATOM     28  C   UNL     1      -2.060   2.113   0.874  0.00  0.00    +0.008 A 
ATOM     29  C   UNL     1      -2.369   2.792   2.037  0.00  0.00    +0.038 A 
ATOM     30  C   UNL     1      -1.369   3.100   2.944  0.00  0.00    +0.123 A 
ATOM     31  C   UNL     1      -0.061   2.724   2.685  0.00  0.00    +0.038 A 
ATOM     32  C   UNL     1       0.244   2.041   1.524  0.00  0.00    +0.008 A 
ATOM     33  F   UNL     1      -1.668   3.768   4.079  0.00  0.00    -0.205 F 
ENDBRANCH  26  27
ENDBRANCH  25  26
BRANCH  25  34
ATOM     34  C   UNL     1       0.657  -1.227  -0.041  0.00  0.00    +0.150 C 
BRANCH  34  35
ATOM     35  C   UNL     1       1.395  -1.640  -1.288  0.00  0.00    +0.010 A 
ATOM     36  C   UNL     1       2.463  -1.053  -1.882  0.00  0.00    -0.039 A 
ATOM     37  C   UNL     1       2.983  -1.615  -3.032  0.00  0.00    +0.011 A 
ATOM     38  C   UNL     1       2.404  -2.731  -3.538  0.00  0.00    +0.046 A 
ATOM     39  S   UNL     1       1.085  -3.025  -2.371  0.00  0.00    -0.100 S 
ATOM     40  C   UNL     1       3.076   0.193  -1.295  0.00  0.00    +0.044 C 
ENDBRANCH  34  35
ENDBRANCH  25  34
ENDBRANCH  22  23
ENDBRANCH   4  22
TORSDOF 11
