REMARK  Name = ZINC20833673
REMARK  10 active torsions:
REMARK  status: ('A' for Active; 'I' for Inactive)
REMARK    1  A    between atoms: C_1  and  C_2
REMARK    2  A    between atoms: C_2  and  C_3
REMARK    3  A    between atoms: C_2  and  C_4
REMARK    4  A    between atoms: C_2  and  C_5
REMARK    5  A    between atoms: C_8  and  C_10
REMARK    6  A    between atoms: C_10  and  S_11
REMARK    7  A    between atoms: S_11  and  C_12
REMARK    8  A    between atoms: N_17  and  N_18
REMARK    9  A    between atoms: C_19  and  C_20
REMARK   10  A    between atoms: C_23  and  O_26
REMARK                            x       y       z     vdW  Elec       q    Type
REMARK                         _______ _______ _______ _____ _____    ______ ____
ROOT
ATOM      1  C   UNL     1      -8.214   2.048   0.052  0.00  0.00    +0.211 A 
ATOM      2  N   UNL     1      -7.289   1.042   0.041  0.00  0.00    -0.186 NA
ATOM      3  C   UNL     1      -6.046   1.612   0.038  0.00  0.00    +0.232 A 
ATOM      4  N   UNL     1      -6.197   2.914   0.052  0.00  0.00    -0.245 N 
ATOM      5  N   UNL     1      -7.571   3.191   0.056  0.00  0.00    -0.144 NA
ATOM      6  N   UNL     1      -4.837   0.932   0.029  0.00  0.00    -0.205 N 
ATOM      7  H   UNL     1      -4.825  -0.168   0.023  0.00  0.00    +0.177 HD
ATOM      8  H   UNL     1      -5.315   3.571   0.059  0.00  0.00    +0.192 HD
ENDROOT
BRANCH   6   9
ATOM      9  N   UNL     1      -3.632   1.645   0.028  0.00  0.00    -0.188 NA
ATOM     10  C   UNL     1      -2.500   1.008   0.019  0.00  0.00    +0.138 C 
BRANCH  10  11
ATOM     11  C   UNL     1      -1.232   1.759   0.017  0.00  0.00    -0.005 A 
ATOM     12  C   UNL     1      -0.013   1.076   0.008  0.00  0.00    +0.013 A 
ATOM     13  C   UNL     1       1.171   1.782   0.001  0.00  0.00    +0.046 A 
ATOM     14  C   UNL     1       1.153   3.171   0.008  0.00  0.00    +0.117 A 
ATOM     15  C   UNL     1      -0.056   3.854   0.022  0.00  0.00    +0.046 A 
ATOM     16  C   UNL     1      -1.244   3.156   0.031  0.00  0.00    +0.013 A 
BRANCH  14  17
ATOM     17  O   UNL     1       2.322   3.863  -0.000  0.00  0.00    -0.507 OA
ATOM     18  H   UNL     1       2.310   4.963   0.005  0.00  0.00    +0.292 HD
ENDBRANCH  14  17
ENDBRANCH  10  11
ENDBRANCH   6   9
BRANCH   1  19
ATOM     19  S   UNL     1      -9.964   1.844   0.059  0.00  0.00    -0.075 S 
BRANCH  19  20
ATOM     20  C   UNL     1     -10.604   3.542   0.073  0.00  0.00    +0.175 C 
BRANCH  20  24
ATOM     21  C   UNL     1     -14.171   3.474  -0.535  0.00  0.00    +0.223 A 
ATOM     22  N   UNL     1     -14.108   3.468   0.766  0.00  0.00    -0.112 NA
ATOM     23  N   UNL     1     -12.876   3.490   1.134  0.00  0.00    -0.111 NA
ATOM     24  C   UNL     1     -12.110   3.511   0.080  0.00  0.00    +0.227 A 
ATOM     25  O   UNL     1     -12.911   3.507  -0.999  0.00  0.00    -0.423 OA
BRANCH  21  27
ATOM     26  C   UNL     1     -16.275   4.685  -1.040  0.00  0.00    +0.020 C 
ATOM     27  C   UNL     1     -15.428   3.454  -1.367  0.00  0.00    +0.040 C 
ATOM     28  C   UNL     1     -15.056   3.470  -2.851  0.00  0.00    +0.020 C 
ATOM     29  C   UNL     1     -16.226   2.187  -1.054  0.00  0.00    +0.020 C 
ENDBRANCH  21  27
ENDBRANCH  20  24
ENDBRANCH  19  20
ENDBRANCH   1  19
TORSDOF 7
