REMARK  Name = ZINC59170708
REMARK  7 active torsions:
REMARK  status: ('A' for Active; 'I' for Inactive)
REMARK    1  A    between atoms: C_1  and  C_2
REMARK    2  A    between atoms: C_5  and  S_8
REMARK    3  A    between atoms: S_8  and  N_11
REMARK    4  A    between atoms: N_11  and  N_12
REMARK    5  A    between atoms: C_14  and  C_24
REMARK    6  A    between atoms: C_19  and  O_23
REMARK    7  A    between atoms: N_26  and  C_27
REMARK                            x       y       z     vdW  Elec       q    Type
REMARK                         _______ _______ _______ _____ _____    ______ ____
ROOT
ATOM      1  N   UNL     1       2.931  -5.417   1.387  0.00  0.00    -0.260 N 
ATOM      2  C   UNL     1       4.195  -5.552   1.100  0.00  0.00    +0.225 A 
ATOM      3  C   UNL     1       4.629  -6.008  -0.241  0.00  0.00    +0.099 A 
ATOM      4  C   UNL     1       5.876  -5.612  -0.667  0.00  0.00    +0.030 A 
ATOM      5  C   UNL     1       6.668  -4.774   0.237  0.00  0.00    +0.018 A 
ATOM      6  C   UNL     1       7.815  -4.115  -0.221  0.00  0.00    +0.015 A 
ATOM      7  C   UNL     1       8.540  -3.336   0.635  0.00  0.00    +0.046 A 
ATOM      8  C   UNL     1       8.145  -3.191   1.962  0.00  0.00    +0.120 A 
ATOM      9  C   UNL     1       7.011  -3.838   2.434  0.00  0.00    +0.092 A 
ATOM     10  C   UNL     1       6.268  -4.632   1.580  0.00  0.00    +0.141 A 
ATOM     11  O   UNL     1       5.160  -5.272   2.023  0.00  0.00    -0.437 OA
ATOM     12  H   UNL     1       2.654  -5.286   2.308  0.00  0.00    +0.189 HD
ENDROOT
BRANCH   3  13
ATOM     13  C   UNL     1       3.764  -6.850  -1.081  0.00  0.00    +0.253 C 
ATOM     14  O   UNL     1       3.547  -8.005  -0.766  0.00  0.00    -0.270 OA
ATOM     15  N   UNL     1       3.211  -6.341  -2.200  0.00  0.00    -0.279 N 
ATOM     16  H   UNL     1       3.328  -5.403  -2.416  0.00  0.00    +0.155 HD
BRANCH  15  17
ATOM     17  C   UNL     1       2.467  -7.167  -3.050  0.00  0.00    +0.069 A 
ATOM     18  C   UNL     1       1.835  -8.296  -2.547  0.00  0.00    +0.026 A 
ATOM     19  C   UNL     1       1.101  -9.109  -3.388  0.00  0.00    +0.002 A 
ATOM     20  C   UNL     1       0.994  -8.801  -4.732  0.00  0.00    +0.003 A 
ATOM     21  C   UNL     1       1.622  -7.678  -5.239  0.00  0.00    +0.040 A 
ATOM     22  C   UNL     1       2.353  -6.856  -4.401  0.00  0.00    +0.144 A 
ATOM     23  F   UNL     1       2.962  -5.755  -4.895  0.00  0.00    -0.204 F 
ENDBRANCH  15  17
ENDBRANCH   3  13
BRANCH   1  24
ATOM     24  N   UNL     1       1.972  -5.463   0.367  0.00  0.00    -0.157 N 
ATOM     25  H   UNL     1       2.251  -5.458  -0.562  0.00  0.00    +0.194 HD
BRANCH  24  26
ATOM     26  S   UNL     1       0.361  -5.524   0.747  0.00  0.00    +0.085 S 
ATOM     27  O   UNL     1       0.194  -6.626   1.629  0.00  0.00    -0.149 OA
ATOM     28  O   UNL     1      -0.350  -5.416  -0.479  0.00  0.00    -0.149 OA
BRANCH  26  33
ATOM     29  C   UNL     1      -0.917  -0.558   3.927  0.00  0.00    +0.044 C 
ATOM     30  C   UNL     1      -0.597  -1.799   3.133  0.00  0.00    -0.050 A 
ATOM     31  C   UNL     1      -0.711  -1.786   1.755  0.00  0.00    +0.005 A 
ATOM     32  C   UNL     1      -0.418  -2.923   1.026  0.00  0.00    +0.029 A 
ATOM     33  C   UNL     1      -0.011  -4.074   1.675  0.00  0.00    +0.110 A 
ATOM     34  C   UNL     1       0.104  -4.087   3.053  0.00  0.00    +0.029 A 
ATOM     35  C   UNL     1      -0.185  -2.948   3.781  0.00  0.00    +0.005 A 
ENDBRANCH  26  33
ENDBRANCH  24  26
ENDBRANCH   1  24
BRANCH   8  36
ATOM     36  O   UNL     1       8.875  -2.412   2.801  0.00  0.00    -0.507 OA
ATOM     37  H   UNL     1       8.594  -1.487   2.822  0.00  0.00    +0.292 HD
ENDBRANCH   8  36
TORSDOF 6
