REMARK  Name = ZINC13119875
REMARK  10 active torsions:
REMARK  status: ('A' for Active; 'I' for Inactive)
REMARK    1  A    between atoms: C_1  and  C_2
REMARK    2  A    between atoms: C_2  and  O_3
REMARK    3  A    between atoms: O_3  and  C_4
REMARK    4  A    between atoms: C_4  and  C_6
REMARK    5  A    between atoms: C_7  and  C_15
REMARK    6  A    between atoms: C_12  and  C_14
REMARK    7  A    between atoms: C_15  and  N_53
REMARK    8  A    between atoms: C_24  and  C_26
REMARK    9  A    between atoms: C_26  and  O_28
REMARK   10  A    between atoms: O_28  and  C_29
REMARK                            x       y       z     vdW  Elec       q    Type
REMARK                         _______ _______ _______ _____ _____    ______ ____
ROOT
ATOM      1  C   UNL     1      -1.493  -0.247  -1.071  0.00  0.00    -0.025 C 
ENDROOT
BRANCH   1  11
ATOM      2  C   UNL     1      -0.167   1.754  -0.777  0.00  0.00    -0.041 C 
ATOM      3  C   UNL     1       1.154   2.298  -0.298  0.00  0.00    -0.061 A 
ATOM      4  C   UNL     1       1.276   3.668  -0.116  0.00  0.00    +0.002 A 
ATOM      5  C   UNL     1       2.469   4.210   0.319  0.00  0.00    +0.000 A 
ATOM      6  C   UNL     1       3.548   3.384   0.575  0.00  0.00    +0.000 A 
ATOM      7  C   UNL     1       3.427   2.021   0.395  0.00  0.00    +0.004 A 
ATOM      8  C   UNL     1       2.229   1.475  -0.041  0.00  0.00    -0.047 A 
ATOM      9  C   UNL     1       2.142  -0.019  -0.219  0.00  0.00    +0.031 C 
ATOM     10  C   UNL     1       0.927  -0.373  -1.076  0.00  0.00    +0.048 C 
ATOM     11  N   UNL     1      -0.248   0.310  -0.498  0.00  0.00    +0.395 N 
ATOM     12  H   UNL     1      -0.253   0.165   0.518  0.00  0.00    -0.080 HD
BRANCH  10  13
ATOM     13  C   UNL     1       0.705  -1.863  -1.050  0.00  0.00    +0.293 C 
ATOM     14  O   UNL     1       0.020  -2.357  -0.185  0.00  0.00    -0.253 OA
BRANCH  13  15
ATOM     15  O   UNL     1       1.268  -2.643  -1.986  0.00  0.00    -0.469 OA
ATOM     16  C   UNL     1       1.011  -4.069  -1.898  0.00  0.00    +0.280 C 
ENDBRANCH  13  15
ENDBRANCH  10  13
ENDBRANCH   1  11
BRANCH   1  18
ATOM     17  C   UNL     1      -3.901   0.153  -0.698  0.00  0.00    +0.072 C 
ATOM     18  C   UNL     1      -2.651   0.134  -0.186  0.00  0.00    +0.007 C 
ATOM     19  N   UNL     1      -2.420   0.461   1.120  0.00  0.00    -0.274 N 
ATOM     20  C   UNL     1      -3.384   0.812   1.980  0.00  0.00    +0.304 C 
ATOM     21  O   UNL     1      -3.079   1.087   3.124  0.00  0.00    -0.253 OA
ATOM     22  N   UNL     1      -4.681   0.872   1.618  0.00  0.00    -0.292 N 
ATOM     23  C   UNL     1      -5.037   0.538   0.229  0.00  0.00    +0.110 C 
ATOM     24  C   UNL     1      -6.035  -0.622   0.264  0.00  0.00    +0.033 C 
ATOM     25  H   UNL     1      -1.505   0.437   1.442  0.00  0.00    +0.156 HD
ATOM     26  H   UNL     1      -5.363   1.129   2.257  0.00  0.00    +0.151 HD
BRANCH  17  27
ATOM     27  C   UNL     1      -4.142  -0.179  -2.051  0.00  0.00    +0.338 C 
ATOM     28  O   UNL     1      -3.236  -0.602  -2.744  0.00  0.00    -0.245 OA
BRANCH  27  29
ATOM     29  O   UNL     1      -5.377  -0.028  -2.574  0.00  0.00    -0.462 OA
BRANCH  29  31
ATOM     30  C   UNL     1      -7.003  -0.147  -4.358  0.00  0.00    +0.048 C 
ATOM     31  C   UNL     1      -5.548  -0.384  -3.947  0.00  0.00    +0.229 C 
ENDBRANCH  29  31
ENDBRANCH  27  29
ENDBRANCH  17  27
ENDBRANCH   1  18
TORSDOF 7
