REMARK  Name = ZINC21526879
REMARK  8 active torsions:
REMARK  status: ('A' for Active; 'I' for Inactive)
REMARK    1  A    between atoms: C_1  and  C_2
REMARK    2  A    between atoms: C_11  and  C_24
REMARK    3  A    between atoms: C_11  and  C_25
REMARK    4  A    between atoms: N_12  and  C_15
REMARK    5  A    between atoms: C_15  and  C_16
REMARK    6  A    between atoms: C_16  and  C_17
REMARK    7  A    between atoms: C_17  and  N_18
REMARK    8  A    between atoms: N_27  and  C_28
REMARK                            x       y       z     vdW  Elec       q    Type
REMARK                         _______ _______ _______ _____ _____    ______ ____
ROOT
ATOM      1  C   UNL     1       5.609   7.651   9.867  0.00  0.00    +0.086 C 
ATOM      2  C   UNL     1       5.407   6.283   9.268  0.00  0.00    +0.105 A 
ATOM      3  C   UNL     1       4.718   6.022   8.144  0.00  0.00    +0.071 A 
ATOM      4  C   UNL     1       4.770   4.623   7.934  0.00  0.00    +0.088 A 
ATOM      5  C   UNL     1       5.523   4.102   8.986  0.00  0.00    +0.154 A 
ATOM      6  O   UNL     1       5.888   5.136   9.775  0.00  0.00    -0.458 OA
ATOM      7  C   UNL     1       5.601   2.713   8.806  0.00  0.00    +0.079 A 
ATOM      8  C   UNL     1       4.913   2.410   7.668  0.00  0.00    +0.109 A 
ATOM      9  N   UNL     1       4.393   3.587   7.136  0.00  0.00    -0.331 N 
ATOM     10  C   UNL     1       3.579   3.585   5.916  0.00  0.00    +0.157 C 
ATOM     11  C   UNL     1       4.013   2.421   5.025  0.00  0.00    +0.128 C 
ATOM     12  N   UNL     1       4.146   1.170   5.763  0.00  0.00    -0.281 N 
ATOM     13  C   UNL     1       4.694   1.121   6.999  0.00  0.00    +0.264 C 
ATOM     14  O   UNL     1       4.989   0.066   7.529  0.00  0.00    -0.268 OA
ATOM     15  C   UNL     1       5.362   2.762   4.388  0.00  0.00    +0.043 C 
ENDROOT
BRANCH  11  16
ATOM     16  C   UNL     1       2.992   2.237   3.932  0.00  0.00    +0.238 C 
ATOM     17  O   UNL     1       3.249   2.581   2.798  0.00  0.00    -0.273 OA
ATOM     18  N   UNL     1       1.794   1.689   4.215  0.00  0.00    -0.311 N 
ATOM     19  H   UNL     1       1.591   1.299   5.224  0.00  0.00    +0.149 HD
BRANCH  18  20
ATOM     20  C   UNL     1       0.760   1.614   3.180  0.00  0.00    +0.073 C 
ATOM     21  C   UNL     1       0.951   0.364   2.365  0.00  0.00    +0.022 C 
ATOM     22  C   UNL     1       0.558   0.558   0.888  0.00  0.00    +0.002 C 
ATOM     23  C   UNL     1      -0.737   1.375   0.716  0.00  0.00    +0.000 C 
ATOM     24  C   UNL     1      -1.796   0.991   1.713  0.00  0.00    +0.000 C 
ATOM     25  C   UNL     1      -1.697   1.940   2.924  0.00  0.00    +0.002 C 
ATOM     26  C   UNL     1      -0.632   1.560   3.841  0.00  0.00    +0.022 C 
ENDBRANCH  18  20
ENDBRANCH  11  16
BRANCH  12  27
ATOM     27  C   UNL     1       3.671  -0.072   5.147  0.00  0.00    +0.107 C 
BRANCH  27  28
ATOM     28  C   UNL     1       4.839  -0.776   4.454  0.00  0.00    +0.000 C 
BRANCH  28  29
ATOM     29  C   UNL     1       4.343  -2.073   3.810  0.00  0.00    -0.077 C 
BRANCH  29  30
ATOM     30  N   UNL     1       5.464  -2.750   3.145  0.00  0.00    +0.380 N 
ATOM     31  C   UNL     1       5.959  -1.958   2.011  0.00  0.00    -0.079 C 
ATOM     32  C   UNL     1       7.213  -2.619   1.435  0.00  0.00    -0.019 C 
ATOM     33  C   UNL     1       6.872  -4.040   0.979  0.00  0.00    -0.004 C 
ATOM     34  C   UNL     1       6.314  -4.828   2.166  0.00  0.00    -0.019 C 
ATOM     35  C   UNL     1       5.085  -4.104   2.722  0.00  0.00    -0.079 C 
ATOM     36  H   UNL     1       6.284  -2.843   3.872  0.00  0.00    -0.082 HD
ENDBRANCH  29  30
ENDBRANCH  28  29
ENDBRANCH  27  28
ENDBRANCH  12  27
TORSDOF 6
