REMARK  Name = ZINC34944707
REMARK  18 active torsions:
REMARK  status: ('A' for Active; 'I' for Inactive)
REMARK    1  A    between atoms: C_1  and  C_2
REMARK    2  A    between atoms: C_2  and  N_3
REMARK    3  A    between atoms: N_3  and  C_4
REMARK    4  A    between atoms: N_3  and  C_6
REMARK    5  A    between atoms: C_4  and  C_5
REMARK    6  A    between atoms: C_6  and  C_7
REMARK    7  A    between atoms: C_7  and  C_8
REMARK    8  A    between atoms: C_8  and  C_9
REMARK    9  A    between atoms: C_9  and  C_11
REMARK   10  A    between atoms: C_9  and  N_12
REMARK   11  A    between atoms: C_13  and  C_15
REMARK   12  A    between atoms: C_15  and  C_16
REMARK   13  A    between atoms: C_16  and  N_17
REMARK   14  A    between atoms: N_17  and  C_18
REMARK   15  A    between atoms: C_18  and  C_20
REMARK   16  A    between atoms: C_18  and  C_21
REMARK   17  A    between atoms: N_29  and  C_30
REMARK   18  A    between atoms: C_35  and  C_36
REMARK                            x       y       z     vdW  Elec       q    Type
REMARK                         _______ _______ _______ _____ _____    ______ ____
ROOT
ATOM      1  N   UNL     1       1.708  -4.288  -9.534  0.00  0.00    -0.278 N 
ATOM      2  C   UNL     1       1.109  -4.771 -10.641  0.00  0.00    +0.307 C 
ATOM      3  O   UNL     1       1.208  -5.950 -10.920  0.00  0.00    -0.252 OA
ATOM      4  N   UNL     1       0.402  -3.946 -11.438  0.00  0.00    -0.269 N 
ATOM      5  H   UNL     1       0.392  -2.992 -11.262  0.00  0.00    +0.156 HD
ENDROOT
BRANCH   4   6
ATOM      6  C   UNL     1      -0.318  -4.466 -12.520  0.00  0.00    +0.038 A 
ATOM      7  C   UNL     1      -0.525  -5.835 -12.624  0.00  0.00    +0.023 A 
ATOM      8  C   UNL     1      -1.236  -6.345 -13.693  0.00  0.00    +0.002 A 
ATOM      9  C   UNL     1      -1.740  -5.493 -14.659  0.00  0.00    +0.000 A 
ATOM     10  C   UNL     1      -1.535  -4.130 -14.558  0.00  0.00    +0.005 A 
ATOM     11  C   UNL     1      -0.830  -3.613 -13.489  0.00  0.00    -0.029 A 
ATOM     12  C   UNL     1      -0.612  -2.126 -13.377  0.00  0.00    +0.045 C 
ENDBRANCH   4   6
BRANCH   1  13
ATOM     13  C   UNL     1       1.488  -2.898  -9.129  0.00  0.00    +0.105 C 
ATOM     14  C   UNL     1       2.141  -2.654  -7.767  0.00  0.00    +0.033 C 
BRANCH  13  15
ATOM     15  C   UNL     1       2.098  -1.974 -10.151  0.00  0.00    -0.027 A 
ATOM     16  C   UNL     1       3.276  -2.325 -10.784  0.00  0.00    +0.005 A 
ATOM     17  C   UNL     1       3.836  -1.477 -11.722  0.00  0.00    +0.000 A 
ATOM     18  C   UNL     1       3.217  -0.280 -12.028  0.00  0.00    +0.000 A 
ATOM     19  C   UNL     1       2.038   0.070 -11.396  0.00  0.00    +0.000 A 
ATOM     20  C   UNL     1       1.476  -0.779 -10.461  0.00  0.00    +0.005 A 
ENDBRANCH  13  15
ENDBRANCH   1  13
BRANCH   1  21
ATOM     21  C   UNL     1       2.579  -5.154  -8.736  0.00  0.00    +0.119 C 
BRANCH  21  22
ATOM     22  C   UNL     1       1.733  -5.949  -7.739  0.00  0.00    +0.115 C 
BRANCH  22  24
ATOM     23  N   UNL     1       2.100  -7.638  -5.969  0.00  0.00    -0.313 N 
ATOM     24  C   UNL     1       2.629  -6.840  -6.918  0.00  0.00    +0.215 C 
ATOM     25  O   UNL     1       3.827  -6.839  -7.111  0.00  0.00    -0.276 OA
ATOM     26  H   UNL     1       1.143  -7.638  -5.814  0.00  0.00    +0.149 HD
BRANCH  23  27
ATOM     27  C   UNL     1       2.971  -8.504  -5.170  0.00  0.00    +0.070 C 
ATOM     28  C   UNL     1       3.219  -9.812  -5.924  0.00  0.00    +0.028 C 
BRANCH  27  29
ATOM     29  C   UNL     1       2.299  -8.807  -3.830  0.00  0.00    +0.020 C 
BRANCH  29  30
ATOM     30  C   UNL     1       2.164  -7.514  -3.023  0.00  0.00    -0.017 C 
BRANCH  30  31
ATOM     31  C   UNL     1       1.492  -7.817  -1.682  0.00  0.00    -0.079 C 
BRANCH  31  32
ATOM     32  N   UNL     1       1.479  -6.603  -0.856  0.00  0.00    +0.379 N 
ATOM     33  H   UNL     1       2.418  -6.243  -0.771  0.00  0.00    -0.082 HD
BRANCH  32  35
ATOM     34  C   UNL     1       0.705  -4.286  -0.692  0.00  0.00    -0.017 C 
ATOM     35  C   UNL     1       0.621  -5.591  -1.486  0.00  0.00    -0.082 C 
ENDBRANCH  32  35
BRANCH  32  36
ATOM     36  C   UNL     1       0.957  -6.926   0.479  0.00  0.00    -0.082 C 
ATOM     37  C   UNL     1       1.918  -7.883   1.186  0.00  0.00    -0.017 C 
ENDBRANCH  32  36
ENDBRANCH  31  32
ENDBRANCH  30  31
ENDBRANCH  29  30
ENDBRANCH  27  29
ENDBRANCH  23  27
ENDBRANCH  22  24
ENDBRANCH  21  22
ENDBRANCH   1  21
TORSDOF 13
