REMARK  Name = ZINC60341889
REMARK  9 active torsions:
REMARK  status: ('A' for Active; 'I' for Inactive)
REMARK    1  A    between atoms: C_1  and  C_2
REMARK    2  A    between atoms: N_7  and  C_9
REMARK    3  A    between atoms: C_9  and  C_10
REMARK    4  A    between atoms: C_9  and  C_11
REMARK    5  A    between atoms: C_9  and  C_12
REMARK    6  A    between atoms: C_12  and  N_13
REMARK    7  A    between atoms: C_14  and  C_16
REMARK    8  A    between atoms: C_21  and  N_22
REMARK    9  A    between atoms: C_23  and  C_25
REMARK                            x       y       z     vdW  Elec       q    Type
REMARK                         _______ _______ _______ _____ _____    ______ ____
ROOT
ATOM      1  C   UNL     1       2.946  -6.258  -0.341  0.00  0.00    +0.058 A 
ATOM      2  C   UNL     1       3.310  -5.348  -1.337  0.00  0.00    +0.015 A 
ATOM      3  C   UNL     1       3.893  -5.800  -2.501  0.00  0.00    +0.001 A 
ATOM      4  C   UNL     1       4.120  -7.154  -2.690  0.00  0.00    +0.002 A 
ATOM      5  C   UNL     1       3.766  -8.065  -1.715  0.00  0.00    +0.024 A 
ATOM      6  C   UNL     1       3.183  -7.627  -0.533  0.00  0.00    +0.046 A 
ENDROOT
BRANCH   1   8
ATOM      7  N   UNL     1       2.188  -4.459   1.132  0.00  0.00    -0.313 N 
ATOM      8  C   UNL     1       2.322  -5.781   0.908  0.00  0.00    +0.246 C 
ATOM      9  O   UNL     1       1.929  -6.580   1.735  0.00  0.00    -0.270 OA
ATOM     10  H   UNL     1       2.502  -3.821   0.472  0.00  0.00    +0.149 HD
BRANCH   7  11
ATOM     11  C   UNL     1       1.569  -3.985   2.372  0.00  0.00    +0.092 C 
BRANCH  11  12
ATOM     12  C   UNL     1       1.540  -2.455   2.376  0.00  0.00    -0.055 C 
ATOM     13  C   UNL     1       2.969  -1.918   2.282  0.00  0.00    -0.008 C 
ATOM     14  C   UNL     1       0.893  -1.960   3.671  0.00  0.00    -0.008 C 
BRANCH  12  20
ATOM     15  C   UNL     1      -0.021   1.524  -0.011  0.00  0.00    +0.005 C 
ATOM     16  C   UNL     1      -0.000  -0.006  -0.015  0.00  0.00    -0.031 C 
ATOM     17  C   UNL     1      -1.436  -0.537   0.005  0.00  0.00    -0.001 C 
ATOM     18  C   UNL     1      -1.404  -2.066   0.081  0.00  0.00    -0.018 C 
ATOM     19  C   UNL     1      -0.610  -2.494   1.317  0.00  0.00    -0.078 C 
ATOM     20  N   UNL     1       0.761  -1.977   1.226  0.00  0.00    +0.384 N 
ATOM     21  C   UNL     1       0.742  -0.510   1.225  0.00  0.00    -0.075 C 
ATOM     22  H   UNL     1       1.187  -2.307   0.373  0.00  0.00    -0.081 HD
ENDBRANCH  12  20
ENDBRANCH  11  12
ENDBRANCH   7  11
ENDBRANCH   1   8
BRANCH   6  23
ATOM     23  N   UNL     1       2.830  -8.543   0.454  0.00  0.00    -0.281 N 
ATOM     24  C   UNL     1       3.589  -9.638   0.659  0.00  0.00    +0.249 C 
ATOM     25  O   UNL     1       4.632  -9.777   0.051  0.00  0.00    -0.270 OA
ATOM     26  H   UNL     1       2.038  -8.394   0.993  0.00  0.00    +0.155 HD
BRANCH  24  27
ATOM     27  C   UNL     1       3.153 -10.668   1.624  0.00  0.00    +0.051 A 
ATOM     28  C   UNL     1       1.953 -10.514   2.321  0.00  0.00    +0.014 A 
ATOM     29  C   UNL     1       1.552 -11.480   3.220  0.00  0.00    +0.001 A 
ATOM     30  C   UNL     1       2.337 -12.600   3.434  0.00  0.00    +0.001 A 
ATOM     31  C   UNL     1       3.527 -12.760   2.748  0.00  0.00    +0.016 A 
ATOM     32  C   UNL     1       3.938 -11.804   1.840  0.00  0.00    +0.030 A 
ATOM     33 BR   UNL     1       5.561 -12.028   0.897  0.00  0.00    -0.050 Br
ENDBRANCH  24  27
ENDBRANCH   6  23
TORSDOF 6
