REMARK  Name = ZINC39911536
REMARK  17 active torsions:
REMARK  status: ('A' for Active; 'I' for Inactive)
REMARK    1  A    between atoms: C_1  and  C_2
REMARK    2  A    between atoms: C_2  and  C_3
REMARK    3  A    between atoms: C_3  and  C_4
REMARK    4  A    between atoms: C_4  and  C_5
REMARK    5  A    between atoms: C_5  and  O_6
REMARK    6  A    between atoms: O_6  and  C_7
REMARK    7  A    between atoms: C_10  and  C_15
REMARK    8  A    between atoms: C_12  and  O_13
REMARK    9  A    between atoms: O_13  and  C_14
REMARK   10  A    between atoms: C_18  and  C_30
REMARK   11  A    between atoms: N_25  and  C_26
REMARK   12  A    between atoms: C_26  and  C_27
REMARK   13  A    between atoms: C_27  and  C_28
REMARK   14  A    between atoms: C_28  and  O_29
REMARK   15  A    between atoms: C_32  and  C_38
REMARK   16  A    between atoms: C_34  and  C_37
REMARK   17  A    between atoms: C_35  and  O_36
REMARK                            x       y       z     vdW  Elec       q    Type
REMARK                         _______ _______ _______ _____ _____    ______ ____
ROOT
ATOM      1  C   UNL     1       3.316  -6.022  -6.976  0.00  0.00    +0.141 C 
ATOM      2  C   UNL     1       4.785  -6.276  -7.171  0.00  0.00    +0.035 A 
ATOM      3  C   UNL     1       5.953  -6.876  -6.687  0.00  0.00    +0.102 A 
ATOM      4  N   UNL     1       6.922  -6.594  -7.536  0.00  0.00    -0.173 NA
ATOM      5  N   UNL     1       6.482  -5.875  -8.507  0.00  0.00    -0.272 N 
ATOM      6  H   UNL     1       7.019  -5.551  -9.247  0.00  0.00    +0.189 HD
ATOM      7  C   UNL     1       5.148  -5.637  -8.342  0.00  0.00    +0.126 A 
ATOM      8  C   UNL     1       3.960  -4.983  -8.903  0.00  0.00    +0.265 C 
ATOM      9  O   UNL     1       3.946  -4.336  -9.933  0.00  0.00    -0.268 OA
ATOM     10  N   UNL     1       2.889  -5.201  -8.117  0.00  0.00    -0.285 N 
ENDROOT
BRANCH   3  11
ATOM     11  C   UNL     1       6.077  -7.682  -5.447  0.00  0.00    +0.044 A 
ATOM     12  C   UNL     1       4.943  -8.010  -4.709  0.00  0.00    +0.017 A 
ATOM     13  C   UNL     1       5.064  -8.759  -3.557  0.00  0.00    -0.049 A 
ATOM     14  C   UNL     1       6.309  -9.187  -3.131  0.00  0.00    +0.010 A 
ATOM     15  C   UNL     1       7.441  -8.867  -3.856  0.00  0.00    -0.008 A 
ATOM     16  C   UNL     1       7.333  -8.120  -5.018  0.00  0.00    +0.129 A 
ATOM     17  C   UNL     1       8.794  -9.336  -3.385  0.00  0.00    +0.047 C 
ATOM     18  C   UNL     1       3.835  -9.113  -2.759  0.00  0.00    +0.044 C 
BRANCH  16  19
ATOM     19  O   UNL     1       8.445  -7.810  -5.735  0.00  0.00    -0.506 OA
ATOM     20  H   UNL     1       8.864  -6.980  -5.471  0.00  0.00    +0.292 HD
ENDBRANCH  16  19
ENDBRANCH   3  11
BRANCH   1  24
ATOM     21  C   UNL     1       2.657  -3.915  -3.314  0.00  0.00    +0.162 A 
ATOM     22  C   UNL     1       2.218  -5.221  -3.453  0.00  0.00    +0.050 A 
ATOM     23  C   UNL     1       2.432  -5.900  -4.638  0.00  0.00    +0.009 A 
ATOM     24  C   UNL     1       3.084  -5.277  -5.686  0.00  0.00    -0.019 A 
ATOM     25  C   UNL     1       3.526  -3.974  -5.554  0.00  0.00    +0.055 A 
ATOM     26  C   UNL     1       3.309  -3.286  -4.370  0.00  0.00    +0.162 A 
BRANCH  26  27
ATOM     27  O   UNL     1       3.737  -2.002  -4.240  0.00  0.00    -0.491 OA
ATOM     28  C   UNL     1       4.323  -1.394  -5.393  0.00  0.00    +0.277 C 
ENDBRANCH  26  27
BRANCH  21  29
ATOM     29  O   UNL     1       2.447  -3.246  -2.148  0.00  0.00    -0.488 OA
BRANCH  29  30
ATOM     30  C   UNL     1       1.771  -3.954  -1.107  0.00  0.00    +0.229 C 
BRANCH  30  31
ATOM     31  C   UNL     1       1.627  -3.046   0.117  0.00  0.00    +0.041 C 
BRANCH  31  32
ATOM     32  C   UNL     1       0.904  -3.804   1.232  0.00  0.00    +0.003 C 
BRANCH  32  34
ATOM     33  C   UNL     1       0.037  -3.654   3.570  0.00  0.00    +0.004 C 
ATOM     34  C   UNL     1       0.760  -2.896   2.455  0.00  0.00    -0.003 C 
ENDBRANCH  32  34
ENDBRANCH  31  32
ENDBRANCH  30  31
ENDBRANCH  29  30
ENDBRANCH  21  29
ENDBRANCH   1  24
BRANCH  10  35
ATOM     35  C   UNL     1       1.531  -4.705  -8.357  0.00  0.00    +0.111 C 
BRANCH  35  36
ATOM     36  C   UNL     1       1.363  -3.336  -7.694  0.00  0.00    +0.047 C 
BRANCH  36  37
ATOM     37  C   UNL     1      -0.054  -2.819  -7.945  0.00  0.00    +0.157 C 
BRANCH  37  38
ATOM     38  O   UNL     1      -0.211  -1.540  -7.326  0.00  0.00    -0.395 OA
ATOM     39  H   UNL     1      -1.088  -1.151  -7.445  0.00  0.00    +0.209 HD
ENDBRANCH  37  38
ENDBRANCH  36  37
ENDBRANCH  35  36
ENDBRANCH  10  35
TORSDOF 13
