REMARK  Name = ZINC16259356
REMARK  8 active torsions:
REMARK  status: ('A' for Active; 'I' for Inactive)
REMARK    1  A    between atoms: C_4  and  C_7
REMARK    2  A    between atoms: C_7  and  C_9
REMARK    3  A    between atoms: C_7  and  N_70
REMARK    4  A    between atoms: C_9  and  N_10
REMARK    5  A    between atoms: C_11  and  C_13
REMARK    6  A    between atoms: C_13  and  C_14
REMARK    7  A    between atoms: C_14  and  N_15
REMARK    8  A    between atoms: N_18  and  C_19
REMARK                            x       y       z     vdW  Elec       q    Type
REMARK                         _______ _______ _______ _____ _____    ______ ____
ROOT
ATOM      1  N   UNL     1     -10.816   0.430   3.098  0.00  0.00    -0.316 N 
ATOM      2  C   UNL     1      -9.564   0.927   3.044  0.00  0.00    +0.214 C 
ATOM      3  O   UNL     1      -9.195   1.732   3.872  0.00  0.00    -0.276 OA
ATOM      4  H   UNL     1     -11.111  -0.214   2.436  0.00  0.00    +0.149 HD
ENDROOT
BRANCH   1   5
ATOM      5  C   UNL     1     -11.731   0.864   4.157  0.00  0.00    +0.093 C 
BRANCH   5   6
ATOM      6  C   UNL     1     -13.111   0.246   3.923  0.00  0.00    -0.020 C 
BRANCH   6  10
ATOM      7  C   UNL     1     -12.861  -3.997   4.346  0.00  0.00    +0.000 A 
ATOM      8  C   UNL     1     -12.865  -3.427   3.087  0.00  0.00    +0.000 A 
ATOM      9  C   UNL     1     -12.946  -2.054   2.950  0.00  0.00    +0.002 A 
ATOM     10  C   UNL     1     -13.023  -1.251   4.072  0.00  0.00    -0.059 A 
ATOM     11  C   UNL     1     -13.014  -1.820   5.332  0.00  0.00    +0.002 A 
ATOM     12  C   UNL     1     -12.937  -3.194   5.468  0.00  0.00    +0.000 A 
ENDBRANCH   6  10
BRANCH   6  17
ATOM     13  C   UNL     1     -14.152   2.261   4.809  0.00  0.00    -0.078 C 
ATOM     14  C   UNL     1     -15.508   2.578   5.489  0.00  0.00    -0.020 C 
ATOM     15  C   UNL     1     -16.404   1.402   5.039  0.00  0.00    -0.020 C 
ATOM     16  C   UNL     1     -15.427   0.275   4.656  0.00  0.00    -0.078 C 
ATOM     17  N   UNL     1     -14.084   0.795   4.915  0.00  0.00    +0.385 N 
ATOM     18  H   UNL     1     -13.786   0.529   5.861  0.00  0.00    -0.081 HD
ENDBRANCH   6  17
ENDBRANCH   5   6
ENDBRANCH   1   5
BRANCH   2  19
ATOM     19  C   UNL     1      -8.623   0.481   1.955  0.00  0.00    +0.114 C 
BRANCH  19  20
ATOM     20  C   UNL     1      -7.277   1.189   2.122  0.00  0.00    +0.115 C 
BRANCH  20  21
ATOM     21  N   UNL     1      -6.362   0.756   1.063  0.00  0.00    -0.299 N 
ATOM     22  C   UNL     1      -5.110   1.252   1.010  0.00  0.00    +0.300 C 
ATOM     23  O   UNL     1      -4.740   2.060   1.840  0.00  0.00    -0.253 OA
ATOM     24  N   UNL     1      -4.268   0.853   0.036  0.00  0.00    -0.294 N 
ATOM     25  H   UNL     1      -6.657   0.111   0.401  0.00  0.00    +0.150 HD
ATOM     26  H   UNL     1      -4.564   0.208  -0.627  0.00  0.00    +0.151 HD
BRANCH  24  27
ATOM     27  C   UNL     1      -2.908   1.392  -0.023  0.00  0.00    +0.037 C 
ATOM     28  C   UNL     1      -2.167   0.780  -1.214  0.00  0.00    +0.029 C 
ATOM     29  C   UNL     1      -0.746   1.343  -1.275  0.00  0.00    -0.008 C 
ATOM     30  C   UNL     1      -0.005   0.999   0.019  0.00  0.00    +0.007 C 
ATOM     31  C   UNL     1      -0.745   1.611   1.210  0.00  0.00    -0.008 C 
ATOM     32  C   UNL     1      -2.166   1.048   1.270  0.00  0.00    +0.029 C 
ATOM     33  C   UNL     1      -0.806   3.131   1.046  0.00  0.00    +0.007 C 
ATOM     34  C   UNL     1      -1.547   3.476  -0.247  0.00  0.00    -0.008 C 
ATOM     35  C   UNL     1      -0.806   2.864  -1.438  0.00  0.00    +0.007 C 
ATOM     36  C   UNL     1      -2.968   2.912  -0.186  0.00  0.00    +0.029 C 
ENDBRANCH  24  27
ENDBRANCH  20  21
ENDBRANCH  19  20
ENDBRANCH   2  19
TORSDOF 8
