REMARK  Name = ZINC08757693
REMARK  7 active torsions:
REMARK  status: ('A' for Active; 'I' for Inactive)
REMARK    1  A    between atoms: C_4  and  N_7
REMARK    2  A    between atoms: N_7  and  C_8
REMARK    3  A    between atoms: C_8  and  N_25
REMARK    4  A    between atoms: N_15  and  C_18
REMARK    5  A    between atoms: N_25  and  C_26
REMARK    6  A    between atoms: C_26  and  C_27
REMARK    7  A    between atoms: C_32  and  C_33
REMARK                            x       y       z     vdW  Elec       q    Type
REMARK                         _______ _______ _______ _____ _____    ______ ____
ROOT
ATOM      1  C   UNL     1       4.317   0.212   1.711  0.00  0.00    +0.106 C 
ATOM      2  C   UNL     1       4.857   0.187   3.003  0.00  0.00    +0.135 C 
ATOM      3  C   UNL     1       4.129   0.708   4.109  0.00  0.00    +0.260 C 
ATOM      4  O   UNL     1       3.021   1.186   3.950  0.00  0.00    -0.269 OA
ATOM      5  N   UNL     1       4.686   0.663   5.336  0.00  0.00    -0.235 N 
ATOM      6  C   UNL     1       5.908   0.138   5.521  0.00  0.00    +0.320 C 
ATOM      7  O   UNL     1       6.377   0.116   6.643  0.00  0.00    -0.251 OA
ATOM      8  N   UNL     1       6.629  -0.364   4.504  0.00  0.00    -0.190 N 
ATOM      9  C   UNL     1       6.144  -0.365   3.246  0.00  0.00    +0.267 C 
ATOM     10  O   UNL     1       6.801  -0.827   2.331  0.00  0.00    -0.269 OA
ATOM     11  H   UNL     1       4.197   1.017   6.096  0.00  0.00    +0.159 HD
ENDROOT
BRANCH   8  12
ATOM     12  C   UNL     1       7.899  -0.899   4.756  0.00  0.00    +0.046 A 
ATOM     13  C   UNL     1       8.031  -2.043   5.531  0.00  0.00    +0.025 A 
ATOM     14  C   UNL     1       9.284  -2.572   5.773  0.00  0.00    +0.017 A 
ATOM     15  C   UNL     1      10.408  -1.956   5.253  0.00  0.00    +0.018 A 
ATOM     16  C   UNL     1      10.280  -0.812   4.485  0.00  0.00    +0.017 A 
ATOM     17  C   UNL     1       9.029  -0.283   4.235  0.00  0.00    +0.025 A 
ATOM     18 BR   UNL     1      12.122  -2.679   5.591  0.00  0.00    -0.050 Br
ENDBRANCH   8  12
BRANCH   1  19
ATOM     19  N   UNL     1       4.959  -0.425   0.692  0.00  0.00    -0.302 N 
ATOM     20  H   UNL     1       5.564   0.067   0.115  0.00  0.00    +0.153 HD
BRANCH  19  24
ATOM     21  C   UNL     1       4.324  -4.492   0.052  0.00  0.00    +0.000 A 
ATOM     22  C   UNL     1       5.266  -3.815  -0.700  0.00  0.00    +0.002 A 
ATOM     23  C   UNL     1       5.479  -2.466  -0.491  0.00  0.00    +0.023 A 
ATOM     24  C   UNL     1       4.746  -1.791   0.477  0.00  0.00    +0.032 A 
ATOM     25  C   UNL     1       3.804  -2.476   1.234  0.00  0.00    +0.023 A 
ATOM     26  C   UNL     1       3.592  -3.823   1.016  0.00  0.00    +0.002 A 
ENDBRANCH  19  24
ENDBRANCH   1  19
BRANCH   1  27
ATOM     27  N   UNL     1       3.151   0.875   1.472  0.00  0.00    -0.327 N 
ATOM     28  H   UNL     1       2.736   1.395   2.178  0.00  0.00    +0.148 HD
BRANCH  27  29
ATOM     29  C   UNL     1       2.523   0.800   0.151  0.00  0.00    +0.138 C 
BRANCH  29  30
ATOM     30  C   UNL     1       1.196   1.514   0.184  0.00  0.00    -0.019 A 
ATOM     31  C   UNL     1       0.025   0.789   0.309  0.00  0.00    +0.006 A 
ATOM     32  C   UNL     1      -1.192   1.443   0.334  0.00  0.00    +0.000 A 
ATOM     33  C   UNL     1      -1.238   2.822   0.245  0.00  0.00    +0.001 A 
ATOM     34  C   UNL     1      -0.068   3.546   0.121  0.00  0.00    +0.013 A 
ATOM     35  C   UNL     1       1.150   2.892   0.090  0.00  0.00    +0.059 A 
BRANCH  35  36
ATOM     36  C   UNL     1       2.426   3.681  -0.045  0.00  0.00    +0.418 C 
ATOM     37  F   UNL     1       2.125   5.045  -0.123  0.00  0.00    -0.166 F 
ATOM     38  F   UNL     1       3.241   3.445   1.067  0.00  0.00    -0.166 F 
ATOM     39  F   UNL     1       3.098   3.285  -1.207  0.00  0.00    -0.166 F 
ENDBRANCH  35  36
ENDBRANCH  29  30
ENDBRANCH  27  29
ENDBRANCH   1  27
TORSDOF 7
