REMARK  Name = ZINC12995196
REMARK  9 active torsions:
REMARK  status: ('A' for Active; 'I' for Inactive)
REMARK    1  A    between atoms: C_1  and  C_2
REMARK    2  A    between atoms: C_2  and  C_3
REMARK    3  A    between atoms: C_6  and  C_9
REMARK    4  A    between atoms: C_9  and  C_11
REMARK    5  A    between atoms: C_9  and  N_16
REMARK    6  A    between atoms: N_16  and  C_17
REMARK    7  A    between atoms: C_17  and  C_18
REMARK    8  A    between atoms: N_20  and  N_21
REMARK    9  A    between atoms: C_27  and  C_30
REMARK                            x       y       z     vdW  Elec       q    Type
REMARK                         _______ _______ _______ _____ _____    ______ ____
ROOT
ATOM      1  C   UNL     1      -6.800  -4.953  -1.810  0.00  0.00    +0.244 C 
ATOM      2  O   UNL     1      -6.061  -4.902  -2.770  0.00  0.00    -0.273 OA
ATOM      3  N   UNL     1      -7.741  -5.915  -1.735  0.00  0.00    -0.223 N 
ATOM      4  H   UNL     1      -8.333  -5.957  -0.967  0.00  0.00    +0.174 HD
ENDROOT
BRANCH   3   5
ATOM      5  N   UNL     1      -7.865  -6.856  -2.766  0.00  0.00    -0.137 N 
ATOM      6  C   UNL     1      -8.847  -6.843  -3.690  0.00  0.00    +0.263 C 
ATOM      7  O   UNL     1      -9.756  -6.046  -3.784  0.00  0.00    -0.271 OA
ATOM      8  C   UNL     1      -8.576  -8.031  -4.585  0.00  0.00    +0.114 C 
ATOM      9  C   UNL     1      -8.322  -7.572  -6.016  0.00  0.00    +0.035 C 
ATOM     10  C   UNL     1      -8.020  -8.786  -6.898  0.00  0.00    +0.006 C 
ATOM     11  C   UNL     1      -9.205  -9.752  -6.857  0.00  0.00    -0.014 C 
ATOM     12  C   UNL     1      -9.432 -10.222  -5.419  0.00  0.00    +0.006 C 
ATOM     13  C   UNL     1      -9.740  -9.014  -4.531  0.00  0.00    +0.035 C 
ATOM     14  C   UNL     1      -8.909 -10.961  -7.747  0.00  0.00    +0.007 C 
ATOM     15  N   UNL     1      -7.364  -8.636  -4.016  0.00  0.00    -0.284 N 
ATOM     16  C   UNL     1      -7.020  -7.876  -2.959  0.00  0.00    +0.326 C 
ATOM     17  O   UNL     1      -6.052  -8.095  -2.256  0.00  0.00    -0.251 OA
ATOM     18  H   UNL     1      -6.902  -9.424  -4.341  0.00  0.00    +0.151 HD
ENDBRANCH   3   5
BRANCH   1  19
ATOM     19  C   UNL     1      -6.667  -3.942  -0.701  0.00  0.00    +0.179 C 
BRANCH  19  20
ATOM     20  N   UNL     1      -5.578  -3.008  -1.018  0.00  0.00    -0.297 NA
ATOM     21  H   UNL     1      -5.729  -2.567  -1.913  0.00  0.00    +0.123 HD
BRANCH  20  22
ATOM     22  C   UNL     1      -5.419  -2.005   0.043  0.00  0.00    +0.122 C 
BRANCH  22  26
ATOM     23  C   UNL     1      -1.412  -0.526   0.013  0.00  0.00    -0.048 A 
ATOM     24  C   UNL     1      -2.051  -0.766   1.215  0.00  0.00    +0.004 A 
ATOM     25  C   UNL     1      -3.348  -1.244   1.225  0.00  0.00    +0.006 A 
ATOM     26  C   UNL     1      -4.006  -1.482   0.032  0.00  0.00    -0.026 A 
ATOM     27  C   UNL     1      -3.367  -1.241  -1.170  0.00  0.00    +0.006 A 
ATOM     28  C   UNL     1      -2.072  -0.758  -1.179  0.00  0.00    +0.004 A 
BRANCH  23  30
ATOM     29  C   UNL     1      -0.019   1.526   0.010  0.00  0.00    +0.009 C 
ATOM     30  C   UNL     1       0.002  -0.004   0.002  0.00  0.00    +0.032 C 
ENDBRANCH  23  30
ENDBRANCH  22  26
BRANCH  22  31
ATOM     31  C   UNL     1      -6.377  -0.866  -0.194  0.00  0.00    +0.011 A 
ATOM     32  C   UNL     1      -7.111  -0.166   0.706  0.00  0.00    +0.013 A 
ATOM     33  C   UNL     1      -7.932   0.850   0.256  0.00  0.00    +0.008 A 
ATOM     34  C   UNL     1      -7.980   1.117  -1.073  0.00  0.00    +0.045 A 
ATOM     35  S   UNL     1      -6.835  -0.084  -1.732  0.00  0.00    -0.100 S 
ENDBRANCH  22  31
ENDBRANCH  20  22
ENDBRANCH  19  20
ENDBRANCH   1  19
TORSDOF 7
