REMARK  Name = ZINC20566629
REMARK  7 active torsions:
REMARK  status: ('A' for Active; 'I' for Inactive)
REMARK    1  A    between atoms: C_1  and  C_2
REMARK    2  A    between atoms: C_2  and  C_3
REMARK    3  A    between atoms: C_3  and  C_4
REMARK    4  A    between atoms: C_4  and  N_5
REMARK    5  A    between atoms: C_10  and  C_28
REMARK    6  A    between atoms: C_28  and  C_29
REMARK    7  A    between atoms: C_32  and  O_35
REMARK                            x       y       z     vdW  Elec       q    Type
REMARK                         _______ _______ _______ _____ _____    ______ ____
ROOT
ATOM      1  N   UNL     1       1.471  -2.526   2.420  0.00  0.00    -0.242 N 
ATOM      2  C   UNL     1       2.791  -2.744   2.436  0.00  0.00    +0.227 C 
ATOM      3  O   UNL     1       3.541  -2.573   1.499  0.00  0.00    -0.275 OA
ATOM      4  C   UNL     1       3.203  -3.238   3.804  0.00  0.00    +0.107 C 
ATOM      5  C   UNL     1       3.645  -4.713   3.698  0.00  0.00    +0.072 C 
ATOM      6  N   UNL     1       2.973  -5.395   4.836  0.00  0.00    -0.295 NA
ATOM      7  C   UNL     1       1.640  -4.766   4.897  0.00  0.00    +0.136 C 
ATOM      8  C   UNL     1       1.863  -3.264   4.593  0.00  0.00    +0.122 C 
ATOM      9  C   UNL     1       0.852  -2.782   3.578  0.00  0.00    +0.228 C 
ATOM     10  O   UNL     1      -0.336  -2.650   3.781  0.00  0.00    -0.275 OA
ATOM     11  C   UNL     1       0.688  -5.400   3.923  0.00  0.00    +0.005 A 
ATOM     12  C   UNL     1       0.694  -5.553   2.555  0.00  0.00    +0.027 A 
ATOM     13  C   UNL     1      -0.355  -6.204   1.926  0.00  0.00    +0.041 A 
ATOM     14  C   UNL     1      -1.407  -6.698   2.677  0.00  0.00    +0.022 A 
ATOM     15  C   UNL     1      -1.417  -6.544   4.047  0.00  0.00    +0.025 A 
ATOM     16  C   UNL     1      -0.366  -5.892   4.688  0.00  0.00    +0.039 A 
ATOM     17  N   UNL     1      -0.151  -5.617   6.040  0.00  0.00    -0.283 N 
ATOM     18  C   UNL     1       1.005  -4.958   6.247  0.00  0.00    +0.243 C 
ATOM     19  O   UNL     1       1.448  -4.590   7.315  0.00  0.00    -0.273 OA
ATOM     20 CL   UNL     1      -0.349  -6.399   0.201  0.00  0.00    -0.084 Cl
ATOM     21  H   UNL     1       2.897  -6.387   4.669  0.00  0.00    +0.124 HD
ATOM     22  H   UNL     1      -0.764  -5.870   6.748  0.00  0.00    +0.155 HD
ENDROOT
BRANCH   1  23
ATOM     23  C   UNL     1       0.763  -2.041   1.233  0.00  0.00    +0.116 C 
BRANCH  23  24
ATOM     24  C   UNL     1       0.742  -0.511   1.242  0.00  0.00    +0.019 C 
BRANCH  24  26
ATOM     25  C   UNL     1      -0.019   1.526   0.010  0.00  0.00    +0.004 C 
ATOM     26  C   UNL     1       0.002  -0.004   0.002  0.00  0.00    -0.002 C 
ENDBRANCH  24  26
ENDBRANCH  23  24
ENDBRANCH   1  23
BRANCH   5  27
ATOM     27  C   UNL     1       5.165  -4.824   3.831  0.00  0.00    +0.054 C 
BRANCH  27  28
ATOM     28  C   UNL     1       5.587  -6.253   3.602  0.00  0.00    -0.046 A 
ATOM     29  C   UNL     1       5.656  -7.131   4.668  0.00  0.00    +0.007 A 
ATOM     30  C   UNL     1       6.042  -8.441   4.461  0.00  0.00    +0.045 A 
ATOM     31  C   UNL     1       6.360  -8.876   3.183  0.00  0.00    +0.117 A 
ATOM     32  C   UNL     1       6.290  -7.993   2.115  0.00  0.00    +0.045 A 
ATOM     33  C   UNL     1       5.898  -6.685   2.326  0.00  0.00    +0.007 A 
BRANCH  31  34
ATOM     34  O   UNL     1       6.741 -10.164   2.977  0.00  0.00    -0.507 OA
ATOM     35  H   UNL     1       6.008 -10.765   2.784  0.00  0.00    +0.292 HD
ENDBRANCH  31  34
ENDBRANCH  27  28
ENDBRANCH   5  27
TORSDOF 6
