REMARK  Name = ZINC59293459
REMARK  13 active torsions:
REMARK  status: ('A' for Active; 'I' for Inactive)
REMARK    1  A    between atoms: C_1  and  C_2
REMARK    2  A    between atoms: C_3  and  C_28
REMARK    3  A    between atoms: N_11  and  C_14
REMARK    4  A    between atoms: C_14  and  C_15
REMARK    5  A    between atoms: C_15  and  O_17
REMARK    6  A    between atoms: O_17  and  C_18
REMARK    7  A    between atoms: C_18  and  C_19
REMARK    8  A    between atoms: C_18  and  C_20
REMARK    9  A    between atoms: C_18  and  C_21
REMARK   10  A    between atoms: C_22  and  C_26
REMARK   11  A    between atoms: C_23  and  N_25
REMARK   12  A    between atoms: C_28  and  O_30
REMARK   13  A    between atoms: O_30  and  C_31
REMARK                            x       y       z     vdW  Elec       q    Type
REMARK                         _______ _______ _______ _____ _____    ______ ____
ROOT
ATOM      1  C   UNL     1      -0.018   1.503   0.010  0.00  0.00    +0.087 C 
ATOM      2  C   UNL     1       0.002  -0.004   0.002  0.00  0.00    +0.116 C 
ATOM      3  C   UNL     1      -1.161  -0.671   0.004  0.00  0.00    +0.099 C 
ATOM      4  C   UNL     1      -1.190  -2.172  -0.003  0.00  0.00    +0.148 C 
ATOM      5  C   UNL     1      -1.627  -2.686  -1.351  0.00  0.00    -0.001 A 
ATOM      6  C   UNL     1      -1.103  -2.569  -2.619  0.00  0.00    +0.007 A 
ATOM      7  C   UNL     1      -1.743  -3.167  -3.690  0.00  0.00    +0.000 A 
ATOM      8  C   UNL     1      -2.909  -3.881  -3.483  0.00  0.00    +0.002 A 
ATOM      9  C   UNL     1      -3.438  -4.000  -2.215  0.00  0.00    +0.024 A 
ATOM     10  C   UNL     1      -2.799  -3.401  -1.131  0.00  0.00    +0.042 A 
ATOM     11  N   UNL     1      -3.131  -3.378   0.224  0.00  0.00    -0.259 N 
ATOM     12  C   UNL     1      -2.243  -2.680   0.954  0.00  0.00    +0.241 C 
ATOM     13  O   UNL     1      -2.280  -2.495   2.152  0.00  0.00    -0.274 OA
ATOM     14  C   UNL     1       0.156  -2.729   0.361  0.00  0.00    +0.110 C 
ATOM     15  C   UNL     1       1.258  -1.938   0.340  0.00  0.00    +0.199 C 
ATOM     16  O   UNL     1       1.184  -0.640  -0.013  0.00  0.00    -0.445 OA
ENDROOT
BRANCH  15  17
ATOM     17  N   UNL     1       2.476  -2.473   0.680  0.00  0.00    -0.328 N 
ATOM     18  H   UNL     1       2.541  -3.407   0.932  0.00  0.00    +0.145 HD
ATOM     19  H   UNL     1       3.270  -1.917   0.669  0.00  0.00    +0.145 HD
ENDBRANCH  15  17
BRANCH  14  20
ATOM     20  C   UNL     1       0.278  -4.106   0.734  0.00  0.00    +0.102 C 
ATOM     21  N   UNL     1       0.374  -5.199   1.029  0.00  0.00    -0.191 NA
ENDBRANCH  14  20
BRANCH   3  22
ATOM     22  C   UNL     1      -2.380   0.051   0.013  0.00  0.00    +0.340 C 
ATOM     23  O   UNL     1      -2.366   1.267   0.019  0.00  0.00    -0.245 OA
BRANCH  22  24
ATOM     24  O   UNL     1      -3.556  -0.611   0.015  0.00  0.00    -0.465 OA
ATOM     25  C   UNL     1      -4.746   0.181   0.025  0.00  0.00    +0.280 C 
ENDBRANCH  22  24
ENDBRANCH   3  22
BRANCH  11  26
ATOM     26  C   UNL     1      -4.312  -4.038   0.787  0.00  0.00    +0.234 C 
BRANCH  26  27
ATOM     27  C   UNL     1      -3.957  -5.447   1.186  0.00  0.00    +0.326 C 
ATOM     28  O   UNL     1      -2.833  -5.859   1.018  0.00  0.00    -0.249 OA
BRANCH  27  29
ATOM     29  O   UNL     1      -4.889  -6.246   1.729  0.00  0.00    -0.458 OA
BRANCH  29  30
ATOM     30  C   UNL     1      -4.483  -7.570   2.083  0.00  0.00    +0.105 C 
ATOM     31  C   UNL     1      -3.354  -7.498   3.113  0.00  0.00    +0.055 C 
ATOM     32  C   UNL     1      -5.672  -8.325   2.682  0.00  0.00    +0.055 C 
ATOM     33  C   UNL     1      -3.990  -8.303   0.835  0.00  0.00    +0.055 C 
ENDBRANCH  29  30
ENDBRANCH  27  29
ENDBRANCH  26  27
ENDBRANCH  11  26
TORSDOF 8
