REMARK  Name = ZINC14360941
REMARK  10 active torsions:
REMARK  status: ('A' for Active; 'I' for Inactive)
REMARK    1  A    between atoms: C_1  and  C_2
REMARK    2  A    between atoms: C_2  and  C_3
REMARK    3  A    between atoms: C_2  and  C_4
REMARK    4  A    between atoms: C_2  and  C_5
REMARK    5  A    between atoms: C_10  and  N_11
REMARK    6  A    between atoms: C_12  and  C_14
REMARK    7  A    between atoms: N_17  and  C_20
REMARK    8  A    between atoms: C_23  and  S_29
REMARK    9  A    between atoms: C_25  and  N_26
REMARK   10  A    between atoms: S_29  and  N_32
REMARK                            x       y       z     vdW  Elec       q    Type
REMARK                         _______ _______ _______ _____ _____    ______ ____
ROOT
ATOM      1  C   UNL     1      -4.311   4.511   6.644  0.00  0.00    +0.078 C 
ATOM      2  C   UNL     1      -3.461   3.249   6.821  0.00  0.00    +0.031 C 
ATOM      3  C   UNL     1      -2.765   2.919   5.499  0.00  0.00    +0.106 C 
ATOM      4  N   UNL     1      -3.774   2.708   4.453  0.00  0.00    -0.328 N 
ATOM      5  C   UNL     1      -4.571   3.921   4.232  0.00  0.00    +0.106 C 
ATOM      6  C   UNL     1      -5.321   4.282   5.516  0.00  0.00    +0.031 C 
ENDROOT
BRANCH   4   7
ATOM      7  C   UNL     1      -3.180   2.276   3.265  0.00  0.00    +0.060 A 
ATOM      8  C   UNL     1      -2.234   3.071   2.630  0.00  0.00    +0.027 A 
ATOM      9  C   UNL     1      -1.645   2.638   1.458  0.00  0.00    +0.030 A 
ATOM     10  C   UNL     1      -2.004   1.419   0.911  0.00  0.00    +0.108 A 
ATOM     11  C   UNL     1      -2.945   0.625   1.540  0.00  0.00    +0.063 A 
ATOM     12  C   UNL     1      -3.534   1.050   2.716  0.00  0.00    +0.149 A 
BRANCH  12  13
ATOM     13  N   UNL     1      -4.541   0.200   3.389  0.00  0.00    +0.058 N 
ATOM     14  O   UNL     1      -4.851  -0.875   2.906  0.00  0.00    -0.126 OA
ATOM     15  O   UNL     1      -5.060   0.575   4.425  0.00  0.00    -0.126 OA
ENDBRANCH  12  13
BRANCH  10  16
ATOM     16  S   UNL     1      -1.256   0.874  -0.588  0.00  0.00    +0.061 S 
ATOM     17  O   UNL     1      -1.356  -0.543  -0.600  0.00  0.00    -0.153 OA
ATOM     18  O   UNL     1      -0.010   1.550  -0.689  0.00  0.00    -0.153 OA
BRANCH  16  19
ATOM     19  N   UNL     1      -2.196   1.426  -1.834  0.00  0.00    -0.172 NA
ATOM     20  C   UNL     1      -3.305   0.616  -2.363  0.00  0.00    +0.137 C 
ATOM     21  C   UNL     1      -4.564   1.496  -2.407  0.00  0.00    +0.177 C 
ATOM     22  O   UNL     1      -4.267   2.703  -3.114  0.00  0.00    -0.377 OA
ATOM     23  C   UNL     1      -3.267   3.514  -2.493  0.00  0.00    +0.177 C 
ATOM     24  C   UNL     1      -1.945   2.739  -2.449  0.00  0.00    +0.137 C 
ENDBRANCH  16  19
ENDBRANCH  10  16
ENDBRANCH   4   7
BRANCH   1  26
ATOM     25  N   UNL     1      -5.859   5.879   8.003  0.00  0.00    -0.285 N 
ATOM     26  C   UNL     1      -5.045   4.808   7.926  0.00  0.00    +0.220 C 
ATOM     27  O   UNL     1      -4.904   4.082   8.887  0.00  0.00    -0.275 OA
ATOM     28  H   UNL     1      -5.906   6.507   7.266  0.00  0.00    +0.155 HD
BRANCH  25  34
ATOM     29  C   UNL     1      -7.553   7.128   9.188  0.00  0.00    -0.021 A 
ATOM     30  C   UNL     1      -8.325   7.325  10.317  0.00  0.00    +0.006 A 
ATOM     31  C   UNL     1      -8.177   6.491  11.410  0.00  0.00    +0.000 A 
ATOM     32  C   UNL     1      -7.262   5.455  11.376  0.00  0.00    +0.002 A 
ATOM     33  C   UNL     1      -6.492   5.249  10.248  0.00  0.00    +0.023 A 
ATOM     34  C   UNL     1      -6.638   6.085   9.148  0.00  0.00    +0.037 A 
BRANCH  29  36
ATOM     35  C   UNL     1      -8.798   9.076   8.290  0.00  0.00    +0.015 C 
ATOM     36  C   UNL     1      -7.710   8.040   7.999  0.00  0.00    -0.011 C 
ATOM     37  C   UNL     1      -6.385   8.755   7.727  0.00  0.00    +0.015 C 
ATOM     38  C   UNL     1      -8.106   7.216   6.772  0.00  0.00    +0.015 C 
ENDBRANCH  29  36
ENDBRANCH  25  34
ENDBRANCH   1  26
TORSDOF 7
