REMARK  Name = ZINC49522492
REMARK  6 active torsions:
REMARK  status: ('A' for Active; 'I' for Inactive)
REMARK    1  A    between atoms: C_5  and  C_6
REMARK    2  A    between atoms: C_6  and  N_7
REMARK    3  A    between atoms: C_10  and  C_13
REMARK    4  A    between atoms: C_13  and  N_14
REMARK    5  A    between atoms: C_15  and  C_17
REMARK    6  A    between atoms: N_19  and  C_20
REMARK                            x       y       z     vdW  Elec       q    Type
REMARK                         _______ _______ _______ _____ _____    ______ ____
ROOT
ATOM      1  N   UNL     1      -4.234  -3.599  -5.090  0.00  0.00    -0.307 N 
ATOM      2  C   UNL     1      -4.820  -3.830  -6.281  0.00  0.00    +0.299 C 
ATOM      3  O   UNL     1      -4.303  -3.422  -7.301  0.00  0.00    -0.265 OA
ATOM      4  H   UNL     1      -4.647  -3.925  -4.275  0.00  0.00    +0.149 HD
ENDROOT
BRANCH   2   5
ATOM      5  C   UNL     1      -6.106  -4.586  -6.347  0.00  0.00    +0.303 C 
ATOM      6  O   UNL     1      -6.623  -4.994  -5.327  0.00  0.00    -0.265 OA
ATOM      7  N   UNL     1      -6.692  -4.817  -7.538  0.00  0.00    -0.278 N 
ATOM      8  H   UNL     1      -6.315  -4.434  -8.346  0.00  0.00    +0.155 HD
BRANCH   7   9
ATOM      9  C   UNL     1      -7.843  -5.607  -7.610  0.00  0.00    +0.034 A 
ATOM     10  C   UNL     1      -8.784  -5.559  -6.590  0.00  0.00    +0.028 A 
ATOM     11  C   UNL     1      -9.929  -6.333  -6.661  0.00  0.00    -0.024 A 
ATOM     12  C   UNL     1     -10.139  -7.155  -7.759  0.00  0.00    +0.043 A 
ATOM     13  C   UNL     1      -9.188  -7.217  -8.772  0.00  0.00    -0.023 A 
ATOM     14  C   UNL     1      -8.051  -6.436  -8.704  0.00  0.00    +0.028 A 
ATOM     15  C   UNL     1      -9.381  -8.145  -9.942  0.00  0.00    +0.046 C 
ATOM     16  C   UNL     1     -10.868  -8.271 -10.270  0.00  0.00    +0.101 C 
ATOM     17  C   UNL     1     -11.647  -8.525  -9.008  0.00  0.00    +0.220 C 
ATOM     18  O   UNL     1     -12.603  -9.272  -9.035  0.00  0.00    -0.275 OA
ATOM     19  N   UNL     1     -11.298  -7.936  -7.853  0.00  0.00    -0.271 N 
ATOM     20  C   UNL     1     -12.143  -8.109  -6.662  0.00  0.00    +0.114 C 
ATOM     21  C   UNL     1     -12.297  -6.737  -5.994  0.00  0.00    +0.024 C 
ATOM     22  C   UNL     1     -10.922  -6.258  -5.531  0.00  0.00    +0.038 C 
ENDBRANCH   7   9
ENDBRANCH   2   5
BRANCH   1  23
ATOM     23  C   UNL     1      -2.972  -2.857  -5.025  0.00  0.00    +0.108 C 
BRANCH  23  27
ATOM     24  N   UNL     1      -1.728  -1.030  -1.366  0.00  0.00    +0.382 N 
ATOM     25  C   UNL     1      -0.742  -1.881  -2.043  0.00  0.00    -0.078 C 
ATOM     26  C   UNL     1      -1.147  -2.071  -3.507  0.00  0.00    -0.014 C 
ATOM     27  C   UNL     1      -2.526  -2.736  -3.567  0.00  0.00    +0.003 C 
ATOM     28  C   UNL     1      -3.530  -1.877  -2.793  0.00  0.00    -0.014 C 
ATOM     29  C   UNL     1      -3.037  -1.694  -1.357  0.00  0.00    -0.078 C 
ATOM     30  H   UNL     1      -1.802  -0.150  -1.854  0.00  0.00    -0.081 HD
BRANCH  24  31
ATOM     31  C   UNL     1      -1.294  -0.786   0.017  0.00  0.00    -0.042 C 
BRANCH  31  36
ATOM     32  C   UNL     1      -0.038   1.385   0.022  0.00  0.00    +0.009 A 
ATOM     33  C   UNL     1       1.135   2.066   0.015  0.00  0.00    +0.045 A 
ATOM     34  S   UNL     1       2.330   0.741  -0.012  0.00  0.00    -0.105 S 
ATOM     35  C   UNL     1       1.187  -0.630  -0.011  0.00  0.00    +0.047 A 
ATOM     36  C   UNL     1      -0.011   0.004   0.009  0.00  0.00    -0.057 A 
ENDBRANCH  31  36
ENDBRANCH  24  31
ENDBRANCH  23  27
ENDBRANCH   1  23
TORSDOF 6
