REMARK  Name = ZINC20541521
REMARK  7 active torsions:
REMARK  status: ('A' for Active; 'I' for Inactive)
REMARK    1  A    between atoms: C_6  and  C_7
REMARK    2  A    between atoms: C_7  and  N_8
REMARK    3  A    between atoms: C_14  and  C_16
REMARK    4  A    between atoms: C_16  and  C_17
REMARK    5  A    between atoms: N_19  and  C_20
REMARK    6  A    between atoms: C_20  and  C_21
REMARK    7  A    between atoms: C_21  and  O_27
REMARK                            x       y       z     vdW  Elec       q    Type
REMARK                         _______ _______ _______ _____ _____    ______ ____
ROOT
ATOM      1  N   UNL     1      -4.743   1.214   0.827  0.00  0.00    +0.391 N 
ATOM      2  C   UNL     1      -4.359   2.565   1.268  0.00  0.00    -0.058 C 
ATOM      3  C   UNL     1      -2.895   2.806   0.894  0.00  0.00    +0.085 C 
ATOM      4  N   UNL     1      -2.071   1.692   1.354  0.00  0.00    -0.318 N 
ATOM      5  C   UNL     1      -2.578   0.498   1.678  0.00  0.00    +0.200 C 
ATOM      6  O   UNL     1      -1.818  -0.382   2.022  0.00  0.00    -0.278 OA
ATOM      7  C   UNL     1      -4.050   0.201   1.634  0.00  0.00    +0.028 C 
ATOM      8  H   UNL     1      -0.982   1.815   1.446  0.00  0.00    +0.149 HD
ATOM      9  H   UNL     1      -4.439   1.089  -0.223  0.00  0.00    -0.080 HD
ENDROOT
BRANCH   1  10
ATOM     10  C   UNL     1      -6.199   1.033   0.891  0.00  0.00    -0.042 C 
BRANCH  10  16
ATOM     11  C   UNL     1      -7.151   1.995  -1.214  0.00  0.00    +0.003 A 
ATOM     12  C   UNL     1      -7.778   3.011  -1.911  0.00  0.00    +0.023 A 
ATOM     13  C   UNL     1      -8.128   4.181  -1.262  0.00  0.00    +0.076 A 
ATOM     14  C   UNL     1      -7.849   4.334   0.086  0.00  0.00    +0.142 A 
ATOM     15  C   UNL     1      -7.221   3.315   0.782  0.00  0.00    +0.041 A 
ATOM     16  C   UNL     1      -6.877   2.145   0.132  0.00  0.00    -0.061 A 
ATOM     17  F   UNL     1      -8.191   5.476   0.722  0.00  0.00    -0.204 F 
ATOM     18 CL   UNL     1      -8.915   5.457  -2.137  0.00  0.00    -0.081 Cl
ENDBRANCH  10  16
ENDBRANCH   1  10
BRANCH   7  19
ATOM     19  C   UNL     1      -4.269  -1.180   1.014  0.00  0.00    +0.089 C 
BRANCH  19  20
ATOM     20  C   UNL     1      -3.779  -1.174  -0.411  0.00  0.00    +0.212 C 
ATOM     21  O   UNL     1      -3.394  -0.140  -0.916  0.00  0.00    -0.276 OA
ATOM     22  N   UNL     1      -3.768  -2.317  -1.125  0.00  0.00    -0.313 N 
ATOM     23  H   UNL     1      -4.117  -3.254  -0.668  0.00  0.00    +0.149 HD
BRANCH  22  24
ATOM     24  C   UNL     1      -3.292  -2.311  -2.511  0.00  0.00    +0.138 C 
BRANCH  24  25
ATOM     25  C   UNL     1      -3.383  -3.725  -3.088  0.00  0.00    +0.081 C 
ATOM     26  C   UNL     1      -2.620  -4.695  -2.184  0.00  0.00    +0.036 C 
ATOM     27  C   UNL     1      -2.712  -6.109  -2.761  0.00  0.00    +0.003 C 
ATOM     28  C   UNL     1      -2.099  -6.129  -4.163  0.00  0.00    +0.000 C 
ATOM     29  C   UNL     1      -2.862  -5.159  -5.066  0.00  0.00    +0.003 C 
ATOM     30  C   UNL     1      -2.771  -3.745  -4.489  0.00  0.00    +0.036 C 
BRANCH  25  31
ATOM     31  O   UNL     1      -4.754  -4.122  -3.161  0.00  0.00    -0.387 OA
ATOM     32  H   UNL     1      -5.019  -5.114  -3.554  0.00  0.00    +0.210 HD
ENDBRANCH  25  31
ENDBRANCH  24  25
ENDBRANCH  22  24
ENDBRANCH  19  20
ENDBRANCH   7  19
TORSDOF 7
