REMARK  Name = ZINC24035442
REMARK  7 active torsions:
REMARK  status: ('A' for Active; 'I' for Inactive)
REMARK    1  A    between atoms: C_3  and  N_8
REMARK    2  A    between atoms: N_8  and  S_9
REMARK    3  A    between atoms: S_9  and  C_12
REMARK    4  A    between atoms: C_15  and  N_21
REMARK    5  A    between atoms: C_16  and  N_18
REMARK    6  A    between atoms: N_21  and  N_22
REMARK    7  A    between atoms: N_22  and  C_23
REMARK                            x       y       z     vdW  Elec       q    Type
REMARK                         _______ _______ _______ _____ _____    ______ ____
ROOT
ATOM      1  C   UNL     1       5.958   2.719   0.396  0.00  0.00    +0.113 A 
ATOM      2  C   UNL     1       6.005   3.297  -0.859  0.00  0.00    +0.031 A 
ATOM      3  C   UNL     1       6.954   4.260  -1.142  0.00  0.00    +0.028 A 
ATOM      4  C   UNL     1       7.860   4.648  -0.163  0.00  0.00    +0.075 A 
ATOM      5  C   UNL     1       7.809   4.065   1.097  0.00  0.00    +0.150 A 
ATOM      6  C   UNL     1       6.855   3.106   1.374  0.00  0.00    +0.063 A 
ENDROOT
BRANCH   1   7
ATOM      7  S   UNL     1       4.746   1.490   0.752  0.00  0.00    +0.092 S 
ATOM      8  O   UNL     1       5.256   0.717   1.830  0.00  0.00    -0.148 OA
ATOM      9  O   UNL     1       4.377   0.911  -0.492  0.00  0.00    -0.148 OA
BRANCH   7  10
ATOM     10  N   UNL     1       3.405   2.276   1.325  0.00  0.00    -0.098 NA
BRANCH  10  13
ATOM     11  C   UNL     1       0.028   1.480   2.536  0.00  0.00    +0.003 A 
ATOM     12  C   UNL     1       1.147   2.204   2.174  0.00  0.00    +0.027 A 
ATOM     13  C   UNL     1       2.273   1.546   1.693  0.00  0.00    +0.076 A 
ATOM     14  C   UNL     1       2.268   0.162   1.578  0.00  0.00    +0.046 A 
ATOM     15  C   UNL     1       1.146  -0.556   1.943  0.00  0.00    +0.043 A 
ATOM     16  C   UNL     1       0.026   0.103   2.421  0.00  0.00    +0.020 A 
ATOM     17 CL   UNL     1       1.139  -2.287   1.800  0.00  0.00    -0.083 Cl
ENDBRANCH  10  13
ENDBRANCH   7  10
ENDBRANCH   1   7
BRANCH   5  18
ATOM     18  N   UNL     1       8.774   4.475   2.142  0.00  0.00    +0.058 N 
ATOM     19  O   UNL     1       9.927   4.689   1.850  0.00  0.00    -0.126 OA
ATOM     20  O   UNL     1       8.408   4.596   3.288  0.00  0.00    -0.126 OA
ENDBRANCH   5  18
BRANCH   4  21
ATOM     21  N   UNL     1       8.821   5.622  -0.446  0.00  0.00    -0.264 N 
ATOM     22  H   UNL     1       9.394   5.957   0.262  0.00  0.00    +0.170 HD
BRANCH  21  23
ATOM     23  N   UNL     1       8.957   6.114  -1.750  0.00  0.00    -0.261 N 
ATOM     24  H   UNL     1       8.453   5.712  -2.475  0.00  0.00    +0.170 HD
BRANCH  23  25
ATOM     25  C   UNL     1       9.781   7.135  -1.996  0.00  0.00    +0.116 C 
ATOM     26  C   UNL     1      10.497   7.912  -1.052  0.00  0.00    +0.026 A 
ATOM     27  C   UNL     1      10.582   7.883   0.346  0.00  0.00    +0.050 A 
ATOM     28  C   UNL     1      11.388   8.796   1.002  0.00  0.00    +0.124 A 
ATOM     29  C   UNL     1      12.108   9.736   0.281  0.00  0.00    +0.040 A 
ATOM     30  C   UNL     1      12.036   9.780  -1.102  0.00  0.00    +0.027 A 
ATOM     31  C   UNL     1      11.234   8.873  -1.789  0.00  0.00    +0.043 A 
ATOM     32  N   UNL     1      10.992   8.707  -3.123  0.00  0.00    -0.280 N 
ATOM     33  C   UNL     1      10.157   7.707  -3.336  0.00  0.00    +0.264 C 
ATOM     34  O   UNL     1       9.760   7.320  -4.420  0.00  0.00    -0.268 OA
ATOM     35  F   UNL     1      11.473   8.772   2.350  0.00  0.00    -0.205 F 
ATOM     36  H   UNL     1      11.386   9.251  -3.823  0.00  0.00    +0.155 HD
ENDBRANCH  23  25
ENDBRANCH  21  23
ENDBRANCH   4  21
TORSDOF 7
