REMARK  Name = ZINC09598269
REMARK  11 active torsions:
REMARK  status: ('A' for Active; 'I' for Inactive)
REMARK    1  A    between atoms: C_1  and  C_2
REMARK    2  A    between atoms: C_5  and  N_8
REMARK    3  A    between atoms: C_9  and  C_11
REMARK    4  A    between atoms: C_12  and  C_40
REMARK    5  A    between atoms: C_16  and  C_18
REMARK    6  A    between atoms: C_21  and  C_23
REMARK    7  A    between atoms: C_27  and  C_30
REMARK    8  A    between atoms: C_33  and  O_38
REMARK    9  A    between atoms: C_34  and  O_36
REMARK   10  A    between atoms: O_36  and  C_37
REMARK   11  A    between atoms: O_38  and  C_39
REMARK                            x       y       z     vdW  Elec       q    Type
REMARK                         _______ _______ _______ _____ _____    ______ ____
ROOT
ATOM      1  C   UNL     1      -1.125  -2.105   0.268  0.00  0.00    +0.044 C 
ATOM      2  C   UNL     1      -2.280  -2.789   0.222  0.00  0.00    +0.014 C 
ATOM      3  N   UNL     1      -2.277  -4.157   0.246  0.00  0.00    -0.321 N 
ATOM      4  C   UNL     1      -1.145  -4.859  -0.067  0.00  0.00    +0.016 C 
ATOM      5  C   UNL     1       0.064  -4.260  -0.033  0.00  0.00    +0.024 C 
ATOM      6  C   UNL     1       0.195  -2.811   0.365  0.00  0.00    +0.097 C 
ATOM      7  C   UNL     1       1.234  -4.965  -0.366  0.00  0.00    +0.162 C 
ATOM      8  O   UNL     1       2.307  -4.397  -0.318  0.00  0.00    -0.292 OA
ATOM      9  C   UNL     1       1.180  -6.410  -0.782  0.00  0.00    +0.088 C 
ATOM     10  C   UNL     1      -0.177  -6.691  -1.435  0.00  0.00    +0.032 C 
ATOM     11  C   UNL     1      -1.281  -6.313  -0.446  0.00  0.00    +0.059 C 
ATOM     12  C   UNL     1      -3.588  -2.045   0.138  0.00  0.00    +0.061 C 
ATOM     13  H   UNL     1      -3.191  -4.704   0.520  0.00  0.00    +0.152 HD
ENDROOT
BRANCH   6  14
ATOM     14  C   UNL     1       0.695  -2.730   1.784  0.00  0.00    +0.002 A 
ATOM     15  C   UNL     1       1.842  -2.183   2.255  0.00  0.00    +0.012 A 
ATOM     16  C   UNL     1       2.095  -2.221   3.614  0.00  0.00    +0.011 A 
ATOM     17  C   UNL     1       1.194  -2.816   4.434  0.00  0.00    -0.013 A 
ATOM     18  S   UNL     1      -0.065  -3.339   3.281  0.00  0.00    -0.097 S 
ATOM     19  C   UNL     1       1.242  -2.990   5.930  0.00  0.00    +0.051 C 
ENDBRANCH   6  14
BRANCH  10  20
ATOM     20  C   UNL     1      -0.284  -8.155  -1.779  0.00  0.00    -0.040 A 
ATOM     21  C   UNL     1      -0.178  -9.107  -0.781  0.00  0.00    +0.008 A 
ATOM     22  C   UNL     1      -0.276 -10.450  -1.091  0.00  0.00    +0.049 A 
ATOM     23  C   UNL     1      -0.481 -10.846  -2.403  0.00  0.00    +0.161 A 
ATOM     24  C   UNL     1      -0.589  -9.888  -3.406  0.00  0.00    +0.162 A 
ATOM     25  C   UNL     1      -0.495  -8.542  -3.089  0.00  0.00    +0.053 A 
BRANCH  24  26
ATOM     26  O   UNL     1      -0.791 -10.271  -4.696  0.00  0.00    -0.491 OA
ATOM     27  C   UNL     1      -0.891  -9.233  -5.673  0.00  0.00    +0.277 C 
ENDBRANCH  24  26
BRANCH  23  28
ATOM     28  O   UNL     1      -0.578 -12.167  -2.709  0.00  0.00    -0.491 OA
ATOM     29  C   UNL     1      -0.459 -13.094  -1.628  0.00  0.00    +0.277 C 
ENDBRANCH  23  28
ENDBRANCH  10  20
BRANCH   1  31
ATOM     30  N   UNL     1      -0.003   0.007   0.158  0.00  0.00    -0.282 N 
ATOM     31  C   UNL     1      -1.155  -0.689   0.229  0.00  0.00    +0.247 C 
ATOM     32  O   UNL     1      -2.221  -0.101   0.259  0.00  0.00    -0.270 OA
ATOM     33  H   UNL     1       0.954  -0.523   0.045  0.00  0.00    +0.155 HD
BRANCH  30  38
ATOM     34  C   UNL     1      -0.091   5.672   0.445  0.00  0.00    +0.044 C 
ATOM     35  C   UNL     1      -0.068   4.167   0.369  0.00  0.00    -0.050 A 
ATOM     36  C   UNL     1      -0.998   3.426   1.074  0.00  0.00    +0.005 A 
ATOM     37  C   UNL     1      -0.980   2.046   1.007  0.00  0.00    +0.023 A 
ATOM     38  C   UNL     1      -0.025   1.404   0.229  0.00  0.00    +0.034 A 
ATOM     39  C   UNL     1       0.912   2.151  -0.473  0.00  0.00    +0.023 A 
ATOM     40  C   UNL     1       0.884   3.530  -0.405  0.00  0.00    +0.005 A 
ENDBRANCH  30  38
ENDBRANCH   1  31
TORSDOF 6
