REMARK  Name = ZINC33292706
REMARK  9 active torsions:
REMARK  status: ('A' for Active; 'I' for Inactive)
REMARK    1  A    between atoms: C_1  and  C_2
REMARK    2  A    between atoms: C_5  and  C_8
REMARK    3  A    between atoms: C_10  and  O_32
REMARK    4  A    between atoms: C_13  and  N_18
REMARK    5  A    between atoms: N_18  and  S_19
REMARK    6  A    between atoms: S_19  and  C_22
REMARK    7  A    between atoms: C_25  and  N_28
REMARK    8  A    between atoms: C_29  and  C_31
REMARK    9  A    between atoms: O_32  and  C_33
REMARK                            x       y       z     vdW  Elec       q    Type
REMARK                         _______ _______ _______ _____ _____    ______ ____
ROOT
ATOM      1  C   UNL     1       4.274   9.118   5.070  0.00  0.00    +0.050 A 
ATOM      2  C   UNL     1       3.745  10.413   5.139  0.00  0.00    +0.072 A 
ATOM      3  C   UNL     1       2.588  10.712   4.468  0.00  0.00    +0.131 A 
ATOM      4  C   UNL     1       1.965   9.685   3.720  0.00  0.00    +0.042 A 
ATOM      5  C   UNL     1       0.781   9.922   3.009  0.00  0.00    +0.038 A 
ATOM      6  C   UNL     1       0.203   8.896   2.292  0.00  0.00    +0.049 A 
ATOM      7  C   UNL     1       0.785   7.625   2.274  0.00  0.00    +0.026 A 
ATOM      8  C   UNL     1       1.937   7.374   2.952  0.00  0.00    +0.028 A 
ATOM      9  C   UNL     1       2.554   8.397   3.694  0.00  0.00    +0.050 A 
ATOM     10  N   UNL     1       3.684   8.167   4.370  0.00  0.00    -0.354 N 
ATOM     11  H   UNL     1       4.122   7.159   4.334  0.00  0.00    +0.166 HD
ENDROOT
BRANCH   1  16
ATOM     12  C   UNL     1       9.137   7.915   7.910  0.00  0.00    +0.044 C 
ATOM     13  C   UNL     1       7.864   8.229   7.167  0.00  0.00    -0.050 A 
ATOM     14  C   UNL     1       7.235   7.243   6.429  0.00  0.00    +0.004 A 
ATOM     15  C   UNL     1       6.069   7.526   5.746  0.00  0.00    +0.010 A 
ATOM     16  C   UNL     1       5.526   8.808   5.801  0.00  0.00    -0.002 A 
ATOM     17  C   UNL     1       6.168   9.800   6.542  0.00  0.00    +0.010 A 
ATOM     18  C   UNL     1       7.330   9.504   7.225  0.00  0.00    +0.004 A 
ENDBRANCH   1  16
BRANCH   6  19
ATOM     19  N   UNL     1      -0.978   9.128   1.581  0.00  0.00    -0.216 N 
ATOM     20  H   UNL     1      -1.935   8.743   1.964  0.00  0.00    +0.174 HD
BRANCH  19  21
ATOM     21  S   UNL     1      -0.937   9.981   0.163  0.00  0.00    +0.072 S 
ATOM     22  O   UNL     1      -0.212  11.174   0.427  0.00  0.00    -0.150 OA
ATOM     23  O   UNL     1      -2.266   9.993  -0.342  0.00  0.00    -0.150 OA
BRANCH  21  24
ATOM     24  C   UNL     1       0.027   9.048  -0.979  0.00  0.00    +0.109 A 
ATOM     25  C   UNL     1      -0.595   8.187  -1.865  0.00  0.00    +0.030 A 
ATOM     26  C   UNL     1       0.158   7.454  -2.761  0.00  0.00    +0.025 A 
ATOM     27  C   UNL     1       1.541   7.582  -2.772  0.00  0.00    +0.033 A 
ATOM     28  C   UNL     1       2.163   8.444  -1.878  0.00  0.00    +0.025 A 
ATOM     29  C   UNL     1       1.403   9.178  -0.988  0.00  0.00    +0.030 A 
BRANCH  27  30
ATOM     30  N   UNL     1       2.307   6.841  -3.679  0.00  0.00    -0.286 N 
ATOM     31  C   UNL     1       1.832   6.591  -4.916  0.00  0.00    +0.214 C 
ATOM     32  O   UNL     1       0.706   6.931  -5.213  0.00  0.00    -0.276 OA
ATOM     33  C   UNL     1       2.698   5.885  -5.927  0.00  0.00    +0.109 C 
ATOM     34  H   UNL     1       3.296   6.463  -3.383  0.00  0.00    +0.155 HD
ENDBRANCH  27  30
ENDBRANCH  21  24
ENDBRANCH  19  21
ENDBRANCH   6  19
BRANCH   3  35
ATOM     35  O   UNL     1       2.056  11.959   4.518  0.00  0.00    -0.494 OA
ATOM     36  C   UNL     1       2.754  12.931   5.298  0.00  0.00    +0.277 C 
ENDBRANCH   3  35
TORSDOF 6
