REMARK  Name = ZINC12152462
REMARK  13 active torsions:
REMARK  status: ('A' for Active; 'I' for Inactive)
REMARK    1  A    between atoms: C_1  and  C_2
REMARK    2  A    between atoms: C_2  and  C_4
REMARK    3  A    between atoms: C_2  and  N_59
REMARK    4  A    between atoms: C_4  and  C_5
REMARK    5  A    between atoms: C_5  and  C_6
REMARK    6  A    between atoms: C_6  and  C_7
REMARK    7  A    between atoms: C_7  and  C_8
REMARK    8  A    between atoms: C_7  and  C_9
REMARK    9  A    between atoms: C_7  and  O_10
REMARK   10  A    between atoms: C_11  and  C_12
REMARK   11  A    between atoms: C_11  and  N_59
REMARK   12  A    between atoms: N_20  and  C_23
REMARK   13  A    between atoms: C_23  and  C_24
REMARK                            x       y       z     vdW  Elec       q    Type
REMARK                         _______ _______ _______ _____ _____    ______ ____
ROOT
ATOM      1  C   UNL     1      -0.718   1.572   1.248  0.00  0.00    +0.001 A 
ATOM      2  C   UNL     1      -1.628   0.776   1.863  0.00  0.00    +0.017 A 
ATOM      3  C   UNL     1      -2.295   1.278   3.066  0.00  0.00    -0.001 A 
ATOM      4  C   UNL     1      -3.243   0.502   3.744  0.00  0.00    +0.011 A 
ATOM      5  C   UNL     1      -3.848   0.998   4.863  0.00  0.00    +0.021 A 
ATOM      6  C   UNL     1      -3.531   2.267   5.335  0.00  0.00    +0.043 A 
ATOM      7  C   UNL     1      -2.600   3.048   4.682  0.00  0.00    +0.046 A 
ATOM      8  C   UNL     1      -1.971   2.563   3.540  0.00  0.00    +0.054 A 
ATOM      9  N   UNL     1      -1.036   3.321   2.869  0.00  0.00    -0.302 N 
ATOM     10  C   UNL     1      -0.425   2.850   1.768  0.00  0.00    +0.253 A 
ATOM     11  O   UNL     1       0.400   3.547   1.202  0.00  0.00    -0.267 OA
ATOM     12 CL   UNL     1      -4.315   2.874   6.760  0.00  0.00    -0.083 Cl
ENDROOT
BRANCH   1  13
ATOM     13  C   UNL     1      -0.013   1.086   0.008  0.00  0.00    -0.041 C 
BRANCH  13  14
ATOM     14  N   UNL     1      -0.732   1.579  -1.182  0.00  0.00    +0.384 N 
ATOM     15  H   UNL     1      -1.695   1.223  -1.167  0.00  0.00    -0.085 HD
ATOM     16  H   UNL     1      -0.746   2.605  -1.168  0.00  0.00    -0.085 HD
BRANCH  14  18
ATOM     17  C   UNL     1      -0.560  -0.285  -2.770  0.00  0.00    -0.014 C 
ATOM     18  C   UNL     1      -0.062   1.117  -2.413  0.00  0.00    -0.075 C 
BRANCH  18  19
ATOM     19  C   UNL     1      -0.391   2.081  -3.554  0.00  0.00    -0.016 C 
BRANCH  19  20
ATOM     20  C   UNL     1       0.215   3.453  -3.254  0.00  0.00    +0.001 C 
BRANCH  20  21
ATOM     21  C   UNL     1      -0.113   4.417  -4.396  0.00  0.00    +0.034 C 
BRANCH  21  22
ATOM     22  C   UNL     1       0.492   5.790  -4.095  0.00  0.00    +0.061 C 
ATOM     23  C   UNL     1       2.011   5.658  -3.959  0.00  0.00    +0.041 C 
ATOM     24  C   UNL     1       0.164   6.753  -5.237  0.00  0.00    +0.041 C 
BRANCH  22  25
ATOM     25  O   UNL     1      -0.053   6.294  -2.874  0.00  0.00    -0.389 OA
ATOM     26  H   UNL     1      -1.014   6.403  -2.888  0.00  0.00    +0.210 HD
ENDBRANCH  22  25
ENDBRANCH  21  22
ENDBRANCH  20  21
ENDBRANCH  19  20
ENDBRANCH  18  19
ENDBRANCH  14  18
ENDBRANCH  13  14
ENDBRANCH   1  13
BRANCH   9  27
ATOM     27  C   UNL     1      -0.701   4.659   3.365  0.00  0.00    +0.180 C 
BRANCH  27  28
ATOM     28  C   UNL     1       0.445   4.560   4.339  0.00  0.00    +0.061 A 
ATOM     29  C   UNL     1       1.739   4.757   3.895  0.00  0.00    +0.025 A 
ATOM     30  C   UNL     1       2.785   4.665   4.800  0.00  0.00    +0.003 A 
ATOM     31  C   UNL     1       2.489   4.376   6.123  0.00  0.00    +0.020 A 
ATOM     32  C   UNL     1       1.171   4.191   6.494  0.00  0.00    +0.111 A 
ATOM     33  N   UNL     1       0.200   4.292   5.607  0.00  0.00    -0.258 NA
ENDBRANCH  27  28
ENDBRANCH   9  27
TORSDOF 10
