REMARK  Name = ZINC03261310
REMARK  11 active torsions:
REMARK  status: ('A' for Active; 'I' for Inactive)
REMARK    1  A    between atoms: C_1  and  C_2
REMARK    2  A    between atoms: C_3  and  N_15
REMARK    3  A    between atoms: N_6  and  C_9
REMARK    4  A    between atoms: N_7  and  C_8
REMARK    5  A    between atoms: C_16  and  C_18
REMARK    6  A    between atoms: C_18  and  C_20
REMARK    7  A    between atoms: C_18  and  O_21
REMARK    8  A    between atoms: O_21  and  C_22
REMARK    9  A    between atoms: C_22  and  C_24
REMARK   10  A    between atoms: C_29  and  O_34
REMARK   11  A    between atoms: O_34  and  C_35
REMARK                            x       y       z     vdW  Elec       q    Type
REMARK                         _______ _______ _______ _____ _____    ______ ____
ROOT
ATOM      1  N   UNL     1       4.841   0.968  -1.126  0.00  0.00    -0.277 N 
ATOM      2  C   UNL     1       3.541   1.281  -0.959  0.00  0.00    +0.258 C 
ATOM      3  O   UNL     1       3.131   2.370  -1.300  0.00  0.00    -0.271 OA
ATOM      4  H   UNL     1       5.185   0.126  -0.787  0.00  0.00    +0.155 HD
ENDROOT
BRANCH   1   7
ATOM      5  C   UNL     1       7.412   2.139   0.072  0.00  0.00    +0.067 C 
ATOM      6  C   UNL     1       6.840   2.399  -1.298  0.00  0.00    +0.059 A 
ATOM      7  C   UNL     1       5.702   1.863  -1.792  0.00  0.00    +0.121 A 
ATOM      8  C   UNL     1       5.533   2.381  -3.150  0.00  0.00    +0.293 A 
ATOM      9  O   UNL     1       4.624   2.120  -3.918  0.00  0.00    -0.264 OA
ATOM     10  N   UNL     1       6.574   3.205  -3.389  0.00  0.00    -0.216 N 
ATOM     11  N   UNL     1       7.387   3.218  -2.249  0.00  0.00    -0.282 N 
ATOM     12  C   UNL     1       8.626   3.985  -2.099  0.00  0.00    +0.171 C 
BRANCH  10  13
ATOM     13  C   UNL     1       6.804   3.917  -4.570  0.00  0.00    +0.067 A 
ATOM     14  C   UNL     1       7.122   5.268  -4.518  0.00  0.00    +0.028 A 
ATOM     15  C   UNL     1       7.354   5.967  -5.686  0.00  0.00    +0.002 A 
ATOM     16  C   UNL     1       7.259   5.325  -6.908  0.00  0.00    +0.000 A 
ATOM     17  C   UNL     1       6.938   3.981  -6.963  0.00  0.00    +0.002 A 
ATOM     18  C   UNL     1       6.710   3.275  -5.798  0.00  0.00    +0.028 A 
ENDBRANCH  10  13
ENDBRANCH   1   7
BRANCH   2  19
ATOM     19  C   UNL     1       2.596   0.277  -0.349  0.00  0.00    +0.259 C 
ATOM     20  C   UNL     1       3.002   0.012   1.102  0.00  0.00    +0.062 C 
BRANCH  19  21
ATOM     21  O   UNL     1       1.243   0.802  -0.386  0.00  0.00    -0.448 OA
BRANCH  21  22
ATOM     22  C   UNL     1       0.241  -0.096  -0.485  0.00  0.00    +0.348 C 
ATOM     23  O   UNL     1       0.492  -1.284  -0.539  0.00  0.00    -0.244 OA
BRANCH  22  24
ATOM     24  C   UNL     1      -1.150   0.362  -0.533  0.00  0.00    +0.116 A 
ATOM     25  C   UNL     1      -2.286  -0.383  -0.636  0.00  0.00    +0.070 A 
ATOM     26  C   UNL     1      -3.540   0.252  -0.667  0.00  0.00    +0.010 A 
ATOM     27  C   UNL     1      -4.824  -0.345  -0.769  0.00  0.00    +0.014 A 
ATOM     28  C   UNL     1      -5.947   0.415  -0.785  0.00  0.00    +0.048 A 
ATOM     29  C   UNL     1      -5.888   1.806  -0.703  0.00  0.00    +0.139 A 
ATOM     30  C   UNL     1      -4.653   2.430  -0.602  0.00  0.00    +0.097 A 
ATOM     31  C   UNL     1      -3.507   1.665  -0.585  0.00  0.00    +0.043 A 
ATOM     32  S   UNL     1      -1.774   2.032  -0.463  0.00  0.00    -0.079 S 
ATOM     33 CL   UNL     1      -4.553   4.160  -0.498  0.00  0.00    -0.079 Cl
ATOM     34 CL   UNL     1      -2.185  -2.114  -0.729  0.00  0.00    -0.082 Cl
BRANCH  29  35
ATOM     35  O   UNL     1      -7.029   2.544  -0.720  0.00  0.00    -0.494 OA
ATOM     36  C   UNL     1      -8.261   1.829  -0.825  0.00  0.00    +0.277 C 
ENDBRANCH  29  35
ENDBRANCH  22  24
ENDBRANCH  21  22
ENDBRANCH  19  21
ENDBRANCH   2  19
TORSDOF 7
