REMARK  Name = ZINC36610290
REMARK  13 active torsions:
REMARK  status: ('A' for Active; 'I' for Inactive)
REMARK    1  A    between atoms: C_1  and  C_2
REMARK    2  A    between atoms: C_2  and  C_3
REMARK    3  A    between atoms: C_2  and  C_4
REMARK    4  A    between atoms: C_2  and  N_5
REMARK    5  A    between atoms: C_6  and  C_8
REMARK    6  A    between atoms: C_8  and  C_10
REMARK    7  A    between atoms: C_8  and  N_23
REMARK    8  A    between atoms: C_10  and  C_11
REMARK    9  A    between atoms: C_10  and  C_17
REMARK   10  A    between atoms: N_23  and  C_24
REMARK   11  A    between atoms: C_30  and  C_32
REMARK   12  A    between atoms: C_36  and  O_39
REMARK   13  A    between atoms: C_37  and  O_38
REMARK                            x       y       z     vdW  Elec       q    Type
REMARK                         _______ _______ _______ _____ _____    ______ ____
ROOT
ATOM      1  C   UNL     1       2.434  -1.354  -1.992  0.00  0.00    +0.179 C 
ENDROOT
BRANCH   1   3
ATOM      2  N   UNL     1       0.921  -1.604  -0.051  0.00  0.00    -0.309 N 
ATOM      3  C   UNL     1       2.179  -1.455  -0.510  0.00  0.00    +0.235 C 
ATOM      4  O   UNL     1       3.107  -1.403   0.270  0.00  0.00    -0.274 OA
ATOM      5  H   UNL     1       0.189  -1.729  -0.676  0.00  0.00    +0.149 HD
BRANCH   2   7
ATOM      6  C   UNL     1       1.094  -0.227   1.962  0.00  0.00    +0.031 C 
ATOM      7  C   UNL     1       0.658  -1.577   1.389  0.00  0.00    +0.026 C 
ATOM      8  C   UNL     1       1.444  -2.698   2.072  0.00  0.00    +0.031 C 
ATOM      9  C   UNL     1      -0.838  -1.778   1.639  0.00  0.00    +0.031 C 
ENDBRANCH   2   7
ENDBRANCH   1   3
BRANCH   1  10
ATOM     10  N   UNL     1       3.877  -1.402  -2.244  0.00  0.00    -0.255 N 
ATOM     11  C   UNL     1       4.379  -2.300  -3.114  0.00  0.00    +0.255 C 
ATOM     12  O   UNL     1       3.629  -2.996  -3.771  0.00  0.00    -0.269 OA
BRANCH  10  13
ATOM     13  C   UNL     1       4.732  -0.517  -1.580  0.00  0.00    +0.037 A 
ATOM     14  C   UNL     1       4.532   0.853  -1.684  0.00  0.00    +0.023 A 
ATOM     15  C   UNL     1       5.379   1.725  -1.028  0.00  0.00    +0.002 A 
ATOM     16  C   UNL     1       6.426   1.235  -0.268  0.00  0.00    +0.000 A 
ATOM     17  C   UNL     1       6.628  -0.129  -0.164  0.00  0.00    +0.002 A 
ATOM     18  C   UNL     1       5.781  -1.006  -0.812  0.00  0.00    +0.023 A 
ENDBRANCH  10  13
BRANCH  11  19
ATOM     19  C   UNL     1       5.839  -2.438  -3.271  0.00  0.00    +0.082 A 
ATOM     20  C   UNL     1       6.668  -1.318  -3.155  0.00  0.00    +0.017 A 
ATOM     21  C   UNL     1       8.031  -1.451  -3.303  0.00  0.00    +0.005 A 
ATOM     22  C   UNL     1       8.589  -2.692  -3.565  0.00  0.00    +0.049 A 
ATOM     23  C   UNL     1       7.782  -3.811  -3.682  0.00  0.00    +0.159 A 
ATOM     24  C   UNL     1       6.404  -3.693  -3.530  0.00  0.00    +0.171 A 
BRANCH  24  25
ATOM     25  O   UNL     1       5.609  -4.789  -3.639  0.00  0.00    -0.503 OA
ATOM     26  H   UNL     1       5.300  -4.963  -4.538  0.00  0.00    +0.292 HD
ENDBRANCH  24  25
BRANCH  23  27
ATOM     27  O   UNL     1       8.337  -5.025  -3.940  0.00  0.00    -0.503 OA
ATOM     28  H   UNL     1       8.577  -5.524  -3.148  0.00  0.00    +0.292 HD
ENDBRANCH  23  27
ENDBRANCH  11  19
ENDBRANCH   1  10
BRANCH   1  29
ATOM     29  C   UNL     1       1.869  -0.033  -2.517  0.00  0.00    +0.079 C 
BRANCH  29  30
ATOM     30  C   UNL     1       2.249   0.135  -3.966  0.00  0.00    -0.038 A 
ATOM     31  C   UNL     1       1.983  -0.875  -4.872  0.00  0.00    +0.004 A 
ATOM     32  C   UNL     1       2.331  -0.721  -6.201  0.00  0.00    +0.000 A 
ATOM     33  C   UNL     1       2.945   0.444  -6.624  0.00  0.00    +0.000 A 
ATOM     34  C   UNL     1       3.210   1.454  -5.718  0.00  0.00    +0.000 A 
ATOM     35  C   UNL     1       2.858   1.301  -4.390  0.00  0.00    +0.004 A 
ENDBRANCH  29  30
BRANCH  29  36
ATOM     36  C   UNL     1       0.368  -0.043  -2.389  0.00  0.00    -0.038 A 
ATOM     37  C   UNL     1      -0.363  -1.095  -2.908  0.00  0.00    +0.004 A 
ATOM     38  C   UNL     1      -1.741  -1.104  -2.791  0.00  0.00    +0.000 A 
ATOM     39  C   UNL     1      -2.387  -0.061  -2.155  0.00  0.00    +0.000 A 
ATOM     40  C   UNL     1      -1.656   0.991  -1.635  0.00  0.00    +0.000 A 
ATOM     41  C   UNL     1      -0.278   0.998  -1.748  0.00  0.00    +0.004 A 
ENDBRANCH  29  36
ENDBRANCH   1  29
TORSDOF 10
