REMARK  Name = ZINC14199643
REMARK  9 active torsions:
REMARK  status: ('A' for Active; 'I' for Inactive)
REMARK    1  A    between atoms: C_1  and  C_2
REMARK    2  A    between atoms: C_2  and  C_4
REMARK    3  A    between atoms: C_2  and  O_14
REMARK    4  A    between atoms: N_6  and  C_7
REMARK    5  A    between atoms: C_8  and  C_12
REMARK    6  A    between atoms: O_14  and  C_15
REMARK    7  A    between atoms: C_15  and  C_17
REMARK    8  A    between atoms: C_19  and  S_24
REMARK    9  A    between atoms: S_24  and  N_27
REMARK                            x       y       z     vdW  Elec       q    Type
REMARK                         _______ _______ _______ _____ _____    ______ ____
ROOT
ATOM      1  C   UNL     1       2.418   3.941   0.000  0.00  0.00    +0.341 C 
ATOM      2  O   UNL     1       3.481   3.353  -0.012  0.00  0.00    -0.245 OA
ENDROOT
BRANCH   1   3
ATOM      3  C   UNL     1       1.153   3.179   0.008  0.00  0.00    +0.079 A 
ATOM      4  C   UNL     1      -0.071   3.851   0.022  0.00  0.00    +0.045 A 
ATOM      5  C   UNL     1      -1.248   3.133   0.030  0.00  0.00    +0.106 A 
ATOM      6  C   UNL     1      -1.220   1.749   0.017  0.00  0.00    +0.030 A 
ATOM      7  C   UNL     1      -0.013   1.076   0.008  0.00  0.00    +0.023 A 
ATOM      8  C   UNL     1       1.175   1.781   0.000  0.00  0.00    +0.055 A 
ATOM      9 CL   UNL     1       2.691   0.935  -0.018  0.00  0.00    -0.083 Cl
BRANCH   5  10
ATOM     10  S   UNL     1      -2.793   3.980   0.049  0.00  0.00    +0.056 S 
ATOM     11  O   UNL     1      -3.743   3.081   0.604  0.00  0.00    -0.153 OA
ATOM     12  O   UNL     1      -2.546   5.265   0.604  0.00  0.00    -0.153 OA
BRANCH  10  13
ATOM     13  N   UNL     1      -3.237   4.224  -1.528  0.00  0.00    -0.204 NA
ATOM     14  H   UNL     1      -2.666   3.910  -2.247  0.00  0.00    +0.144 HD
ATOM     15  H   UNL     1      -4.069   4.679  -1.733  0.00  0.00    +0.144 HD
ENDBRANCH  10  13
ENDBRANCH   5  10
ENDBRANCH   1   3
BRANCH   1  16
ATOM     16  O   UNL     1       2.393   5.287   0.007  0.00  0.00    -0.449 OA
BRANCH  16  18
ATOM     17  C   UNL     1       4.111   6.218  -1.446  0.00  0.00    +0.062 C 
ATOM     18  C   UNL     1       3.674   5.971  -0.001  0.00  0.00    +0.259 C 
BRANCH  18  19
ATOM     19  C   UNL     1       3.545   7.289   0.717  0.00  0.00    +0.258 C 
ATOM     20  O   UNL     1       2.478   7.620   1.190  0.00  0.00    -0.271 OA
ATOM     21  N   UNL     1       4.615   8.100   0.835  0.00  0.00    -0.276 N 
ATOM     22  H   UNL     1       5.468   7.835   0.457  0.00  0.00    +0.155 HD
BRANCH  21  23
ATOM     23  C   UNL     1       4.496   9.314   1.497  0.00  0.00    +0.089 A 
ATOM     24  C   UNL     1       5.475  10.273   1.723  0.00  0.00    +0.080 A 
ATOM     25  C   UNL     1       5.072  11.457   2.443  0.00  0.00    +0.028 A 
ATOM     26  C   UNL     1       3.788  11.525   2.841  0.00  0.00    +0.048 A 
ATOM     27  S   UNL     1       3.093   9.998   2.246  0.00  0.00    -0.081 S 
BRANCH  24  28
ATOM     28  C   UNL     1       6.819  10.097   1.260  0.00  0.00    +0.102 C 
ATOM     29  N   UNL     1       7.885   9.958   0.893  0.00  0.00    -0.191 NA
ENDBRANCH  24  28
ENDBRANCH  21  23
ENDBRANCH  18  19
ENDBRANCH  16  18
ENDBRANCH   1  16
TORSDOF 8
