REMARK  Name = ZINC48290755
REMARK  6 active torsions:
REMARK  status: ('A' for Active; 'I' for Inactive)
REMARK    1  A    between atoms: C_1  and  C_2
REMARK    2  A    between atoms: C_4  and  C_16
REMARK    3  A    between atoms: C_6  and  C_11
REMARK    4  A    between atoms: N_18  and  C_19
REMARK    5  A    between atoms: C_19  and  C_20
REMARK    6  A    between atoms: N_22  and  C_23
REMARK                            x       y       z     vdW  Elec       q    Type
REMARK                         _______ _______ _______ _____ _____    ______ ____
ROOT
ATOM      1  C   UNL     1      -0.264   0.716  -3.212  0.00  0.00    +0.245 C 
ATOM      2  O   UNL     1      -0.114   1.671  -2.475  0.00  0.00    -0.270 OA
ATOM      3  N   UNL     1      -0.487   0.908  -4.527  0.00  0.00    -0.303 N 
ATOM      4  H   UNL     1      -0.607   0.146  -5.115  0.00  0.00    +0.150 HD
ENDROOT
BRANCH   1   8
ATOM      5  C   UNL     1      -1.640   1.321  -0.395  0.00  0.00    +0.070 C 
ATOM      6  C   UNL     1      -1.341  -0.155  -0.334  0.00  0.00    +0.091 A 
ATOM      7  C   UNL     1      -0.702  -0.952  -1.379  0.00  0.00    +0.076 A 
ATOM      8  C   UNL     1      -0.200  -0.657  -2.665  0.00  0.00    +0.053 A 
ATOM      9  C   UNL     1       0.355  -1.697  -3.401  0.00  0.00    +0.042 A 
ATOM     10  C   UNL     1       0.394  -2.982  -2.845  0.00  0.00    +0.082 A 
ATOM     11  N   UNL     1      -0.087  -3.223  -1.633  0.00  0.00    -0.209 NA
ATOM     12  C   UNL     1      -0.626  -2.268  -0.891  0.00  0.00    +0.260 A 
ATOM     13  O   UNL     1      -1.172  -2.261   0.342  0.00  0.00    -0.334 OA
ATOM     14  N   UNL     1      -1.597  -0.951   0.660  0.00  0.00    -0.080 NA
BRANCH  10  15
ATOM     15  C   UNL     1       0.982  -4.089  -3.622  0.00  0.00    +0.038 A 
ATOM     16  C   UNL     1       1.117  -5.410  -3.279  0.00  0.00    +0.017 A 
ATOM     17  C   UNL     1       1.705  -6.269  -4.178  0.00  0.00    +0.008 A 
ATOM     18  C   UNL     1       2.133  -5.786  -5.374  0.00  0.00    +0.046 A 
ATOM     19  S   UNL     1       1.696  -4.059  -5.258  0.00  0.00    -0.095 S 
ENDBRANCH  10  15
ENDBRANCH   1   8
BRANCH   3  20
ATOM     20  C   UNL     1      -0.550   2.268  -5.069  0.00  0.00    +0.200 C 
BRANCH  20  21
ATOM     21  C   UNL     1      -0.809   2.206  -6.552  0.00  0.00    +0.230 C 
ATOM     22  O   UNL     1      -0.929   1.132  -7.102  0.00  0.00    -0.274 OA
ATOM     23  N   UNL     1      -0.906   3.345  -7.267  0.00  0.00    -0.310 N 
ATOM     24  H   UNL     1      -0.811   4.204  -6.826  0.00  0.00    +0.149 HD
BRANCH  23  25
ATOM     25  C   UNL     1      -1.158   3.285  -8.709  0.00  0.00    +0.095 C 
ATOM     26  C   UNL     1       0.174   3.139  -9.463  0.00  0.00    +0.046 C 
ATOM     27  C   UNL     1      -0.043   3.396 -10.973  0.00  0.00    +0.168 C 
ATOM     28  S   UNL     1      -1.484   4.540 -10.985  0.00  0.00    -0.029 S 
ATOM     29  O   UNL     1      -1.052   5.823 -11.416  0.00  0.00    -0.174 OA
ATOM     30  O   UNL     1      -2.570   3.908 -11.649  0.00  0.00    -0.174 OA
ATOM     31  C   UNL     1      -1.838   4.603  -9.178  0.00  0.00    +0.188 C 
ENDBRANCH  23  25
ENDBRANCH  20  21
ENDBRANCH   3  20
TORSDOF 5
