REMARK  Name = ZINC07496820
REMARK  7 active torsions:
REMARK  status: ('A' for Active; 'I' for Inactive)
REMARK    1  A    between atoms: C_1  and  C_2
REMARK    2  A    between atoms: N_10  and  N_14
REMARK    3  A    between atoms: C_15  and  C_17
REMARK    4  A    between atoms: C_17  and  N_58
REMARK    5  A    between atoms: C_18  and  C_19
REMARK    6  A    between atoms: C_18  and  C_25
REMARK    7  A    between atoms: C_18  and  N_58
REMARK                            x       y       z     vdW  Elec       q    Type
REMARK                         _______ _______ _______ _____ _____    ______ ____
ROOT
ATOM      1  N   UNL     1      -1.936   8.859  -2.803  0.00  0.00    -0.225 N 
ATOM      2  C   UNL     1      -1.983   7.639  -2.233  0.00  0.00    +0.213 C 
ATOM      3  O   UNL     1      -2.929   6.909  -2.440  0.00  0.00    -0.276 OA
ATOM      4  H   UNL     1      -1.179   9.443  -2.637  0.00  0.00    +0.173 HD
ENDROOT
BRANCH   1  14
ATOM      5  C   UNL     1      -8.028  11.611  -7.081  0.00  0.00    +0.007 C 
ATOM      6  C   UNL     1      -7.126  11.481  -5.852  0.00  0.00    -0.014 C 
ATOM      7  C   UNL     1      -7.138  10.032  -5.362  0.00  0.00    +0.006 C 
ATOM      8  C   UNL     1      -6.245   9.906  -4.125  0.00  0.00    +0.035 C 
ATOM      9  C   UNL     1      -4.823  10.328  -4.476  0.00  0.00    +0.114 C 
ATOM     10  C   UNL     1      -4.798  11.764  -4.991  0.00  0.00    +0.035 C 
ATOM     11  C   UNL     1      -5.697  11.882  -6.224  0.00  0.00    +0.006 C 
ATOM     12  C   UNL     1      -3.919  10.184  -3.274  0.00  0.00    +0.263 C 
ATOM     13  O   UNL     1      -4.016  10.755  -2.209  0.00  0.00    -0.271 OA
ATOM     14  N   UNL     1      -2.980   9.285  -3.635  0.00  0.00    -0.137 N 
ATOM     15  C   UNL     1      -3.167   8.853  -4.888  0.00  0.00    +0.326 C 
ATOM     16  O   UNL     1      -2.447   8.043  -5.439  0.00  0.00    -0.251 OA
ATOM     17  N   UNL     1      -4.245   9.415  -5.469  0.00  0.00    -0.284 N 
ATOM     18  H   UNL     1      -4.571   9.251  -6.368  0.00  0.00    +0.151 HD
ENDBRANCH   1  14
BRANCH   2  19
ATOM     19  C   UNL     1      -0.860   7.181  -1.339  0.00  0.00    +0.018 C 
BRANCH  19  20
ATOM     20  N   UNL     1      -1.155   5.821  -0.849  0.00  0.00    +0.392 N 
ATOM     21  H   UNL     1      -1.245   5.185  -1.649  0.00  0.00    -0.084 HD
ATOM     22  H   UNL     1      -2.037   5.835  -0.323  0.00  0.00    -0.084 HD
BRANCH  20  23
ATOM     23  C   UNL     1      -0.070   5.347   0.031  0.00  0.00    -0.009 C 
BRANCH  23  24
ATOM     24  C   UNL     1      -0.050   3.840   0.023  0.00  0.00    -0.057 A 
ATOM     25  C   UNL     1       1.156   3.165   0.008  0.00  0.00    +0.002 A 
ATOM     26  C   UNL     1       1.175   1.783   0.000  0.00  0.00    +0.000 A 
ATOM     27  C   UNL     1      -0.013   1.076   0.008  0.00  0.00    +0.000 A 
ATOM     28  C   UNL     1      -1.219   1.751   0.017  0.00  0.00    +0.000 A 
ATOM     29  C   UNL     1      -1.238   3.133   0.030  0.00  0.00    +0.002 A 
ENDBRANCH  23  24
BRANCH  23  30
ATOM     30  C   UNL     1      -0.311   5.838   1.435  0.00  0.00    -0.057 A 
ATOM     31  C   UNL     1      -1.593   5.858   1.951  0.00  0.00    +0.002 A 
ATOM     32  C   UNL     1      -1.813   6.304   3.241  0.00  0.00    +0.000 A 
ATOM     33  C   UNL     1      -0.751   6.740   4.011  0.00  0.00    +0.000 A 
ATOM     34  C   UNL     1       0.530   6.726   3.494  0.00  0.00    +0.000 A 
ATOM     35  C   UNL     1       0.751   6.275   2.206  0.00  0.00    +0.002 A 
ENDBRANCH  23  30
ENDBRANCH  20  23
ENDBRANCH  19  20
ENDBRANCH   2  19
TORSDOF 6
