REMARK  Name = ZINC39773345
REMARK  9 active torsions:
REMARK  status: ('A' for Active; 'I' for Inactive)
REMARK    1  A    between atoms: C_1  and  C_2
REMARK    2  A    between atoms: C_2  and  C_3
REMARK    3  A    between atoms: C_2  and  C_4
REMARK    4  A    between atoms: C_2  and  C_5
REMARK    5  A    between atoms: C_8  and  C_11
REMARK    6  A    between atoms: C_15  and  S_19
REMARK    7  A    between atoms: N_17  and  C_18
REMARK    8  A    between atoms: S_19  and  C_20
REMARK    9  A    between atoms: C_20  and  C_21
REMARK                            x       y       z     vdW  Elec       q    Type
REMARK                         _______ _______ _______ _____ _____    ______ ____
ROOT
ATOM      1  C   UNL     1       2.746  -1.743  -4.617  0.00  0.00    +0.049 C 
ATOM      2  N   UNL     1       1.806  -2.019  -5.727  0.00  0.00    -0.267 NA
ATOM      3  N   UNL     1       2.563  -1.680  -6.942  0.00  0.00    -0.262 NA
ATOM      4  C   UNL     1       3.340  -0.482  -6.531  0.00  0.00    +0.077 C 
ATOM      5  N   UNL     1       3.726  -0.762  -5.128  0.00  0.00    +0.409 N 
ATOM      6  C   UNL     1       5.080  -1.329  -5.080  0.00  0.00    -0.090 C 
ATOM      7  H   UNL     1       1.528  -2.989  -5.733  0.00  0.00    +0.139 HD
ATOM      8  H   UNL     1       1.941  -1.464  -7.707  0.00  0.00    +0.140 HD
ATOM      9  H   UNL     1       3.685   0.085  -4.581  0.00  0.00    -0.076 HD
ENDROOT
BRANCH   1  13
ATOM     10  C   UNL     1       0.637  -0.107  -1.282  0.00  0.00    -0.042 A 
ATOM     11  C   UNL     1       0.013  -1.017  -2.115  0.00  0.00    +0.004 A 
ATOM     12  C   UNL     1       0.696  -1.546  -3.195  0.00  0.00    +0.003 A 
ATOM     13  C   UNL     1       2.002  -1.165  -3.441  0.00  0.00    -0.046 A 
ATOM     14  C   UNL     1       2.625  -0.255  -2.608  0.00  0.00    +0.003 A 
ATOM     15  C   UNL     1       1.941   0.277  -1.531  0.00  0.00    +0.004 A 
BRANCH  10  17
ATOM     16  C   UNL     1      -0.192   1.990  -0.251  0.00  0.00    +0.015 C 
ATOM     17  C   UNL     1      -0.107   0.469  -0.105  0.00  0.00    -0.013 C 
ATOM     18  C   UNL     1       0.634   0.122   1.187  0.00  0.00    +0.015 C 
ATOM     19  C   UNL     1      -1.519  -0.118  -0.057  0.00  0.00    +0.015 C 
ENDBRANCH  10  17
ENDBRANCH   1  13
BRANCH   4  20
ATOM     20  S   UNL     1       4.814  -0.293  -7.572  0.00  0.00    -0.152 S 
BRANCH  20  21
ATOM     21  C   UNL     1       4.164   0.341  -9.142  0.00  0.00    +0.143 C 
BRANCH  21  22
ATOM     22  C   UNL     1       5.281   0.430 -10.149  0.00  0.00    +0.120 A 
ATOM     23  N   UNL     1       4.992   0.892 -11.394  0.00  0.00    -0.310 N 
ATOM     24  H   UNL     1       4.083   1.153 -11.611  0.00  0.00    +0.170 HD
ATOM     25  C   UNL     1       5.961   0.992 -12.334  0.00  0.00    +0.259 A 
ATOM     26  O   UNL     1       5.716   1.404 -13.453  0.00  0.00    -0.267 OA
ATOM     27  C   UNL     1       7.320   0.583 -11.951  0.00  0.00    +0.065 A 
ATOM     28  C   UNL     1       8.388   0.646 -12.845  0.00  0.00    +0.015 A 
ATOM     29  C   UNL     1       9.641   0.249 -12.433  0.00  0.00    +0.001 A 
ATOM     30  C   UNL     1       9.847  -0.212 -11.139  0.00  0.00    +0.002 A 
ATOM     31  C   UNL     1       8.806  -0.282 -10.242  0.00  0.00    +0.028 A 
ATOM     32  C   UNL     1       7.526   0.115 -10.635  0.00  0.00    +0.078 A 
ATOM     33  N   UNL     1       6.472   0.067  -9.781  0.00  0.00    -0.233 NA
ENDBRANCH  21  22
ENDBRANCH  20  21
ENDBRANCH   4  20
TORSDOF 5
