REMARK  Name = ZINC20236777
REMARK  8 active torsions:
REMARK  status: ('A' for Active; 'I' for Inactive)
REMARK    1  A    between atoms: C_1  and  C_2
REMARK    2  A    between atoms: C_6  and  O_8
REMARK    3  A    between atoms: O_8  and  C_9
REMARK    4  A    between atoms: C_9  and  C_10
REMARK    5  A    between atoms: C_10  and  O_11
REMARK    6  A    between atoms: O_11  and  C_12
REMARK    7  A    between atoms: C_15  and  C_19
REMARK    8  A    between atoms: C_29  and  C_31
REMARK                            x       y       z     vdW  Elec       q    Type
REMARK                         _______ _______ _______ _____ _____    ______ ____
ROOT
ATOM      1  C   UNL     1      -0.587  -4.528   5.939  0.00  0.00    +0.135 A 
ATOM      2  C   UNL     1       0.346  -5.235   6.691  0.00  0.00    +0.047 A 
ATOM      3  C   UNL     1      -0.022  -5.826   7.865  0.00  0.00    +0.011 A 
ATOM      4  C   UNL     1      -1.345  -5.722   8.319  0.00  0.00    -0.023 A 
ATOM      5  C   UNL     1      -2.286  -5.010   7.561  0.00  0.00    +0.027 A 
ATOM      6  C   UNL     1      -1.901  -4.413   6.381  0.00  0.00    +0.060 A 
ATOM      7 BR   UNL     1      -3.162  -3.444   5.357  0.00  0.00    -0.047 Br
ENDROOT
BRANCH   4   8
ATOM      8  C   UNL     1      -1.743  -6.356   9.578  0.00  0.00    +0.024 C 
ATOM      9  C   UNL     1      -1.210  -7.575   9.933  0.00  0.00    +0.084 C 
ATOM     10  C   UNL     1      -1.438  -8.180  11.281  0.00  0.00    +0.176 C 
ATOM     11  N   UNL     1      -2.523  -7.990  11.985  0.00  0.00    -0.280 NA
ATOM     12  N   UNL     1      -0.375  -8.964  11.706  0.00  0.00    -0.142 N 
ATOM     13  C   UNL     1       0.509  -9.512  10.811  0.00  0.00    +0.168 C 
ATOM     14  N   UNL     1       0.500  -9.258   9.504  0.00  0.00    -0.156 NA
ATOM     15  C   UNL     1      -0.379  -8.375   9.000  0.00  0.00    +0.273 C 
ATOM     16  O   UNL     1      -0.489  -8.229   7.793  0.00  0.00    -0.268 OA
ATOM     17  C   UNL     1       1.372 -10.330  11.554  0.00  0.00    +0.091 C 
ATOM     18  C   UNL     1       1.044 -10.221  12.860  0.00  0.00    +0.134 C 
ATOM     19  O   UNL     1       0.017  -9.366  12.991  0.00  0.00    -0.375 OA
ATOM     20  C   UNL     1       1.723 -10.947  13.993  0.00  0.00    +0.089 C 
ATOM     21  H   UNL     1      -3.235  -7.431  11.637  0.00  0.00    +0.188 HD
ENDBRANCH   4   8
BRANCH   1  22
ATOM     22  O   UNL     1      -0.212  -3.944   4.773  0.00  0.00    -0.487 OA
BRANCH  22  23
ATOM     23  C   UNL     1       1.152  -4.101   4.378  0.00  0.00    +0.270 C 
BRANCH  23  24
ATOM     24  C   UNL     1       1.385  -3.379   3.049  0.00  0.00    +0.270 C 
BRANCH  24  25
ATOM     25  O   UNL     1       1.203  -1.973   3.232  0.00  0.00    -0.489 OA
BRANCH  25  31
ATOM     26  C   UNL     1       1.213   2.487   1.252  0.00  0.00    +0.044 C 
ATOM     27  C   UNL     1       1.388   0.995   1.137  0.00  0.00    -0.047 A 
ATOM     28  C   UNL     1       1.722   0.430  -0.080  0.00  0.00    +0.003 A 
ATOM     29  C   UNL     1       1.883  -0.939  -0.189  0.00  0.00    +0.004 A 
ATOM     30  C   UNL     1       1.709  -1.746   0.919  0.00  0.00    +0.045 A 
ATOM     31  C   UNL     1       1.374  -1.181   2.141  0.00  0.00    +0.121 A 
ATOM     32  C   UNL     1       1.219   0.193   2.249  0.00  0.00    +0.049 A 
ENDBRANCH  25  31
ENDBRANCH  24  25
ENDBRANCH  23  24
ENDBRANCH  22  23
ENDBRANCH   1  22
TORSDOF 6
