REMARK  Name = ZINC46773315
REMARK  12 active torsions:
REMARK  status: ('A' for Active; 'I' for Inactive)
REMARK    1  A    between atoms: C_1  and  C_2
REMARK    2  A    between atoms: C_2  and  C_3
REMARK    3  A    between atoms: C_2  and  C_4
REMARK    4  A    between atoms: C_2  and  C_5
REMARK    5  A    between atoms: C_8  and  C_11
REMARK    6  A    between atoms: N_13  and  C_14
REMARK    7  A    between atoms: C_14  and  C_15
REMARK    8  A    between atoms: C_15  and  C_16
REMARK    9  A    between atoms: N_18  and  N_19
REMARK   10  A    between atoms: N_19  and  C_20
REMARK   11  A    between atoms: C_20  and  N_22
REMARK   12  A    between atoms: N_22  and  C_23
REMARK                            x       y       z     vdW  Elec       q    Type
REMARK                         _______ _______ _______ _____ _____    ______ ____
ROOT
ATOM      1  C   UNL     1       6.794  -1.879  -7.387  0.00  0.00    +0.231 C 
ATOM      2  O   UNL     1       6.257  -2.745  -8.044  0.00  0.00    -0.274 OA
ATOM      3  N   UNL     1       8.084  -1.562  -7.616  0.00  0.00    -0.235 N 
ATOM      4  H   UNL     1       8.514  -0.869  -7.091  0.00  0.00    +0.173 HD
ENDROOT
BRANCH   3   5
ATOM      5  N   UNL     1       8.804  -2.233  -8.613  0.00  0.00    -0.246 N 
ATOM      6  H   UNL     1       8.374  -2.926  -9.139  0.00  0.00    +0.172 HD
BRANCH   5   7
ATOM      7  C   UNL     1      10.094  -1.916  -8.842  0.00  0.00    +0.151 C 
ATOM      8  S   UNL     1      10.973  -2.737 -10.061  0.00  0.00    -0.017 S 
BRANCH   7   9
ATOM      9  N   UNL     1      10.691  -0.954  -8.112  0.00  0.00    -0.295 N 
ATOM     10  H   UNL     1      10.177  -0.446  -7.466  0.00  0.00    +0.154 HD
BRANCH   9  11
ATOM     11  C   UNL     1      12.054  -0.687  -8.287  0.00  0.00    +0.051 A 
ATOM     12  C   UNL     1      12.576  -0.541  -9.566  0.00  0.00    +0.026 A 
ATOM     13  C   UNL     1      13.921  -0.277  -9.736  0.00  0.00    +0.022 A 
ATOM     14  C   UNL     1      14.749  -0.159  -8.633  0.00  0.00    +0.042 A 
ATOM     15  C   UNL     1      14.233  -0.304  -7.358  0.00  0.00    +0.041 A 
ATOM     16  C   UNL     1      12.887  -0.562  -7.182  0.00  0.00    +0.063 A 
ATOM     17 CL   UNL     1      12.238  -0.737  -5.581  0.00  0.00    -0.082 Cl
ATOM     18 CL   UNL     1      16.439   0.173  -8.851  0.00  0.00    -0.083 Cl
ENDBRANCH   9  11
ENDBRANCH   7   9
ENDBRANCH   5   7
ENDBRANCH   3   5
BRANCH   1  19
ATOM     19  C   UNL     1       6.020  -1.157  -6.314  0.00  0.00    +0.116 C 
BRANCH  19  20
ATOM     20  C   UNL     1       4.592  -1.703  -6.261  0.00  0.00    +0.114 C 
BRANCH  20  23
ATOM     21  C   UNL     1       2.550  -1.318  -4.989  0.00  0.00    +0.244 C 
ATOM     22  O   UNL     1       2.011  -2.186  -5.648  0.00  0.00    -0.270 OA
ATOM     23  N   UNL     1       3.839  -1.001  -5.218  0.00  0.00    -0.311 N 
ATOM     24  H   UNL     1       4.269  -0.308  -4.693  0.00  0.00    +0.149 HD
BRANCH  21  28
ATOM     25  C   UNL     1       0.368   0.717  -1.965  0.00  0.00    -0.042 A 
ATOM     26  C   UNL     1      -0.249  -0.271  -2.713  0.00  0.00    +0.005 A 
ATOM     27  C   UNL     1       0.454  -0.935  -3.697  0.00  0.00    +0.013 A 
ATOM     28  C   UNL     1       1.790  -0.609  -3.937  0.00  0.00    +0.037 A 
ATOM     29  C   UNL     1       2.406   0.388  -3.179  0.00  0.00    +0.013 A 
ATOM     30  C   UNL     1       1.690   1.048  -2.202  0.00  0.00    +0.005 A 
BRANCH  25  32
ATOM     31  C   UNL     1      -0.450   2.934  -1.213  0.00  0.00    +0.015 C 
ATOM     32  C   UNL     1      -0.406   1.438  -0.892  0.00  0.00    -0.013 C 
ATOM     33  C   UNL     1       0.278   1.227   0.460  0.00  0.00    +0.015 C 
ATOM     34  C   UNL     1      -1.833   0.888  -0.835  0.00  0.00    +0.015 C 
ENDBRANCH  25  32
ENDBRANCH  21  28
ENDBRANCH  20  23
ENDBRANCH  19  20
ENDBRANCH   1  19
TORSDOF 9
