REMARK  Name = ZINC39920387
REMARK  6 active torsions:
REMARK  status: ('A' for Active; 'I' for Inactive)
REMARK    1  A    between atoms: C_1  and  C_2
REMARK    2  A    between atoms: C_2  and  C_3
REMARK    3  A    between atoms: N_14  and  N_15
REMARK    4  A    between atoms: C_16  and  C_18
REMARK    5  A    between atoms: C_18  and  O_19
REMARK    6  A    between atoms: O_19  and  C_20
REMARK                            x       y       z     vdW  Elec       q    Type
REMARK                         _______ _______ _______ _____ _____    ______ ____
ROOT
ATOM      1  C   UNL     1       0.718  -0.497  -1.257  0.00  0.00    +0.180 C 
ATOM      2  N   UNL     1       2.125  -0.082  -1.210  0.00  0.00    -0.324 N 
ATOM      3  C   UNL     1       2.994  -0.772  -0.372  0.00  0.00    +0.041 A 
ATOM      4  C   UNL     1       4.095  -0.162   0.205  0.00  0.00    +0.025 A 
ATOM      5  C   UNL     1       4.925  -0.892   1.034  0.00  0.00    +0.017 A 
ATOM      6  C   UNL     1       4.664  -2.230   1.293  0.00  0.00    +0.019 A 
ATOM      7  C   UNL     1       3.571  -2.853   0.724  0.00  0.00    +0.030 A 
ATOM      8  C   UNL     1       2.728  -2.129  -0.115  0.00  0.00    +0.060 A 
ATOM      9  C   UNL     1       1.552  -2.746  -0.755  0.00  0.00    +0.266 C 
ATOM     10  O   UNL     1       1.423  -3.955  -0.766  0.00  0.00    -0.268 OA
ATOM     11  N   UNL     1       0.625  -1.956  -1.327  0.00  0.00    -0.196 N 
ATOM     12 BR   UNL     1       5.814  -3.207   2.432  0.00  0.00    -0.050 Br
ATOM     13  H   UNL     1       2.442   0.658  -1.752  0.00  0.00    +0.148 HD
ENDROOT
BRANCH  11  14
ATOM     14  N   UNL     1      -0.452  -2.545  -2.002  0.00  0.00    -0.227 N 
ATOM     15  C   UNL     1      -0.265  -3.094  -3.218  0.00  0.00    +0.267 C 
ATOM     16  O   UNL     1       0.835  -3.079  -3.728  0.00  0.00    -0.271 OA
ATOM     17  H   UNL     1      -1.331  -2.557  -1.594  0.00  0.00    +0.173 HD
BRANCH  15  18
ATOM     18  C   UNL     1      -1.424  -3.728  -3.944  0.00  0.00    +0.326 C 
BRANCH  18  19
ATOM     19  O   UNL     1      -0.977  -4.235  -5.203  0.00  0.00    -0.483 OA
BRANCH  19  20
ATOM     20  C   UNL     1      -1.905  -4.842  -5.989  0.00  0.00    +0.121 A 
ATOM     21  C   UNL     1      -3.220  -4.942  -5.559  0.00  0.00    +0.047 A 
ATOM     22  C   UNL     1      -4.162  -5.560  -6.358  0.00  0.00    +0.019 A 
ATOM     23  C   UNL     1      -3.795  -6.078  -7.587  0.00  0.00    +0.018 A 
ATOM     24  C   UNL     1      -2.484  -5.980  -8.018  0.00  0.00    +0.019 A 
ATOM     25  C   UNL     1      -1.540  -5.358  -7.224  0.00  0.00    +0.047 A 
ATOM     26 BR   UNL     1      -5.087  -6.923  -8.680  0.00  0.00    -0.050 Br
ENDBRANCH  19  20
ENDBRANCH  18  19
ENDBRANCH  15  18
ENDBRANCH  11  14
BRANCH   1  28
ATOM     27  C   UNL     1      -0.019   1.526   0.010  0.00  0.00    +0.007 C 
ATOM     28  C   UNL     1       0.002  -0.004   0.002  0.00  0.00    +0.040 C 
ENDBRANCH   1  28
TORSDOF 5
