REMARK  Name = ZINC11718106
REMARK  7 active torsions:
REMARK  status: ('A' for Active; 'I' for Inactive)
REMARK    1  A    between atoms: C_1  and  C_2
REMARK    2  A    between atoms: C_2  and  C_4
REMARK    3  A    between atoms: C_2  and  N_49
REMARK    4  A    between atoms: N_6  and  C_7
REMARK    5  A    between atoms: C_17  and  N_20
REMARK    6  A    between atoms: N_20  and  S_21
REMARK    7  A    between atoms: S_21  and  C_24
REMARK                            x       y       z     vdW  Elec       q    Type
REMARK                         _______ _______ _______ _____ _____    ______ ____
ROOT
ATOM      1  C   UNL     1      -2.718  -2.897   1.222  0.00  0.00    -0.076 C 
ATOM      2  C   UNL     1      -2.298  -4.363   1.099  0.00  0.00    +0.002 C 
ATOM      3  C   UNL     1      -3.548  -5.248   1.096  0.00  0.00    +0.073 C 
ATOM      4  C   UNL     1      -4.462  -4.824  -0.057  0.00  0.00    +0.002 C 
ATOM      5  C   UNL     1      -4.819  -3.344   0.100  0.00  0.00    -0.076 C 
ATOM      6  N   UNL     1      -3.576  -2.545   0.070  0.00  0.00    +0.387 N 
ATOM      7  H   UNL     1      -3.068  -2.750  -0.798  0.00  0.00    -0.081 HD
ENDROOT
BRANCH   6   9
ATOM      8  C   UNL     1      -2.600  -0.300   0.159  0.00  0.00    -0.004 C 
ATOM      9  C   UNL     1      -3.901  -1.104   0.105  0.00  0.00    +0.016 C 
BRANCH   9  10
ATOM     10  C   UNL     1      -4.661  -0.746  -1.146  0.00  0.00    +0.203 C 
ATOM     11  O   UNL     1      -4.518  -1.408  -2.152  0.00  0.00    -0.277 OA
ATOM     12  N   UNL     1      -5.500   0.309  -1.146  0.00  0.00    -0.286 N 
ATOM     13  H   UNL     1      -5.559   0.882  -0.366  0.00  0.00    +0.155 HD
BRANCH  12  14
ATOM     14  C   UNL     1      -6.287   0.577  -2.273  0.00  0.00    +0.052 A 
ATOM     15  C   UNL     1      -6.522  -0.420  -3.211  0.00  0.00    +0.026 A 
ATOM     16  C   UNL     1      -7.303  -0.154  -4.318  0.00  0.00    +0.022 A 
ATOM     17  C   UNL     1      -7.848   1.105  -4.497  0.00  0.00    +0.042 A 
ATOM     18  C   UNL     1      -7.610   2.103  -3.568  0.00  0.00    +0.041 A 
ATOM     19  C   UNL     1      -6.829   1.843  -2.458  0.00  0.00    +0.064 A 
ATOM     20 CL   UNL     1      -6.531   3.095  -1.293  0.00  0.00    -0.082 Cl
ATOM     21 CL   UNL     1      -8.829   1.435  -5.891  0.00  0.00    -0.083 Cl
ENDBRANCH  12  14
ENDBRANCH   9  10
ENDBRANCH   6   9
BRANCH   3  22
ATOM     22  N   UNL     1      -3.155  -6.648   0.920  0.00  0.00    -0.187 NA
ATOM     23  H   UNL     1      -3.011  -7.003   0.028  0.00  0.00    +0.148 HD
BRANCH  22  24
ATOM     24  S   UNL     1      -2.959  -7.626   2.242  0.00  0.00    +0.065 S 
ATOM     25  O   UNL     1      -2.609  -8.912   1.748  0.00  0.00    -0.153 OA
ATOM     26  O   UNL     1      -2.138  -6.912   3.156  0.00  0.00    -0.153 OA
BRANCH  24  27
ATOM     27  C   UNL     1      -4.538  -7.793   3.006  0.00  0.00    +0.142 A 
ATOM     28  C   UNL     1      -5.502  -8.719   2.781  0.00  0.00    +0.036 A 
ATOM     29  C   UNL     1      -6.676  -8.655   3.507  0.00  0.00    +0.010 A 
ATOM     30  C   UNL     1      -6.828  -7.668   4.424  0.00  0.00    +0.047 A 
ATOM     31  S   UNL     1      -5.280  -6.790   4.283  0.00  0.00    -0.077 S 
ENDBRANCH  24  27
ENDBRANCH  22  24
ENDBRANCH   3  22
TORSDOF 6
