REMARK  Name = ZINC36028083
REMARK  8 active torsions:
REMARK  status: ('A' for Active; 'I' for Inactive)
REMARK    1  A    between atoms: C_1  and  C_2
REMARK    2  A    between atoms: C_2  and  C_3
REMARK    3  A    between atoms: C_3  and  C_5
REMARK    4  A    between atoms: C_3  and  C_6
REMARK    5  A    between atoms: N_10  and  C_29
REMARK    6  A    between atoms: N_15  and  S_18
REMARK    7  A    between atoms: S_18  and  C_21
REMARK    8  A    between atoms: C_29  and  C_30
REMARK                            x       y       z     vdW  Elec       q    Type
REMARK                         _______ _______ _______ _____ _____    ______ ____
ROOT
ATOM      1  C   UNL     1       1.784  -1.548  -1.389  0.00  0.00    +0.022 C 
ATOM      2  C   UNL     1       2.700  -2.022  -0.282  0.00  0.00    +0.201 C 
ATOM      3  O   UNL     1       2.952  -1.417   0.738  0.00  0.00    -0.277 OA
ATOM      4  N   UNL     1       3.191  -3.233  -0.622  0.00  0.00    -0.306 N 
ATOM      5  C   UNL     1       2.650  -3.632  -1.924  0.00  0.00    +0.006 C 
ATOM      6  N   UNL     1       2.120  -2.402  -2.554  0.00  0.00    +0.401 N 
ATOM      7  C   UNL     1       1.519  -4.642  -1.738  0.00  0.00    +0.023 C 
ATOM      8  C   UNL     1       2.067  -5.896  -1.050  0.00  0.00    +0.109 C 
ATOM      9  N   UNL     1       3.214  -6.396  -1.820  0.00  0.00    -0.177 NA
ATOM     10  C   UNL     1       4.321  -5.476  -2.116  0.00  0.00    +0.109 C 
ATOM     11  C   UNL     1       3.755  -4.225  -2.796  0.00  0.00    +0.023 C 
ATOM     12  H   UNL     1       1.294  -2.605  -3.097  0.00  0.00    -0.082 HD
ATOM     13  H   UNL     1       2.826  -1.963  -3.126  0.00  0.00    -0.082 HD
ENDROOT
BRANCH   9  14
ATOM     14  S   UNL     1       3.259  -7.966  -2.344  0.00  0.00    +0.062 S 
ATOM     15  O   UNL     1       4.627  -8.347  -2.367  0.00  0.00    -0.153 OA
ATOM     16  O   UNL     1       2.283  -8.673  -1.591  0.00  0.00    -0.153 OA
BRANCH  14  17
ATOM     17  C   UNL     1       2.706  -7.972  -4.017  0.00  0.00    +0.125 A 
ATOM     18  C   UNL     1       3.588  -8.283  -5.035  0.00  0.00    +0.030 A 
ATOM     19  C   UNL     1       3.155  -8.289  -6.348  0.00  0.00    +0.003 A 
ATOM     20  C   UNL     1       1.840  -7.983  -6.644  0.00  0.00    +0.021 A 
ATOM     21  C   UNL     1       0.956  -7.671  -5.627  0.00  0.00    +0.061 A 
ATOM     22  C   UNL     1       1.389  -7.672  -4.311  0.00  0.00    +0.086 A 
ATOM     23 CL   UNL     1       0.279  -7.289  -3.033  0.00  0.00    -0.080 Cl
ATOM     24 CL   UNL     1      -0.695  -7.287  -5.999  0.00  0.00    -0.082 Cl
ENDBRANCH  14  17
ENDBRANCH   9  14
BRANCH   1  25
ATOM     25  C   UNL     1       2.055  -0.077  -1.711  0.00  0.00    -0.020 C 
ATOM     26  C   UNL     1       1.170   0.360  -2.880  0.00  0.00    +0.006 C 
BRANCH  25  28
ATOM     27  C   UNL     1       2.126   2.234  -0.763  0.00  0.00    +0.004 C 
ATOM     28  C   UNL     1       1.738   0.780  -0.484  0.00  0.00    -0.001 C 
ENDBRANCH  25  28
ENDBRANCH   1  25
BRANCH   4  29
ATOM     29  C   UNL     1       4.121  -4.025   0.186  0.00  0.00    +0.180 C 
BRANCH  29  30
ATOM     30  C   UNL     1       5.535  -3.592  -0.105  0.00  0.00    +0.122 A 
ATOM     31  C   UNL     1       6.173  -2.555   0.467  0.00  0.00    +0.046 A 
ATOM     32  C   UNL     1       7.469  -2.511  -0.096  0.00  0.00    +0.041 A 
ATOM     33  C   UNL     1       7.545  -3.524  -0.978  0.00  0.00    +0.195 A 
ATOM     34  O   UNL     1       6.373  -4.178  -0.975  0.00  0.00    -0.466 OA
ENDBRANCH  29  30
ENDBRANCH   4  29
TORSDOF 6
