REMARK  Name = ZINC14608081
REMARK  6 active torsions:
REMARK  status: ('A' for Active; 'I' for Inactive)
REMARK    1  A    between atoms: C_1  and  C_2
REMARK    2  A    between atoms: C_2  and  C_3
REMARK    3  A    between atoms: C_13  and  C_15
REMARK    4  A    between atoms: C_23  and  C_25
REMARK    5  A    between atoms: C_25  and  S_26
REMARK    6  A    between atoms: S_26  and  C_27
REMARK                            x       y       z     vdW  Elec       q    Type
REMARK                         _______ _______ _______ _____ _____    ______ ____
ROOT
ATOM      1  C   UNL     1       9.717  -3.481   1.151  0.00  0.00    +0.034 C 
ATOM      2  N   UNL     1       9.746  -4.720   1.445  0.00  0.00    -0.253 NA
ATOM      3  C   UNL     1       9.224  -5.727   0.691  0.00  0.00    +0.089 A 
ATOM      4  C   UNL     1       9.982  -6.903   0.587  0.00  0.00    +0.030 A 
ATOM      5  C   UNL     1       9.526  -7.968  -0.155  0.00  0.00    +0.002 A 
ATOM      6  C   UNL     1       8.309  -7.889  -0.811  0.00  0.00    +0.002 A 
ATOM      7  C   UNL     1       7.549  -6.745  -0.724  0.00  0.00    +0.030 A 
ATOM      8  C   UNL     1       7.995  -5.647   0.028  0.00  0.00    +0.091 A 
ATOM      9  N   UNL     1       7.184  -4.555   0.064  0.00  0.00    -0.234 NA
ATOM     10  C   UNL     1       7.577  -3.334  -0.006  0.00  0.00    +0.115 C 
ATOM     11  C   UNL     1       9.039  -2.986  -0.106  0.00  0.00    +0.127 C 
ATOM     12  N   UNL     1       6.644  -2.324   0.006  0.00  0.00    -0.272 N 
ATOM     13  C   UNL     1       5.332  -2.620   0.090  0.00  0.00    +0.228 C 
ATOM     14  O   UNL     1       4.974  -3.777   0.155  0.00  0.00    -0.275 OA
ATOM     15  H   UNL     1       6.930  -1.399  -0.046  0.00  0.00    +0.156 HD
ENDROOT
BRANCH  11  16
ATOM     16  C   UNL     1       9.641  -3.659  -1.313  0.00  0.00    -0.032 A 
ATOM     17  C   UNL     1      10.970  -4.038  -1.301  0.00  0.00    +0.007 A 
ATOM     18  C   UNL     1      11.522  -4.661  -2.405  0.00  0.00    +0.038 A 
ATOM     19  C   UNL     1      10.746  -4.894  -3.527  0.00  0.00    +0.123 A 
ATOM     20  C   UNL     1       9.416  -4.509  -3.540  0.00  0.00    +0.038 A 
ATOM     21  C   UNL     1       8.865  -3.892  -2.433  0.00  0.00    +0.007 A 
ATOM     22  F   UNL     1      11.286  -5.497  -4.609  0.00  0.00    -0.205 F 
ENDBRANCH  11  16
BRANCH   1  24
ATOM     23  C   UNL     1      10.989  -3.228   3.264  0.00  0.00    +0.010 C 
ATOM     24  C   UNL     1      10.376  -2.488   2.074  0.00  0.00    +0.048 C 
ENDBRANCH   1  24
BRANCH  13  25
ATOM     25  C   UNL     1       4.309  -1.513   0.102  0.00  0.00    +0.172 C 
BRANCH  25  26
ATOM     26  S   UNL     1       2.646  -2.228   0.222  0.00  0.00    -0.088 S 
BRANCH  26  27
ATOM     27  C   UNL     1       1.578  -0.826   0.226  0.00  0.00    +0.160 A 
ATOM     28  N   UNL     1       1.882   0.456   0.159  0.00  0.00    -0.133 NA
ATOM     29  N   UNL     1       0.880   1.398   0.177  0.00  0.00    -0.125 NA
ATOM     30  C   UNL     1      -0.379   1.016   0.261  0.00  0.00    +0.180 A 
ATOM     31  S   UNL     1      -0.204  -0.761   0.322  0.00  0.00    -0.025 S 
ATOM     32  N   UNL     1      -1.534   1.788   0.290  0.00  0.00    -0.336 N 
ATOM     33  H   UNL     1      -2.403   1.361   0.350  0.00  0.00    +0.144 HD
ATOM     34  H   UNL     1      -1.472   2.756   0.249  0.00  0.00    +0.144 HD
ENDBRANCH  26  27
ENDBRANCH  25  26
ENDBRANCH  13  25
TORSDOF 5
