REMARK  Name = ZINC51119379
REMARK  8 active torsions:
REMARK  status: ('A' for Active; 'I' for Inactive)
REMARK    1  A    between atoms: C_1  and  C_2
REMARK    2  A    between atoms: C_4  and  C_8
REMARK    3  A    between atoms: C_5  and  C_7
REMARK    4  A    between atoms: C_8  and  C_10
REMARK    5  A    between atoms: C_8  and  N_11
REMARK    6  A    between atoms: C_12  and  C_14
REMARK    7  A    between atoms: C_18  and  N_20
REMARK    8  A    between atoms: N_20  and  N_21
REMARK                            x       y       z     vdW  Elec       q    Type
REMARK                         _______ _______ _______ _____ _____    ______ ____
ROOT
ATOM      1  N   UNL     1      -2.752  -3.099  -0.586  0.00  0.00    -0.303 N 
ATOM      2  C   UNL     1      -3.473  -4.086  -1.154  0.00  0.00    +0.264 C 
ATOM      3  O   UNL     1      -3.031  -5.218  -1.188  0.00  0.00    -0.268 OA
ATOM      4  H   UNL     1      -3.105  -2.196  -0.558  0.00  0.00    +0.150 HD
ENDROOT
BRANCH   2   5
ATOM      5  C   UNL     1      -4.802  -3.792  -1.736  0.00  0.00    +0.146 A 
ATOM      6  C   UNL     1      -5.543  -4.818  -2.317  0.00  0.00    +0.072 A 
ATOM      7  C   UNL     1      -6.789  -4.531  -2.860  0.00  0.00    +0.026 A 
ATOM      8  C   UNL     1      -7.250  -3.229  -2.803  0.00  0.00    +0.046 A 
ATOM      9  C   UNL     1      -6.457  -2.248  -2.207  0.00  0.00    +0.133 A 
ATOM     10  N   UNL     1      -5.279  -2.552  -1.695  0.00  0.00    -0.225 NA
ATOM     11 CL   UNL     1      -4.917  -6.437  -2.362  0.00  0.00    -0.081 Cl
BRANCH   9  12
ATOM     12  N   UNL     1      -6.914  -0.937  -2.148  0.00  0.00    -0.268 N 
ATOM     13  H   UNL     1      -7.780  -0.708  -2.519  0.00  0.00    +0.167 HD
BRANCH  12  14
ATOM     14  N   UNL     1      -6.144   0.030  -1.566  0.00  0.00    -0.255 NA
ATOM     15  H   UNL     1      -5.233   0.075  -1.999  0.00  0.00    +0.140 HD
ATOM     16  H   UNL     1      -6.604   0.927  -1.597  0.00  0.00    +0.140 HD
ENDBRANCH  12  14
ENDBRANCH   9  12
ENDBRANCH   2   5
BRANCH   1  17
ATOM     17  C   UNL     1      -1.437  -3.390  -0.009  0.00  0.00    +0.104 C 
ATOM     18  C   UNL     1      -1.609  -3.892   1.426  0.00  0.00    +0.033 C 
BRANCH  17  22
ATOM     19  C   UNL     1      -0.018   1.503   0.010  0.00  0.00    +0.086 C 
ATOM     20  C   UNL     1       0.002  -0.004   0.002  0.00  0.00    +0.103 A 
ATOM     21  C   UNL     1      -1.078  -0.805   0.003  0.00  0.00    +0.050 A 
ATOM     22  C   UNL     1      -0.601  -2.136  -0.007  0.00  0.00    +0.013 A 
ATOM     23  C   UNL     1       0.742  -2.069  -0.013  0.00  0.00    +0.107 A 
ATOM     24  O   UNL     1       1.102  -0.775  -0.013  0.00  0.00    -0.465 OA
ATOM     25  C   UNL     1       1.684  -3.245  -0.023  0.00  0.00    +0.086 C 
ENDBRANCH  17  22
ENDBRANCH   1  17
TORSDOF 5
