REMARK  Name = ZINC34794182
REMARK  3 active torsions:
REMARK  status: ('A' for Active; 'I' for Inactive)
REMARK    1  A    between atoms: C_12  and  C_16
REMARK    2  A    between atoms: N_17  and  N_18
REMARK    3  A    between atoms: C_19  and  C_21
REMARK                            x       y       z     vdW  Elec       q    Type
REMARK                         _______ _______ _______ _____ _____    ______ ____
ROOT
ATOM      1  C   UNL     1       7.419  -0.033  -0.323  0.00  0.00    +0.121 C 
ATOM      2  N   UNL     1       8.492  -0.744  -0.545  0.00  0.00    -0.291 N 
ATOM      3  N   UNL     1       7.525   1.335  -0.102  0.00  0.00    -0.343 N 
ATOM      4  H   UNL     1       6.728   1.863   0.063  0.00  0.00    +0.144 HD
ATOM      5  H   UNL     1       8.396   1.762  -0.112  0.00  0.00    +0.144 HD
ATOM      6  H   UNL     1       8.418  -1.698  -0.699  0.00  0.00    +0.186 HD
ENDROOT
BRANCH   1  18
ATOM      7  C   UNL     1      -0.016   1.359   0.009  0.00  0.00    +0.001 A 
ATOM      8  C   UNL     1       1.167   2.090   0.002  0.00  0.00    +0.001 A 
ATOM      9  C   UNL     1       2.378   1.462  -0.014  0.00  0.00    +0.009 A 
ATOM     10  C   UNL     1       2.433   0.065  -0.022  0.00  0.00    -0.007 A 
ATOM     11  C   UNL     1       1.231  -0.683  -0.012  0.00  0.00    -0.017 A 
ATOM     12  C   UNL     1       0.002  -0.004   0.002  0.00  0.00    +0.008 A 
ATOM     13  C   UNL     1       1.289  -2.090  -0.017  0.00  0.00    +0.012 A 
ATOM     14  C   UNL     1       2.479  -2.743  -0.020  0.00  0.00    +0.047 A 
ATOM     15  C   UNL     1       3.695  -2.055  -0.029  0.00  0.00    +0.140 A 
ATOM     16  C   UNL     1       3.708  -0.653  -0.044  0.00  0.00    +0.026 A 
ATOM     17  C   UNL     1       4.933   0.045  -0.075  0.00  0.00    +0.030 A 
ATOM     18  C   UNL     1       6.095  -0.682  -0.308  0.00  0.00    +0.099 A 
ATOM     19  C   UNL     1       5.946  -2.130  -0.539  0.00  0.00    +0.348 A 
ATOM     20  O   UNL     1       6.768  -2.753  -1.185  0.00  0.00    -0.244 OA
ATOM     21  O   UNL     1       4.863  -2.741  -0.008  0.00  0.00    -0.422 OA
ENDBRANCH   1  18
BRANCH   2  22
ATOM     22  N   UNL     1       9.750  -0.127  -0.559  0.00  0.00    -0.224 N 
ATOM     23  C   UNL     1      10.857  -0.860  -0.788  0.00  0.00    +0.263 C 
ATOM     24  O   UNL     1      10.764  -2.058  -0.982  0.00  0.00    -0.268 OA
ATOM     25  H   UNL     1       9.823   0.828  -0.405  0.00  0.00    +0.175 HD
BRANCH  23  26
ATOM     26  C   UNL     1      12.184  -0.210  -0.803  0.00  0.00    +0.052 A 
ATOM     27  C   UNL     1      12.294   1.163  -0.576  0.00  0.00    +0.014 A 
ATOM     28  C   UNL     1      13.535   1.764  -0.591  0.00  0.00    +0.001 A 
ATOM     29  C   UNL     1      14.670   1.010  -0.833  0.00  0.00    +0.001 A 
ATOM     30  C   UNL     1      14.569  -0.350  -1.059  0.00  0.00    +0.016 A 
ATOM     31  C   UNL     1      13.333  -0.967  -1.040  0.00  0.00    +0.030 A 
ATOM     32 BR   UNL     1      13.197  -2.829  -1.341  0.00  0.00    -0.050 Br
ENDBRANCH  23  26
ENDBRANCH   2  22
TORSDOF 3
