REMARK  Name = ZINC59435171
REMARK  8 active torsions:
REMARK  status: ('A' for Active; 'I' for Inactive)
REMARK    1  A    between atoms: C_4  and  N_28
REMARK    2  A    between atoms: C_5  and  N_7
REMARK    3  A    between atoms: C_8  and  C_10
REMARK    4  A    between atoms: C_10  and  S_11
REMARK    5  A    between atoms: S_11  and  C_12
REMARK    6  A    between atoms: C_18  and  C_20
REMARK    7  A    between atoms: C_20  and  S_21
REMARK    8  A    between atoms: S_21  and  C_22
REMARK                            x       y       z     vdW  Elec       q    Type
REMARK                         _______ _______ _______ _____ _____    ______ ____
ROOT
ATOM      1  C   UNL     1      -1.531  -6.542   0.034  0.00  0.00    +0.160 A 
ATOM      2  N   UNL     1      -0.455  -7.295   0.211  0.00  0.00    -0.133 NA
ATOM      3  N   UNL     1      -0.527  -8.551   0.295  0.00  0.00    -0.125 NA
ATOM      4  C   UNL     1      -1.680  -9.195   0.213  0.00  0.00    +0.189 A 
ATOM      5  S   UNL     1      -2.794  -7.810  -0.006  0.00  0.00    -0.024 S 
ATOM      6  N   UNL     1      -1.951 -10.559   0.283  0.00  0.00    -0.263 N 
ATOM      7  C   UNL     1      -0.945 -11.438   0.461  0.00  0.00    +0.229 C 
ATOM      8  O   UNL     1       0.197 -11.040   0.561  0.00  0.00    -0.275 OA
ATOM      9  H   UNL     1      -2.864 -10.877   0.203  0.00  0.00    +0.157 HD
ENDROOT
BRANCH   1  10
ATOM     10  S   UNL     1      -1.677  -4.792  -0.112  0.00  0.00    -0.088 S 
BRANCH  10  11
ATOM     11  C   UNL     1       0.030  -4.196   0.026  0.00  0.00    +0.172 C 
BRANCH  11  13
ATOM     12  N   UNL     1       1.217  -2.026  -0.008  0.00  0.00    -0.283 N 
ATOM     13  C   UNL     1       0.048  -2.693  -0.084  0.00  0.00    +0.228 C 
ATOM     14  O   UNL     1      -0.989  -2.084  -0.239  0.00  0.00    -0.275 OA
ATOM     15  H   UNL     1       2.053  -2.515   0.039  0.00  0.00    +0.155 HD
BRANCH  12  20
ATOM     16  C   UNL     1       0.212   1.452   0.639  0.00  0.00    +0.002 A 
ATOM     17  C   UNL     1       1.238   2.140   0.017  0.00  0.00    +0.002 A 
ATOM     18  C   UNL     1       2.256   1.449  -0.613  0.00  0.00    +0.034 A 
ATOM     19  C   UNL     1       2.252   0.068  -0.623  0.00  0.00    +0.147 A 
ATOM     20  C   UNL     1       1.224  -0.626   0.001  0.00  0.00    +0.064 A 
ATOM     21  C   UNL     1       0.203   0.071   0.633  0.00  0.00    +0.025 A 
BRANCH  19  22
ATOM     22  N   UNL     1       3.342  -0.671  -1.299  0.00  0.00    +0.058 N 
ATOM     23  O   UNL     1       4.188  -0.068  -1.918  0.00  0.00    -0.126 OA
ATOM     24  O   UNL     1       3.387  -1.877  -1.231  0.00  0.00    -0.126 OA
ENDBRANCH  19  22
ENDBRANCH  12  20
ENDBRANCH  11  13
ENDBRANCH  10  11
ENDBRANCH   1  10
BRANCH   7  25
ATOM     25  C   UNL     1      -1.238 -12.914   0.537  0.00  0.00    +0.172 C 
BRANCH  25  26
ATOM     26  S   UNL     1       0.311 -13.826   0.779  0.00  0.00    -0.088 S 
BRANCH  26  27
ATOM     27  C   UNL     1      -0.193 -15.513   0.846  0.00  0.00    +0.160 A 
ATOM     28  N   UNL     1      -1.403 -16.028   0.742  0.00  0.00    -0.133 NA
ATOM     29  N   UNL     1      -1.576 -17.391   0.823  0.00  0.00    -0.125 NA
ATOM     30  C   UNL     1      -0.532 -18.175   1.006  0.00  0.00    +0.180 A 
ATOM     31  S   UNL     1       0.797 -16.983   1.066  0.00  0.00    -0.025 S 
ATOM     32  N   UNL     1      -0.479 -19.560   1.116  0.00  0.00    -0.336 N 
ATOM     33  H   UNL     1      -1.294 -20.082   1.058  0.00  0.00    +0.144 HD
ATOM     34  H   UNL     1       0.373 -20.003   1.250  0.00  0.00    +0.144 HD
ENDBRANCH  26  27
ENDBRANCH  25  26
ENDBRANCH   7  25
TORSDOF 8
