REMARK  Name = ZINC13040192
REMARK  7 active torsions:
REMARK  status: ('A' for Active; 'I' for Inactive)
REMARK    1  A    between atoms: C_1  and  C_2
REMARK    2  A    between atoms: C_2  and  C_4
REMARK    3  A    between atoms: C_2  and  N_11
REMARK    4  A    between atoms: N_11  and  C_12
REMARK    5  A    between atoms: C_12  and  C_13
REMARK    6  A    between atoms: C_26  and  S_29
REMARK    7  A    between atoms: S_29  and  C_30
REMARK                            x       y       z     vdW  Elec       q    Type
REMARK                         _______ _______ _______ _____ _____    ______ ____
ROOT
ATOM      1  C   UNL     1      -3.336  -1.100  -1.298  0.00  0.00    +0.238 C 
ATOM      2  O   UNL     1      -2.259  -0.543  -1.328  0.00  0.00    -0.273 OA
ATOM      3  N   UNL     1      -4.004  -1.338  -2.444  0.00  0.00    -0.237 N 
ATOM      4  C   UNL     1      -3.338  -1.086  -3.643  0.00  0.00    +0.055 A 
ATOM      5  C   UNL     1      -2.284  -0.178  -3.647  0.00  0.00    +0.025 A 
ATOM      6  C   UNL     1      -1.599   0.091  -4.816  0.00  0.00    +0.002 A 
ATOM      7  C   UNL     1      -1.956  -0.540  -5.993  0.00  0.00    +0.001 A 
ATOM      8  C   UNL     1      -3.002  -1.443  -6.002  0.00  0.00    +0.017 A 
ATOM      9  C   UNL     1      -3.696  -1.717  -4.830  0.00  0.00    +0.035 A 
ATOM     10  S   UNL     1      -5.033  -2.864  -4.863  0.00  0.00    -0.086 S 
ATOM     11  C   UNL     1      -5.911  -2.537  -3.371  0.00  0.00    +0.035 A 
ATOM     12  C   UNL     1      -5.307  -1.823  -2.342  0.00  0.00    +0.056 A 
ATOM     13  C   UNL     1      -6.022  -1.579  -1.175  0.00  0.00    +0.039 A 
ATOM     14  C   UNL     1      -7.319  -2.051  -1.037  0.00  0.00    +0.009 A 
ATOM     15  C   UNL     1      -7.911  -2.770  -2.067  0.00  0.00    +0.016 A 
ATOM     16  C   UNL     1      -7.211  -3.004  -3.229  0.00  0.00    +0.018 A 
ENDROOT
BRANCH  14  17
ATOM     17  S   UNL     1      -8.217  -1.738   0.446  0.00  0.00    -0.129 S 
ATOM     18  C   UNL     1      -9.824  -2.531   0.163  0.00  0.00    +0.090 C 
ENDBRANCH  14  17
BRANCH   1  19
ATOM     19  C   UNL     1      -3.927  -1.527   0.021  0.00  0.00    +0.179 C 
BRANCH  19  20
ATOM     20  N   UNL     1      -2.847  -1.904   0.942  0.00  0.00    -0.302 NA
ATOM     21  H   UNL     1      -2.186  -1.149   1.053  0.00  0.00    +0.123 HD
BRANCH  20  23
ATOM     22  C   UNL     1      -3.763  -3.808   2.180  0.00  0.00    +0.029 C 
ATOM     23  C   UNL     1      -3.387  -2.327   2.241  0.00  0.00    +0.081 C 
BRANCH  23  24
ATOM     24  C   UNL     1      -2.345  -2.117   3.310  0.00  0.00    -0.031 A 
ATOM     25  C   UNL     1      -1.019  -2.402   3.048  0.00  0.00    +0.006 A 
ATOM     26  C   UNL     1      -0.063  -2.209   4.028  0.00  0.00    +0.020 A 
ATOM     27  C   UNL     1      -0.435  -1.731   5.272  0.00  0.00    +0.041 A 
ATOM     28  C   UNL     1      -1.763  -1.446   5.534  0.00  0.00    +0.020 A 
ATOM     29  C   UNL     1      -2.717  -1.634   4.551  0.00  0.00    +0.006 A 
ATOM     30 CL   UNL     1       0.764  -1.490   6.503  0.00  0.00    -0.084 Cl
ENDBRANCH  23  24
ENDBRANCH  20  23
ENDBRANCH  19  20
ENDBRANCH   1  19
TORSDOF 5
