REMARK  Name = ZINC37769929
REMARK  8 active torsions:
REMARK  status: ('A' for Active; 'I' for Inactive)
REMARK    1  A    between atoms: C_1  and  C_2
REMARK    2  A    between atoms: C_2  and  C_4
REMARK    3  A    between atoms: C_2  and  N_20
REMARK    4  A    between atoms: C_4  and  C_5
REMARK    5  A    between atoms: N_7  and  C_8
REMARK    6  A    between atoms: C_9  and  C_16
REMARK    7  A    between atoms: C_16  and  O_18
REMARK    8  A    between atoms: O_18  and  C_19
REMARK                            x       y       z     vdW  Elec       q    Type
REMARK                         _______ _______ _______ _____ _____    ______ ____
ROOT
ATOM      1  C   UNL     1      -2.459  -4.080  -0.581  0.00  0.00    +0.062 A 
ATOM      2  C   UNL     1      -3.648  -4.797  -0.784  0.00  0.00    +0.082 A 
ATOM      3  C   UNL     1      -3.624  -6.194  -0.765  0.00  0.00    +0.032 A 
ATOM      4  C   UNL     1      -2.436  -6.859  -0.548  0.00  0.00    +0.020 A 
ATOM      5  C   UNL     1      -1.263  -6.148  -0.347  0.00  0.00    +0.032 A 
ATOM      6  C   UNL     1      -1.270  -4.767  -0.369  0.00  0.00    +0.041 A 
ATOM      7 BR   UNL     1       0.339  -3.810  -0.103  0.00  0.00    -0.048 Br
ATOM      8 BR   UNL     1      -2.407  -8.749  -0.523  0.00  0.00    -0.050 Br
ENDROOT
BRANCH   1  11
ATOM      9  C   UNL     1      -2.092  -1.998   0.498  0.00  0.00    +0.216 C 
ATOM     10  O   UNL     1      -1.806  -2.588   1.518  0.00  0.00    -0.276 OA
ATOM     11  N   UNL     1      -2.469  -2.687  -0.597  0.00  0.00    -0.284 N 
ATOM     12  H   UNL     1      -2.748  -2.214  -1.397  0.00  0.00    +0.155 HD
BRANCH   9  13
ATOM     13  C   UNL     1      -2.026  -0.493   0.455  0.00  0.00    +0.080 C 
BRANCH  13  15
ATOM     14  C   UNL     1      -1.386   1.554   1.738  0.00  0.00    -0.014 C 
ATOM     15  C   UNL     1      -1.574   0.037   1.817  0.00  0.00    -0.070 C 
BRANCH  15  16
ATOM     16  N   UNL     1      -2.592  -0.278   2.827  0.00  0.00    +0.380 N 
ATOM     17  H   UNL     1      -3.466   0.156   2.571  0.00  0.00    -0.090 HD
ATOM     18  H   UNL     1      -2.716  -1.278   2.880  0.00  0.00    -0.090 HD
ATOM     19  H   UNL     1      -2.294   0.071   3.726  0.00  0.00    -0.090 HD
ENDBRANCH  15  16
ENDBRANCH  13  15
ENDBRANCH   9  13
ENDBRANCH   1  11
BRANCH   2  20
ATOM     20  C   UNL     1      -4.915  -4.080  -1.015  0.00  0.00    +0.341 C 
ATOM     21  O   UNL     1      -4.955  -2.869  -0.917  0.00  0.00    -0.245 OA
BRANCH  20  22
ATOM     22  O   UNL     1      -6.029  -4.767  -1.335  0.00  0.00    -0.464 OA
ATOM     23  C   UNL     1      -7.221  -4.008  -1.546  0.00  0.00    +0.280 C 
ENDBRANCH  20  22
ENDBRANCH   2  20
TORSDOF 6
