REMARK  Name = ZINC39596998
REMARK  8 active torsions:
REMARK  status: ('A' for Active; 'I' for Inactive)
REMARK    1  A    between atoms: C_1  and  C_2
REMARK    2  A    between atoms: C_12  and  O_13
REMARK    3  A    between atoms: O_13  and  C_14
REMARK    4  A    between atoms: C_14  and  C_15
REMARK    5  A    between atoms: C_19  and  C_28
REMARK    6  A    between atoms: N_30  and  C_31
REMARK    7  A    between atoms: C_31  and  C_33
REMARK    8  A    between atoms: C_31  and  C_34
REMARK                            x       y       z     vdW  Elec       q    Type
REMARK                         _______ _______ _______ _____ _____    ______ ____
ROOT
ATOM      1  C   UNL     1       0.224  -6.169   3.550  0.00  0.00    +0.253 C 
ATOM      2  O   UNL     1       0.261  -6.501   2.385  0.00  0.00    -0.272 OA
ATOM      3  N   UNL     1       0.199  -7.107   4.518  0.00  0.00    -0.297 N 
ATOM      4  C   UNL     1       0.148  -6.898   5.984  0.00  0.00    +0.121 C 
ATOM      5  C   UNL     1      -0.808  -7.996   6.502  0.00  0.00    +0.100 C 
ATOM      6  C   UNL     1      -0.757  -9.098   5.430  0.00  0.00    -0.004 C 
ATOM      7  C   UNL     1       0.210  -8.581   4.356  0.00  0.00    +0.115 C 
ATOM      8  C   UNL     1      -0.234 -10.398   6.033  0.00  0.00    -0.010 C 
ATOM      9  C   UNL     1      -0.247 -11.493   4.963  0.00  0.00    -0.082 C 
ATOM     10  N   UNL     1      -1.616 -11.678   4.465  0.00  0.00    +0.379 N 
ATOM     11  C   UNL     1      -2.078 -10.451   3.805  0.00  0.00    -0.082 C 
ATOM     12  C   UNL     1      -2.142  -9.312   4.826  0.00  0.00    -0.010 C 
ATOM     13  H   UNL     1      -1.632 -12.441   3.805  0.00  0.00    -0.086 HD
ATOM     14  H   UNL     1      -2.227 -11.892   5.239  0.00  0.00    -0.086 HD
ENDROOT
BRANCH   5  15
ATOM     15  C   UNL     1      -2.208  -7.453   6.633  0.00  0.00    +0.219 C 
ATOM     16  O   UNL     1      -2.589  -6.573   5.891  0.00  0.00    -0.275 OA
ATOM     17  N   UNL     1      -3.036  -7.946   7.575  0.00  0.00    -0.308 N 
ATOM     18  H   UNL     1      -2.731  -8.650   8.169  0.00  0.00    +0.149 HD
BRANCH  17  19
ATOM     19  C   UNL     1      -4.397  -7.418   7.703  0.00  0.00    +0.100 C 
ATOM     20  C   UNL     1      -5.320  -8.144   6.722  0.00  0.00    +0.033 C 
BRANCH  19  21
ATOM     21  C   UNL     1      -4.890  -7.636   9.111  0.00  0.00    -0.027 A 
ATOM     22  C   UNL     1      -4.599  -8.816   9.770  0.00  0.00    +0.005 A 
ATOM     23  C   UNL     1      -5.051  -9.015  11.061  0.00  0.00    +0.000 A 
ATOM     24  C   UNL     1      -5.794  -8.035  11.693  0.00  0.00    +0.000 A 
ATOM     25  C   UNL     1      -6.084  -6.856  11.033  0.00  0.00    +0.000 A 
ATOM     26  C   UNL     1      -5.628  -6.654   9.744  0.00  0.00    +0.005 A 
ENDBRANCH  19  21
ENDBRANCH  17  19
ENDBRANCH   5  15
BRANCH   1  27
ATOM     27  C   UNL     1       0.207  -4.708   3.917  0.00  0.00    +0.324 C 
BRANCH  27  28
ATOM     28  O   UNL     1       0.239  -3.917   2.727  0.00  0.00    -0.479 OA
BRANCH  28  40
ATOM     29  C   UNL     1       0.268   2.026   0.899  0.00  0.00    +0.045 C 
ATOM     30  C   UNL     1       0.279   0.525   0.759  0.00  0.00    -0.033 A 
ATOM     31  C   UNL     1       0.318  -0.061  -0.465  0.00  0.00    +0.096 A 
ATOM     32  C   UNL     1       0.328  -1.469  -0.568  0.00  0.00    +0.338 A 
ATOM     33  O   UNL     1       0.363  -1.982  -1.672  0.00  0.00    -0.245 OA
ATOM     34  O   UNL     1       0.299  -2.255   0.519  0.00  0.00    -0.418 OA
ATOM     35  C   UNL     1       0.259  -1.735   1.765  0.00  0.00    +0.181 A 
ATOM     36  C   UNL     1       0.253  -0.342   1.941  0.00  0.00    +0.024 A 
ATOM     37  C   UNL     1       0.217   0.200   3.231  0.00  0.00    +0.012 A 
ATOM     38  C   UNL     1       0.193  -0.639   4.322  0.00  0.00    +0.004 A 
ATOM     39  C   UNL     1       0.204  -2.015   4.151  0.00  0.00    +0.049 A 
ATOM     40  C   UNL     1       0.229  -2.567   2.882  0.00  0.00    +0.164 A 
ENDBRANCH  28  40
ENDBRANCH  27  28
ENDBRANCH   1  27
TORSDOF 6
