REMARK  Name = ZINC39685887
REMARK  16 active torsions:
REMARK  status: ('A' for Active; 'I' for Inactive)
REMARK    1  A    between atoms: C_1  and  C_2
REMARK    2  A    between atoms: C_2  and  C_3
REMARK    3  A    between atoms: C_2  and  C_4
REMARK    4  A    between atoms: C_4  and  C_6
REMARK    5  A    between atoms: C_4  and  N_13
REMARK    6  A    between atoms: N_8  and  C_9
REMARK    7  A    between atoms: C_9  and  C_10
REMARK    8  A    between atoms: C_9  and  C_11
REMARK    9  A    between atoms: C_9  and  C_12
REMARK   10  A    between atoms: C_14  and  C_16
REMARK   11  A    between atoms: C_27  and  C_29
REMARK   12  A    between atoms: C_29  and  C_31
REMARK   13  A    between atoms: C_29  and  O_34
REMARK   14  A    between atoms: C_31  and  C_32
REMARK   15  A    between atoms: C_31  and  C_33
REMARK   16  A    between atoms: O_34  and  C_35
REMARK                            x       y       z     vdW  Elec       q    Type
REMARK                         _______ _______ _______ _____ _____    ______ ____
ROOT
ATOM      1  C   UNL     1      -1.248  -5.194   0.847  0.00  0.00    +0.100 C 
ATOM      2  C   UNL     1       0.221  -5.571   0.556  0.00  0.00    +0.121 C 
ATOM      3  N   UNL     1       0.822  -5.796   1.891  0.00  0.00    -0.297 N 
ATOM      4  C   UNL     1      -0.237  -6.492   2.660  0.00  0.00    +0.115 C 
ATOM      5  C   UNL     1      -1.546  -5.803   2.228  0.00  0.00    -0.004 C 
ATOM      6  C   UNL     1      -2.672  -6.826   2.122  0.00  0.00    -0.010 C 
ATOM      7  C   UNL     1      -2.990  -7.375   3.515  0.00  0.00    -0.082 C 
ATOM      8  N   UNL     1      -3.386  -6.272   4.399  0.00  0.00    +0.379 N 
ATOM      9  C   UNL     1      -2.265  -5.340   4.570  0.00  0.00    -0.082 C 
ATOM     10  C   UNL     1      -1.917  -4.705   3.221  0.00  0.00    -0.010 C 
ATOM     11  C   UNL     1       2.054  -5.446   2.312  0.00  0.00    +0.257 C 
ATOM     12  O   UNL     1       2.440  -5.790   3.409  0.00  0.00    -0.272 OA
ATOM     13  H   UNL     1      -4.170  -5.783   3.994  0.00  0.00    -0.086 HD
ATOM     14  H   UNL     1      -3.654  -6.643   5.299  0.00  0.00    -0.086 HD
ENDROOT
BRANCH   1  16
ATOM     15  N   UNL     1      -2.624  -3.141   0.727  0.00  0.00    -0.303 N 
ATOM     16  C   UNL     1      -1.406  -3.695   0.890  0.00  0.00    +0.219 C 
ATOM     17  O   UNL     1      -0.438  -2.988   1.070  0.00  0.00    -0.275 OA
ATOM     18  H   UNL     1      -3.410  -3.707   0.665  0.00  0.00    +0.149 HD
BRANCH  15  19
ATOM     19  C   UNL     1      -2.761  -1.685   0.642  0.00  0.00    +0.161 C 
BRANCH  19  20
ATOM     20  C   UNL     1      -4.007  -1.254   1.371  0.00  0.00    +0.234 C 
ATOM     21  O   UNL     1      -4.811  -2.084   1.740  0.00  0.00    -0.274 OA
ATOM     22  N   UNL     1      -4.229   0.053   1.613  0.00  0.00    -0.309 N 
ATOM     23  H   UNL     1      -3.626   0.722   1.252  0.00  0.00    +0.149 HD
BRANCH  22  24
ATOM     24  C   UNL     1      -5.380   0.464   2.421  0.00  0.00    +0.026 C 
ATOM     25  C   UNL     1      -5.271  -0.157   3.815  0.00  0.00    +0.031 C 
ATOM     26  C   UNL     1      -5.400   1.989   2.542  0.00  0.00    +0.031 C 
ATOM     27  C   UNL     1      -6.670  -0.012   1.750  0.00  0.00    +0.031 C 
ENDBRANCH  22  24
ENDBRANCH  19  20
BRANCH  19  29
ATOM     28  C   UNL     1      -1.564  -1.640  -1.551  0.00  0.00    +0.009 C 
ATOM     29  C   UNL     1      -2.859  -1.267  -0.827  0.00  0.00    +0.012 C 
ATOM     30  C   UNL     1      -4.037  -1.987  -1.485  0.00  0.00    +0.009 C 
ENDBRANCH  19  29
ENDBRANCH  15  19
ENDBRANCH   1  16
BRANCH  11  31
ATOM     31  C   UNL     1       2.951  -4.628   1.419  0.00  0.00    +0.261 C 
BRANCH  31  32
ATOM     32  C   UNL     1       3.681  -5.553   0.444  0.00  0.00    +0.033 C 
ATOM     33  C   UNL     1       4.653  -4.733  -0.407  0.00  0.00    +0.011 C 
ATOM     34  C   UNL     1       4.459  -6.611   1.230  0.00  0.00    +0.011 C 
ENDBRANCH  31  32
BRANCH  31  35
ATOM     35  O   UNL     1       2.164  -3.688   0.685  0.00  0.00    -0.479 OA
BRANCH  35  36
ATOM     36  C   UNL     1       2.744  -2.495   0.390  0.00  0.00    +0.122 A 
ATOM     37  C   UNL     1       2.060  -1.561  -0.375  0.00  0.00    +0.045 A 
ATOM     38  C   UNL     1       2.652  -0.349  -0.674  0.00  0.00    +0.004 A 
ATOM     39  C   UNL     1       3.924  -0.066  -0.212  0.00  0.00    +0.000 A 
ATOM     40  C   UNL     1       4.607  -0.996   0.550  0.00  0.00    +0.004 A 
ATOM     41  C   UNL     1       4.018  -2.207   0.857  0.00  0.00    +0.045 A 
ENDBRANCH  35  36
ENDBRANCH  31  35
ENDBRANCH  11  31
TORSDOF 9
