REMARK  Name = ZINC39623186
REMARK  7 active torsions:
REMARK  status: ('A' for Active; 'I' for Inactive)
REMARK    1  A    between atoms: C_1  and  C_2
REMARK    2  A    between atoms: C_2  and  C_3
REMARK    3  A    between atoms: C_3  and  C_5
REMARK    4  A    between atoms: C_3  and  C_11
REMARK    5  A    between atoms: C_15  and  C_24
REMARK    6  A    between atoms: N_26  and  C_27
REMARK    7  A    between atoms: C_27  and  C_28
REMARK                            x       y       z     vdW  Elec       q    Type
REMARK                         _______ _______ _______ _____ _____    ______ ____
ROOT
ATOM      1  C   UNL     1       0.838  -2.158   1.176  0.00  0.00    +0.223 C 
ATOM      2  O   UNL     1       0.403  -2.868   2.057  0.00  0.00    -0.275 OA
ATOM      3  N   UNL     1       1.528  -2.699   0.152  0.00  0.00    -0.300 N 
ATOM      4  C   UNL     1       2.137  -1.999  -1.003  0.00  0.00    +0.121 C 
ATOM      5  C   UNL     1       3.483  -2.723  -1.232  0.00  0.00    +0.100 C 
ATOM      6  C   UNL     1       3.285  -4.121  -0.621  0.00  0.00    -0.004 C 
ATOM      7  C   UNL     1       1.852  -4.128  -0.069  0.00  0.00    +0.115 C 
ATOM      8  C   UNL     1       4.282  -4.348   0.511  0.00  0.00    -0.010 C 
ATOM      9  C   UNL     1       4.104  -5.765   1.065  0.00  0.00    -0.082 C 
ATOM     10  N   UNL     1       4.321  -6.742  -0.009  0.00  0.00    +0.379 N 
ATOM     11  C   UNL     1       3.301  -6.577  -1.051  0.00  0.00    -0.082 C 
ATOM     12  C   UNL     1       3.445  -5.194  -1.694  0.00  0.00    -0.010 C 
ATOM     13  H   UNL     1       5.236  -6.601  -0.410  0.00  0.00    -0.086 HD
ATOM     14  H   UNL     1       4.264  -7.675   0.371  0.00  0.00    -0.086 HD
ENDROOT
BRANCH   5  15
ATOM     15  C   UNL     1       3.777  -2.829  -2.706  0.00  0.00    +0.218 C 
ATOM     16  O   UNL     1       2.866  -2.920  -3.502  0.00  0.00    -0.275 OA
ATOM     17  N   UNL     1       5.053  -2.823  -3.141  0.00  0.00    -0.311 N 
ATOM     18  H   UNL     1       5.781  -2.751  -2.505  0.00  0.00    +0.149 HD
BRANCH  17  19
ATOM     19  C   UNL     1       5.339  -2.926  -4.574  0.00  0.00    +0.141 C 
BRANCH  19  20
ATOM     20  C   UNL     1       6.830  -2.897  -4.792  0.00  0.00    -0.012 A 
ATOM     21  C   UNL     1       7.448  -1.724  -5.184  0.00  0.00    +0.006 A 
ATOM     22  C   UNL     1       8.815  -1.696  -5.384  0.00  0.00    +0.000 A 
ATOM     23  C   UNL     1       9.565  -2.841  -5.193  0.00  0.00    +0.001 A 
ATOM     24  C   UNL     1       8.949  -4.015  -4.801  0.00  0.00    +0.020 A 
ATOM     25  C   UNL     1       7.581  -4.041  -4.595  0.00  0.00    +0.046 A 
ATOM     26 CL   UNL     1       6.806  -5.513  -4.097  0.00  0.00    -0.083 Cl
ENDBRANCH  19  20
ENDBRANCH  17  19
ENDBRANCH   5  15
BRANCH   1  27
ATOM     27  C   UNL     1       0.609  -0.669   1.226  0.00  0.00    +0.105 C 
BRANCH  27  28
ATOM     28  C   UNL     1      -0.182  -0.324   2.462  0.00  0.00    -0.036 A 
ATOM     29  C   UNL     1      -1.439  -0.867   2.652  0.00  0.00    +0.004 A 
ATOM     30  C   UNL     1      -2.164  -0.551   3.786  0.00  0.00    +0.000 A 
ATOM     31  C   UNL     1      -1.632   0.308   4.729  0.00  0.00    +0.000 A 
ATOM     32  C   UNL     1      -0.375   0.851   4.539  0.00  0.00    +0.000 A 
ATOM     33  C   UNL     1       0.352   0.531   3.408  0.00  0.00    +0.004 A 
ENDBRANCH  27  28
BRANCH  27  35
ATOM     34  C   UNL     1      -0.295   1.294  -0.028  0.00  0.00    +0.005 C 
ATOM     35  C   UNL     1      -0.170  -0.231  -0.016  0.00  0.00    +0.014 C 
ENDBRANCH  27  35
ENDBRANCH   1  27
TORSDOF 6
