REMARK  Name = ZINC12309794
REMARK  11 active torsions:
REMARK  status: ('A' for Active; 'I' for Inactive)
REMARK    1  A    between atoms: C_1  and  C_2
REMARK    2  A    between atoms: C_2  and  C_3
REMARK    3  A    between atoms: C_3  and  C_4
REMARK    4  A    between atoms: C_4  and  C_5
REMARK    5  A    between atoms: C_11  and  N_12
REMARK    6  A    between atoms: N_12  and  O_13
REMARK    7  A    between atoms: O_13  and  C_14
REMARK    8  A    between atoms: C_14  and  C_15
REMARK    9  A    between atoms: N_17  and  C_18
REMARK   10  A    between atoms: N_26  and  C_31
REMARK   11  A    between atoms: N_29  and  C_30
REMARK                            x       y       z     vdW  Elec       q    Type
REMARK                         _______ _______ _______ _____ _____    ______ ____
ROOT
ATOM      1  C   UNL     1       1.444  -2.510  -2.506  0.00  0.00    -0.005 A 
ATOM      2  C   UNL     1       0.718  -2.936  -3.599  0.00  0.00    +0.090 A 
ATOM      3  N   UNL     1       1.308  -3.371  -4.698  0.00  0.00    -0.347 N 
ATOM      4  H   UNL     1       0.761  -3.662  -5.444  0.00  0.00    +0.167 HD
ATOM      5  C   UNL     1       2.625  -3.420  -4.809  0.00  0.00    +0.129 A 
ATOM      6  C   UNL     1       3.438  -3.003  -3.740  0.00  0.00    +0.106 A 
ATOM      7  C   UNL     1       2.839  -2.532  -2.561  0.00  0.00    +0.082 A 
ATOM      8  C   UNL     1       4.896  -3.071  -3.897  0.00  0.00    +0.268 A 
ATOM      9  O   UNL     1       5.638  -2.722  -2.999  0.00  0.00    -0.267 OA
ATOM     10  N   UNL     1       5.391  -3.533  -5.067  0.00  0.00    -0.263 N 
ATOM     11  C   UNL     1       4.576  -3.919  -6.061  0.00  0.00    +0.333 A 
ATOM     12  O   UNL     1       5.071  -4.327  -7.093  0.00  0.00    -0.246 OA
ATOM     13  N   UNL     1       3.236  -3.876  -5.964  0.00  0.00    -0.282 N 
ATOM     14  C   UNL     1       2.413  -4.317  -7.093  0.00  0.00    +0.155 C 
ATOM     15  C   UNL     1       6.842  -3.612  -5.254  0.00  0.00    +0.157 C 
ENDROOT
BRANCH   7  16
ATOM     16  N   UNL     1       3.605  -2.108  -1.489  0.00  0.00    -0.264 N 
ATOM     17  H   UNL     1       4.446  -1.649  -1.644  0.00  0.00    +0.194 HD
BRANCH  16  18
ATOM     18  O   UNL     1       3.162  -2.344  -0.165  0.00  0.00    -0.265 OA
BRANCH  18  19
ATOM     19  C   UNL     1       4.050  -1.853   0.842  0.00  0.00    +0.288 C 
BRANCH  19  20
ATOM     20  C   UNL     1       3.481  -2.157   2.204  0.00  0.00    +0.242 C 
ATOM     21  O   UNL     1       2.421  -2.737   2.303  0.00  0.00    -0.273 OA
ATOM     22  N   UNL     1       4.152  -1.785   3.312  0.00  0.00    -0.310 N 
ATOM     23  H   UNL     1       5.000  -1.322   3.233  0.00  0.00    +0.149 HD
BRANCH  22  24
ATOM     24  C   UNL     1       3.600  -2.081   4.637  0.00  0.00    +0.073 C 
ATOM     25  C   UNL     1       3.998  -3.499   5.050  0.00  0.00    +0.022 C 
ATOM     26  C   UNL     1       3.421  -3.808   6.433  0.00  0.00    +0.002 C 
ATOM     27  C   UNL     1       3.972  -2.807   7.451  0.00  0.00    +0.000 C 
ATOM     28  C   UNL     1       3.574  -1.388   7.037  0.00  0.00    +0.002 C 
ATOM     29  C   UNL     1       4.151  -1.080   5.654  0.00  0.00    +0.022 C 
ENDBRANCH  22  24
ENDBRANCH  19  20
ENDBRANCH  18  19
ENDBRANCH  16  18
ENDBRANCH   7  16
BRANCH   1  30
ATOM     30  C   UNL     1       0.739  -2.020  -1.268  0.00  0.00    +0.039 C 
BRANCH  30  31
ATOM     31  C   UNL     1       0.809  -0.493  -1.212  0.00  0.00    +0.004 C 
BRANCH  31  33
ATOM     32  C   UNL     1       0.163   1.532   0.102  0.00  0.00    +0.004 C 
ATOM     33  C   UNL     1       0.093   0.004   0.046  0.00  0.00    -0.003 C 
ENDBRANCH  31  33
ENDBRANCH  30  31
ENDBRANCH   1  30
TORSDOF 8
