REMARK  Name = ZINC03373019
REMARK  8 active torsions:
REMARK  status: ('A' for Active; 'I' for Inactive)
REMARK    1  A    between atoms: C_6  and  O_7
REMARK    2  A    between atoms: O_7  and  C_8
REMARK    3  A    between atoms: C_8  and  C_9
REMARK    4  A    between atoms: C_13  and  S_15
REMARK    5  A    between atoms: S_15  and  C_16
REMARK    6  A    between atoms: C_16  and  C_17
REMARK    7  A    between atoms: N_19  and  C_20
REMARK    8  A    between atoms: C_21  and  C_28
REMARK                            x       y       z     vdW  Elec       q    Type
REMARK                         _______ _______ _______ _____ _____    ______ ____
ROOT
ATOM      1  C   UNL     1      -6.821   6.459   0.070  0.00  0.00    +0.173 C 
ENDROOT
BRANCH   1   2
ATOM      2  C   UNL     1      -7.695   7.686   0.082  0.00  0.00    +0.228 C 
ATOM      3  O   UNL     1      -7.192   8.790   0.086  0.00  0.00    -0.275 OA
ATOM      4  N   UNL     1      -9.037   7.558   0.088  0.00  0.00    -0.279 N 
ATOM      5  H   UNL     1      -9.494   6.557   0.084  0.00  0.00    +0.155 HD
BRANCH   4   6
ATOM      6  C   UNL     1      -9.841   8.687   0.098  0.00  0.00    +0.084 A 
ATOM      7  C   UNL     1     -11.224   8.758   0.100  0.00  0.00    +0.068 A 
ATOM      8  C   UNL     1     -11.834  10.088   0.116  0.00  0.00    -0.023 A 
ATOM      9  C   UNL     1     -10.964  11.115   0.118  0.00  0.00    -0.004 A 
ATOM     10  S   UNL     1      -9.361  10.350   0.105  0.00  0.00    -0.077 S 
ATOM     11  C   UNL     1     -11.665  12.446   0.132  0.00  0.00    +0.043 C 
ATOM     12  C   UNL     1     -13.108  12.122   0.576  0.00  0.00    +0.010 C 
ATOM     13  C   UNL     1     -13.254  10.655   0.124  0.00  0.00    +0.037 C 
BRANCH   7  14
ATOM     14  C   UNL     1     -12.047   7.545   0.089  0.00  0.00    +0.244 C 
ATOM     15  O   UNL     1     -12.389   7.033   1.139  0.00  0.00    -0.270 OA
ATOM     16  N   UNL     1     -12.426   6.998  -1.082  0.00  0.00    -0.325 N 
ATOM     17  H   UNL     1     -13.044   6.088  -1.090  0.00  0.00    +0.145 HD
ATOM     18  H   UNL     1     -12.118   7.461  -2.031  0.00  0.00    +0.145 HD
ENDBRANCH   7  14
ENDBRANCH   4   6
ENDBRANCH   1   2
BRANCH   1  19
ATOM     19  S   UNL     1      -5.077   6.959   0.065  0.00  0.00    -0.077 S 
BRANCH  19  24
ATOM     20  C   UNL     1      -2.546   4.033   0.036  0.00  0.00    +0.189 A 
ATOM     21  N   UNL     1      -3.680   3.314   0.027  0.00  0.00    -0.153 NA
ATOM     22  H   UNL     1      -5.779   3.882   0.042  0.00  0.00    +0.191 HD
ATOM     23  N   UNL     1      -4.738   4.238   0.041  0.00  0.00    -0.253 N 
ATOM     24  C   UNL     1      -4.196   5.433   0.051  0.00  0.00    +0.185 A 
ATOM     25  N   UNL     1      -2.866   5.302   0.050  0.00  0.00    -0.202 NA
BRANCH  20  26
ATOM     26  C   UNL     1      -1.146   3.475   0.031  0.00  0.00    +0.306 C 
BRANCH  26  27
ATOM     27  O   UNL     1      -1.202   2.047   0.028  0.00  0.00    -0.484 OA
BRANCH  27  33
ATOM     28  C   UNL     1       1.176   2.091   0.015  0.00  0.00    +0.047 A 
ATOM     29  C   UNL     1       2.380   1.414   0.005  0.00  0.00    +0.023 A 
ATOM     30  C   UNL     1       2.397   0.030   0.002  0.00  0.00    +0.041 A 
ATOM     31  C   UNL     1       1.208  -0.678   0.009  0.00  0.00    +0.023 A 
ATOM     32  C   UNL     1       0.002  -0.004   0.019  0.00  0.00    +0.047 A 
ATOM     33  C   UNL     1      -0.017   1.383   0.023  0.00  0.00    +0.121 A 
ATOM     34 CL   UNL     1       3.911  -0.818  -0.011  0.00  0.00    -0.084 Cl
ENDBRANCH  27  33
ENDBRANCH  26  27
ENDBRANCH  20  26
ENDBRANCH  19  24
ENDBRANCH   1  19
TORSDOF 8
