REMARK  Name = ZINC10602536
REMARK  10 active torsions:
REMARK  status: ('A' for Active; 'I' for Inactive)
REMARK    1  A    between atoms: C_1  and  C_2
REMARK    2  A    between atoms: C_2  and  C_3
REMARK    3  A    between atoms: C_2  and  N_4
REMARK    4  A    between atoms: N_4  and  S_5
REMARK    5  A    between atoms: S_5  and  C_8
REMARK    6  A    between atoms: C_11  and  C_14
REMARK    7  A    between atoms: C_14  and  O_16
REMARK    8  A    between atoms: O_16  and  C_17
REMARK    9  A    between atoms: C_17  and  C_18
REMARK   10  A    between atoms: N_20  and  C_21
REMARK                            x       y       z     vdW  Elec       q    Type
REMARK                         _______ _______ _______ _____ _____    ______ ____
ROOT
ATOM      1  C   UNL     1      -3.141   3.079   4.865  0.00  0.00    +0.340 C 
ATOM      2  O   UNL     1      -3.952   2.319   5.354  0.00  0.00    -0.245 OA
ENDROOT
BRANCH   1   6
ATOM      3  C   UNL     1      -0.961   1.922   1.409  0.00  0.00    +0.105 A 
ATOM      4  C   UNL     1      -0.741   3.164   1.978  0.00  0.00    +0.029 A 
ATOM      5  C   UNL     1      -1.450   3.548   3.098  0.00  0.00    +0.017 A 
ATOM      6  C   UNL     1      -2.382   2.677   3.663  0.00  0.00    +0.059 A 
ATOM      7  C   UNL     1      -2.595   1.423   3.087  0.00  0.00    +0.017 A 
ATOM      8  C   UNL     1      -1.884   1.053   1.964  0.00  0.00    +0.029 A 
BRANCH   3   9
ATOM      9  S   UNL     1      -0.056   1.442  -0.024  0.00  0.00    +0.059 S 
ATOM     10  O   UNL     1      -0.044   0.021  -0.040  0.00  0.00    -0.153 OA
ATOM     11  O   UNL     1       1.137   2.214  -0.029  0.00  0.00    -0.153 OA
BRANCH   9  12
ATOM     12  N   UNL     1      -0.935   1.923  -1.343  0.00  0.00    -0.187 NA
ATOM     13  H   UNL     1      -1.305   1.260  -1.947  0.00  0.00    +0.148 HD
BRANCH  12  15
ATOM     14  C   UNL     1      -0.096   3.863  -2.572  0.00  0.00    +0.025 C 
ATOM     15  C   UNL     1      -1.155   3.349  -1.596  0.00  0.00    +0.070 C 
ATOM     16  C   UNL     1      -2.546   3.551  -2.200  0.00  0.00    +0.025 C 
ENDBRANCH  12  15
ENDBRANCH   9  12
ENDBRANCH   3   9
ENDBRANCH   1   6
BRANCH   1  17
ATOM     17  O   UNL     1      -2.933   4.290   5.418  0.00  0.00    -0.452 OA
BRANCH  17  18
ATOM     18  C   UNL     1      -3.714   4.618   6.598  0.00  0.00    +0.328 C 
BRANCH  18  19
ATOM     19  C   UNL     1      -3.349   6.001   7.073  0.00  0.00    +0.255 C 
ATOM     20  O   UNL     1      -2.513   6.646   6.476  0.00  0.00    -0.272 OA
ATOM     21  N   UNL     1      -3.951   6.520   8.161  0.00  0.00    -0.281 N 
ATOM     22  H   UNL     1      -4.666   6.032   8.600  0.00  0.00    +0.155 HD
BRANCH  21  23
ATOM     23  C   UNL     1      -3.546   7.765   8.658  0.00  0.00    +0.053 A 
ATOM     24  C   UNL     1      -3.129   8.760   7.785  0.00  0.00    +0.046 A 
ATOM     25  C   UNL     1      -2.730   9.988   8.278  0.00  0.00    +0.061 A 
ATOM     26  C   UNL     1      -2.747  10.226   9.642  0.00  0.00    +0.061 A 
ATOM     27  C   UNL     1      -3.162   9.236  10.515  0.00  0.00    +0.043 A 
ATOM     28  C   UNL     1      -3.567   8.008  10.026  0.00  0.00    +0.064 A 
ATOM     29 CL   UNL     1      -4.095   6.769  11.121  0.00  0.00    -0.082 Cl
ATOM     30 CL   UNL     1      -2.246  11.770  10.258  0.00  0.00    -0.082 Cl
ATOM     31 CL   UNL     1      -2.208  11.233   7.186  0.00  0.00    -0.082 Cl
ENDBRANCH  21  23
ENDBRANCH  18  19
ENDBRANCH  17  18
ENDBRANCH   1  17
TORSDOF 8
