REMARK  Name = ZINC06194943
REMARK  10 active torsions:
REMARK  status: ('A' for Active; 'I' for Inactive)
REMARK    1  A    between atoms: C_1  and  C_2
REMARK    2  A    between atoms: C_6  and  C_15
REMARK    3  A    between atoms: C_13  and  C_14
REMARK    4  A    between atoms: C_15  and  C_17
REMARK    5  A    between atoms: C_15  and  N_72
REMARK    6  A    between atoms: N_21  and  C_22
REMARK    7  A    between atoms: C_28  and  C_29
REMARK    8  A    between atoms: C_28  and  N_72
REMARK    9  A    between atoms: C_35  and  C_36
REMARK   10  A    between atoms: C_35  and  N_72
REMARK                            x       y       z     vdW  Elec       q    Type
REMARK                         _______ _______ _______ _____ _____    ______ ____
ROOT
ATOM      1  C   UNL     1      -0.187  -1.806  -1.793  0.00  0.00    +0.040 C 
ENDROOT
BRANCH   1   7
ATOM      2  C   UNL     1      -4.123  -3.915  -7.766  0.00  0.00    +0.044 C 
ATOM      3  C   UNL     1      -2.837  -3.439  -7.140  0.00  0.00    -0.047 A 
ATOM      4  C   UNL     1      -2.784  -3.207  -5.795  0.00  0.00    +0.013 A 
ATOM      5  C   UNL     1      -1.591  -2.765  -5.214  0.00  0.00    -0.001 A 
ATOM      6  C   UNL     1      -1.499  -2.508  -3.776  0.00  0.00    +0.017 A 
ATOM      7  C   UNL     1      -0.316  -2.081  -3.269  0.00  0.00    +0.011 A 
ATOM      8  C   UNL     1       0.794  -1.887  -4.120  0.00  0.00    +0.251 A 
ATOM      9  O   UNL     1       1.846  -1.498  -3.644  0.00  0.00    -0.268 OA
ATOM     10  N   UNL     1       0.720  -2.125  -5.441  0.00  0.00    -0.322 N 
ATOM     11  H   UNL     1       1.503  -1.985  -5.996  0.00  0.00    +0.169 HD
ATOM     12  C   UNL     1      -0.453  -2.562  -6.018  0.00  0.00    +0.049 A 
ATOM     13  C   UNL     1      -0.531  -2.804  -7.386  0.00  0.00    +0.030 A 
ATOM     14  C   UNL     1      -1.718  -3.239  -7.936  0.00  0.00    -0.046 A 
ATOM     15  C   UNL     1      -1.800  -3.501  -9.418  0.00  0.00    +0.044 C 
ENDBRANCH   1   7
BRANCH   1  16
ATOM     16  C   UNL     1       0.123  -0.347  -1.579  0.00  0.00    +0.143 A 
ATOM     17  N   UNL     1       1.180   0.300  -2.007  0.00  0.00    -0.115 NA
ATOM     18  N   UNL     1       1.079   1.526  -1.624  0.00  0.00    -0.023 NA
ATOM     19  N   UNL     1      -0.012   1.676  -0.956  0.00  0.00    -0.044 NA
ATOM     20  N   UNL     1      -0.629   0.544  -0.906  0.00  0.00    -0.227 N 
BRANCH  20  21
ATOM     21  C   UNL     1      -1.908   0.279  -0.242  0.00  0.00    +0.111 C 
ATOM     22  C   UNL     1      -3.030   1.001  -0.991  0.00  0.00    +0.027 C 
ATOM     23  C   UNL     1      -4.366   0.724  -0.298  0.00  0.00    +0.002 C 
ATOM     24  C   UNL     1      -4.306   1.230   1.145  0.00  0.00    +0.000 C 
ATOM     25  C   UNL     1      -3.184   0.508   1.893  0.00  0.00    +0.002 C 
ATOM     26  C   UNL     1      -1.848   0.785   1.200  0.00  0.00    +0.027 C 
ENDBRANCH  20  21
ENDBRANCH   1  16
BRANCH   1  27
ATOM     27  N   UNL     1       0.922  -2.618  -1.250  0.00  0.00    +0.397 N 
ATOM     28  H   UNL     1       1.782  -2.394  -1.764  0.00  0.00    -0.079 HD
BRANCH  27  29
ATOM     29  C   UNL     1       1.124  -2.305   0.181  0.00  0.00    -0.039 C 
BRANCH  29  30
ATOM     30  C   UNL     1       2.133  -1.191   0.290  0.00  0.00    -0.046 A 
ATOM     31  C   UNL     1       3.489  -1.458   0.176  0.00  0.00    +0.005 A 
ATOM     32  C   UNL     1       4.381  -0.402   0.283  0.00  0.00    +0.020 A 
ATOM     33  C   UNL     1       3.892   0.873   0.498  0.00  0.00    +0.111 A 
ATOM     34  N   UNL     1       2.596   1.090   0.601  0.00  0.00    -0.263 NA
ATOM     35  C   UNL     1       1.719   0.110   0.505  0.00  0.00    +0.112 A 
ENDBRANCH  29  30
ENDBRANCH  27  29
BRANCH  27  36
ATOM     36  C   UNL     1       0.624  -4.056  -1.415  0.00  0.00    -0.001 C 
BRANCH  36  37
ATOM     37  C   UNL     1       1.020  -4.472  -2.808  0.00  0.00    +0.089 A 
ATOM     38  C   UNL     1       2.257  -4.823  -3.202  0.00  0.00    +0.042 A 
ATOM     39  C   UNL     1       2.176  -5.137  -4.578  0.00  0.00    +0.041 A 
ATOM     40  C   UNL     1       0.893  -4.959  -4.943  0.00  0.00    +0.195 A 
ATOM     41  O   UNL     1       0.197  -4.562  -3.865  0.00  0.00    -0.470 OA
ENDBRANCH  36  37
ENDBRANCH  27  36
ENDBRANCH   1  27
TORSDOF 8
