REMARK  Name = ZINC39634458
REMARK  5 active torsions:
REMARK  status: ('A' for Active; 'I' for Inactive)
REMARK    1  A    between atoms: C_1  and  C_2
REMARK    2  A    between atoms: C_5  and  C_8
REMARK    3  A    between atoms: C_8  and  N_9
REMARK    4  A    between atoms: C_10  and  C_12
REMARK    5  A    between atoms: C_23  and  C_25
REMARK                            x       y       z     vdW  Elec       q    Type
REMARK                         _______ _______ _______ _____ _____    ______ ____
ROOT
ATOM      1  C   UNL     1       3.137  -6.551  -0.051  0.00  0.00    +0.100 C 
ATOM      2  C   UNL     1       3.900  -6.003   1.176  0.00  0.00    +0.121 C 
ATOM      3  N   UNL     1       3.805  -7.081   2.188  0.00  0.00    -0.296 N 
ATOM      4  C   UNL     1       3.966  -8.333   1.411  0.00  0.00    +0.115 C 
ATOM      5  C   UNL     1       3.185  -8.081   0.105  0.00  0.00    -0.004 C 
ATOM      6  C   UNL     1       1.772  -8.645   0.219  0.00  0.00    -0.010 C 
ATOM      7  C   UNL     1       1.844 -10.171   0.316  0.00  0.00    -0.082 C 
ATOM      8  N   UNL     1       2.512 -10.709  -0.875  0.00  0.00    +0.379 N 
ATOM      9  C   UNL     1       3.901 -10.234  -0.927  0.00  0.00    -0.082 C 
ATOM     10  C   UNL     1       3.916  -8.710  -1.077  0.00  0.00    -0.010 C 
ATOM     11  C   UNL     1       3.615  -6.952   3.517  0.00  0.00    +0.252 C 
ATOM     12  O   UNL     1       3.559  -7.941   4.221  0.00  0.00    -0.270 OA
ATOM     13  H   UNL     1       2.504 -11.717  -0.838  0.00  0.00    -0.086 HD
ATOM     14  H   UNL     1       2.022 -10.401  -1.702  0.00  0.00    -0.086 HD
ENDROOT
BRANCH  11  15
ATOM     15  C   UNL     1       3.475  -5.611   4.115  0.00  0.00    +0.108 A 
ATOM     16  C   UNL     1       2.211  -5.024   4.239  0.00  0.00    +0.138 A 
ATOM     17  C   UNL     1       2.088  -3.768   4.802  0.00  0.00    +0.041 A 
ATOM     18  C   UNL     1       3.211  -3.089   5.240  0.00  0.00    +0.026 A 
ATOM     19  C   UNL     1       4.465  -3.661   5.121  0.00  0.00    +0.077 A 
ATOM     20  C   UNL     1       4.605  -4.921   4.566  0.00  0.00    +0.156 A 
ATOM     21  F   UNL     1       5.830  -5.480   4.456  0.00  0.00    -0.203 F 
ATOM     22 CL   UNL     1       5.866  -2.799   5.676  0.00  0.00    -0.081 Cl
ATOM     23  F   UNL     1       1.113  -5.685   3.811  0.00  0.00    -0.205 F 
ENDBRANCH  11  15
BRANCH   1  25
ATOM     24  N   UNL     1       1.041  -5.918  -1.200  0.00  0.00    -0.311 N 
ATOM     25  C   UNL     1       1.710  -6.067  -0.040  0.00  0.00    +0.218 C 
ATOM     26  O   UNL     1       1.164  -5.812   1.012  0.00  0.00    -0.275 OA
ATOM     27  H   UNL     1       1.477  -6.123  -2.042  0.00  0.00    +0.149 HD
BRANCH  24  28
ATOM     28  C   UNL     1      -0.347  -5.448  -1.190  0.00  0.00    +0.139 C 
BRANCH  28  33
ATOM     29  C   UNL     1      -2.321  -5.143  -6.613  0.00  0.00    +0.044 C 
ATOM     30  C   UNL     1      -1.806  -5.223  -5.199  0.00  0.00    -0.050 A 
ATOM     31  C   UNL     1      -1.952  -6.391  -4.475  0.00  0.00    +0.003 A 
ATOM     32  C   UNL     1      -1.480  -6.464  -3.178  0.00  0.00    +0.005 A 
ATOM     33  C   UNL     1      -0.861  -5.369  -2.605  0.00  0.00    -0.030 A 
ATOM     34  C   UNL     1      -0.714  -4.201  -3.329  0.00  0.00    +0.005 A 
ATOM     35  C   UNL     1      -1.182  -4.129  -4.628  0.00  0.00    +0.003 A 
ENDBRANCH  28  33
ENDBRANCH  24  28
ENDBRANCH   1  25
TORSDOF 4
