REMARK  Name = ZINC20920861
REMARK  12 active torsions:
REMARK  status: ('A' for Active; 'I' for Inactive)
REMARK    1  A    between atoms: C_1  and  C_2
REMARK    2  A    between atoms: C_2  and  C_3
REMARK    3  A    between atoms: C_2  and  N_4
REMARK    4  A    between atoms: C_6  and  C_9
REMARK    5  A    between atoms: N_10  and  N_11
REMARK    6  A    between atoms: C_15  and  S_18
REMARK    7  A    between atoms: N_16  and  N_17
REMARK    8  A    between atoms: S_18  and  C_19
REMARK    9  A    between atoms: C_19  and  C_20
REMARK   10  A    between atoms: C_26  and  S_28
REMARK   11  A    between atoms: S_28  and  C_29
REMARK   12  A    between atoms: C_29  and  C_30
REMARK                            x       y       z     vdW  Elec       q    Type
REMARK                         _______ _______ _______ _____ _____    ______ ____
ROOT
ATOM      1  N   UNL     1      -1.300 -10.461  -0.041  0.00  0.00    -0.204 N 
ATOM      2  C   UNL     1      -0.786  -9.172  -0.039  0.00  0.00    +0.254 A 
ATOM      3  N   UNL     1       0.485  -8.850  -0.050  0.00  0.00    -0.109 NA
ATOM      4  N   UNL     1       0.577  -7.452  -0.048  0.00  0.00    -0.119 NA
ATOM      5  C   UNL     1      -0.641  -6.966  -0.028  0.00  0.00    +0.210 A 
ATOM      6  N   UNL     1      -1.515  -8.016  -0.025  0.00  0.00    -0.211 N 
ATOM      7  H   UNL     1      -2.389 -10.618  -0.031  0.00  0.00    +0.177 HD
ENDROOT
BRANCH   6   8
ATOM      8  N   UNL     1      -2.878  -7.926  -0.011  0.00  0.00    -0.294 N 
ATOM      9  H   UNL     1      -3.364  -6.939  -0.001  0.00  0.00    +0.163 HD
ATOM     10  H   UNL     1      -3.489  -8.841  -0.009  0.00  0.00    +0.163 HD
ENDBRANCH   6   8
BRANCH   1  12
ATOM     11  C   UNL     1      -0.914 -12.766  -0.058  0.00  0.00    +0.141 C 
ATOM     12  N   UNL     1      -0.433 -11.561  -0.056  0.00  0.00    -0.187 NA
BRANCH  11  15
ATOM     13  N   UNL     1       0.766 -15.985  -0.093  0.00  0.00    -0.268 N 
ATOM     14  C   UNL     1      -0.367 -15.254  -0.077  0.00  0.00    +0.118 A 
ATOM     15  C   UNL     1      -0.001 -13.926  -0.073  0.00  0.00    +0.032 A 
ATOM     16  C   UNL     1       1.410 -13.880  -0.093  0.00  0.00    +0.143 A 
ATOM     17  N   UNL     1       1.856 -15.107  -0.099  0.00  0.00    -0.179 NA
BRANCH  13  19
ATOM     18  C   UNL     1       0.760 -17.972   1.332  0.00  0.00    +0.032 C 
ATOM     19  C   UNL     1       0.844 -17.447  -0.103  0.00  0.00    +0.101 C 
ATOM     20  C   UNL     1      -0.318 -18.014  -0.922  0.00  0.00    +0.032 C 
ENDBRANCH  13  19
ENDBRANCH  11  15
ENDBRANCH   1  12
BRANCH   5  21
ATOM     21  S   UNL     1      -1.074  -5.258  -0.015  0.00  0.00    -0.075 S 
BRANCH  21  22
ATOM     22  C   UNL     1       0.524  -4.400  -0.026  0.00  0.00    +0.173 C 
BRANCH  22  23
ATOM     23  C   UNL     1       0.294  -2.910  -0.016  0.00  0.00    +0.229 C 
ATOM     24  O   UNL     1      -0.836  -2.471  -0.003  0.00  0.00    -0.275 OA
ATOM     25  N   UNL     1       1.345  -2.067  -0.021  0.00  0.00    -0.263 N 
ATOM     26  C   UNL     1       1.133  -0.690  -0.013  0.00  0.00    +0.189 A 
ATOM     27  N   UNL     1       0.002  -0.004   0.002  0.00  0.00    -0.125 NA
ATOM     28  N   UNL     1      -0.015   1.257   0.009  0.00  0.00    -0.133 NA
ATOM     29  C   UNL     1       1.100   1.973   0.002  0.00  0.00    +0.160 A 
ATOM     30  S   UNL     1       2.314   0.656  -0.017  0.00  0.00    -0.024 S 
ATOM     31  H   UNL     1       2.370  -2.465  -0.033  0.00  0.00    +0.157 HD
BRANCH  29  32
ATOM     32  S   UNL     1       1.324   3.720   0.009  0.00  0.00    -0.093 S 
BRANCH  32  33
ATOM     33  C   UNL     1      -0.365   4.380   0.028  0.00  0.00    +0.103 C 
BRANCH  33  34
ATOM     34  C   UNL     1      -0.317   5.886   0.035  0.00  0.00    -0.023 C 
ATOM     35  C   UNL     1      -0.785   6.561  -0.985  0.00  0.00    +0.005 C 
ENDBRANCH  33  34
ENDBRANCH  32  33
ENDBRANCH  29  32
ENDBRANCH  22  23
ENDBRANCH  21  22
ENDBRANCH   5  21
TORSDOF 10
