REMARK  Name = ZINC62833512
REMARK  10 active torsions:
REMARK  status: ('A' for Active; 'I' for Inactive)
REMARK    1  A    between atoms: C_1  and  C_2
REMARK    2  A    between atoms: C_2  and  C_4
REMARK    3  A    between atoms: C_2  and  N_10
REMARK    4  A    between atoms: N_6  and  C_7
REMARK    5  A    between atoms: C_7  and  C_8
REMARK    6  A    between atoms: C_7  and  C_9
REMARK    7  A    between atoms: N_10  and  C_11
REMARK    8  A    between atoms: N_10  and  C_12
REMARK    9  A    between atoms: C_15  and  C_19
REMARK   10  A    between atoms: C_17  and  N_18
REMARK                            x       y       z     vdW  Elec       q    Type
REMARK                         _______ _______ _______ _____ _____    ______ ____
ROOT
ATOM      1  C   UNL     1       1.852  -1.273   1.046  0.00  0.00    +0.051 A 
ATOM      2  C   UNL     1       3.103  -0.671   0.979  0.00  0.00    +0.026 A 
ATOM      3  C   UNL     1       4.235  -1.442   0.838  0.00  0.00    +0.017 A 
ATOM      4  C   UNL     1       4.129  -2.835   0.761  0.00  0.00    +0.065 A 
ATOM      5  C   UNL     1       2.869  -3.443   0.828  0.00  0.00    +0.039 A 
ATOM      6  C   UNL     1       1.738  -2.665   0.976  0.00  0.00    +0.047 A 
ENDROOT
BRANCH   6   7
ATOM      7  N   UNL     1       0.477  -3.270   1.049  0.00  0.00    -0.357 N 
ATOM      8  H   UNL     1      -0.318  -2.723   1.148  0.00  0.00    +0.142 HD
ATOM      9  H   UNL     1       0.398  -4.235   1.000  0.00  0.00    +0.142 HD
ENDBRANCH   6   7
BRANCH   4  10
ATOM     10  C   UNL     1       5.338  -3.660   0.609  0.00  0.00    +0.387 C 
ATOM     11  O   UNL     1       6.438  -3.127   0.550  0.00  0.00    -0.241 OA
ATOM     12  O   UNL     1       5.243  -4.878   0.541  0.00  0.00    -0.241 OA
ENDBRANCH   4  10
BRANCH   1  13
ATOM     13  N   UNL     1       0.711  -0.489   1.189  0.00  0.00    -0.320 N 
ATOM     14  C   UNL     1       0.218  -0.149   2.526  0.00  0.00    +0.130 C 
BRANCH  13  16
ATOM     15  C   UNL     1      -0.019   1.526   0.010  0.00  0.00    +0.038 C 
ATOM     16  C   UNL     1       0.002  -0.004   0.002  0.00  0.00    +0.156 C 
BRANCH  16  17
ATOM     17  C   UNL     1      -1.412  -0.526   0.013  0.00  0.00    +0.233 C 
ATOM     18  O   UNL     1      -1.790  -1.233   0.922  0.00  0.00    -0.274 OA
ATOM     19  N   UNL     1      -2.256  -0.206  -0.988  0.00  0.00    -0.311 N 
ATOM     20  H   UNL     1      -1.953   0.360  -1.716  0.00  0.00    +0.149 HD
BRANCH  19  21
ATOM     21  C   UNL     1      -3.630  -0.713  -0.978  0.00  0.00    +0.067 C 
ATOM     22  C   UNL     1      -4.509   0.214  -0.137  0.00  0.00    +0.027 C 
ATOM     23  C   UNL     1      -4.166  -0.764  -2.410  0.00  0.00    +0.027 C 
ENDBRANCH  19  21
ENDBRANCH  16  17
ENDBRANCH  13  16
ENDBRANCH   1  13
TORSDOF 6
