REMARK  Name = ZINC24906286
REMARK  9 active torsions:
REMARK  status: ('A' for Active; 'I' for Inactive)
REMARK    1  A    between atoms: C_1  and  C_2
REMARK    2  A    between atoms: C_7  and  N_12
REMARK    3  A    between atoms: C_9  and  C_11
REMARK    4  A    between atoms: C_22  and  S_23
REMARK    5  A    between atoms: S_23  and  C_24
REMARK    6  A    between atoms: C_24  and  C_26
REMARK    7  A    between atoms: C_24  and  C_27
REMARK    8  A    between atoms: N_33  and  C_34
REMARK    9  A    between atoms: N_33  and  C_35
REMARK                            x       y       z     vdW  Elec       q    Type
REMARK                         _______ _______ _______ _____ _____    ______ ____
ROOT
ATOM      1  N   UNL     1      -4.160   8.833  -1.851  0.00  0.00    -0.284 N 
ATOM      2  C   UNL     1      -3.474   9.934  -2.234  0.00  0.00    +0.263 A 
ATOM      3  O   UNL     1      -3.656  10.444  -3.324  0.00  0.00    -0.267 OA
ATOM      4  C   UNL     1      -2.500  10.491  -1.285  0.00  0.00    +0.065 A 
ATOM      5  C   UNL     1      -1.744  11.623  -1.585  0.00  0.00    +0.015 A 
ATOM      6  C   UNL     1      -0.851  12.100  -0.665  0.00  0.00    +0.001 A 
ATOM      7  C   UNL     1      -0.692  11.470   0.562  0.00  0.00    +0.002 A 
ATOM      8  C   UNL     1      -1.421  10.359   0.882  0.00  0.00    +0.028 A 
ATOM      9  C   UNL     1      -2.341   9.847  -0.037  0.00  0.00    +0.079 A 
ATOM     10  N   UNL     1      -3.084   8.757   0.240  0.00  0.00    -0.223 NA
ATOM     11  C   UNL     1      -3.943   8.274  -0.623  0.00  0.00    +0.173 A 
ENDROOT
BRANCH   1  17
ATOM     12  C   UNL     1      -4.715   6.102  -5.934  0.00  0.00    +0.008 C 
ATOM     13  C   UNL     1      -5.442   6.857  -4.820  0.00  0.00    -0.009 C 
ATOM     14  C   UNL     1      -6.307   7.960  -5.432  0.00  0.00    +0.004 C 
ATOM     15  C   UNL     1      -7.035   8.715  -4.318  0.00  0.00    +0.002 C 
ATOM     16  C   UNL     1      -6.008   9.339  -3.370  0.00  0.00    +0.025 C 
ATOM     17  C   UNL     1      -5.143   8.236  -2.758  0.00  0.00    +0.096 C 
ATOM     18  C   UNL     1      -4.416   7.480  -3.872  0.00  0.00    +0.012 C 
ATOM     19  C   UNL     1      -3.527   8.452  -4.651  0.00  0.00    +0.010 C 
ENDBRANCH   1  17
BRANCH  11  20
ATOM     20  S   UNL     1      -4.866   6.841  -0.178  0.00  0.00    -0.077 S 
BRANCH  20  21
ATOM     21  C   UNL     1      -4.202   6.541   1.479  0.00  0.00    +0.119 C 
ATOM     22  C   UNL     1      -4.583   7.703   2.399  0.00  0.00    +0.028 C 
BRANCH  21  23
ATOM     23  C   UNL     1      -4.774   5.259   2.025  0.00  0.00    +0.149 A 
ATOM     24  N   UNL     1      -6.066   5.009   1.904  0.00  0.00    -0.198 NA
ATOM     25  C   UNL     1      -6.575   3.877   2.385  0.00  0.00    +0.217 A 
ATOM     26  N   UNL     1      -5.782   2.997   2.988  0.00  0.00    -0.181 NA
ATOM     27  C   UNL     1      -4.483   3.252   3.108  0.00  0.00    +0.222 A 
ATOM     28  N   UNL     1      -3.983   4.389   2.628  0.00  0.00    -0.198 NA
ATOM     29  N   UNL     1      -3.656   2.342   3.733  0.00  0.00    -0.306 N 
ATOM     30  C   UNL     1      -4.209   1.094   4.265  0.00  0.00    +0.132 C 
ATOM     31  C   UNL     1      -2.223   2.621   3.860  0.00  0.00    +0.132 C 
ATOM     32  N   UNL     1      -7.924   3.617   2.258  0.00  0.00    -0.327 N 
ATOM     33  H   UNL     1      -8.344   2.681   2.656  0.00  0.00    +0.145 HD
ATOM     34  H   UNL     1      -8.580   4.346   1.760  0.00  0.00    +0.145 HD
ENDBRANCH  21  23
ENDBRANCH  20  21
ENDBRANCH  11  20
TORSDOF 4
