REMARK  Name = ZINC03324276
REMARK  14 active torsions:
REMARK  status: ('A' for Active; 'I' for Inactive)
REMARK    1  A    between atoms: C_1  and  C_2
REMARK    2  A    between atoms: C_2  and  C_3
REMARK    3  A    between atoms: C_3  and  C_4
REMARK    4  A    between atoms: C_4  and  N_5
REMARK    5  A    between atoms: C_6  and  N_36
REMARK    6  A    between atoms: C_7  and  N_14
REMARK    7  A    between atoms: N_14  and  C_15
REMARK    8  A    between atoms: C_15  and  C_16
REMARK    9  A    between atoms: C_16  and  C_17
REMARK   10  A    between atoms: C_16  and  C_18
REMARK   11  A    between atoms: C_19  and  C_21
REMARK   12  A    between atoms: C_21  and  O_22
REMARK   13  A    between atoms: O_22  and  C_23
REMARK   14  A    between atoms: C_23  and  C_25
REMARK                            x       y       z     vdW  Elec       q    Type
REMARK                         _______ _______ _______ _____ _____    ______ ____
ROOT
ATOM      1  N   UNL     1      -0.108  -2.826  -2.217  0.00  0.00    -0.261 N 
ATOM      2  C   UNL     1      -0.077  -1.980  -3.268  0.00  0.00    +0.258 C 
ATOM      3  O   UNL     1      -0.322  -0.803  -3.106  0.00  0.00    -0.272 OA
ENDROOT
BRANCH   1   6
ATOM      4  N   UNL     1       0.369  -1.008   0.940  0.00  0.00    -0.280 N 
ATOM      5  C   UNL     1       0.599  -1.475  -0.334  0.00  0.00    +0.127 A 
ATOM      6  C   UNL     1      -0.318  -2.326  -0.915  0.00  0.00    +0.140 A 
ATOM      7  C   UNL     1      -1.470  -2.683  -0.188  0.00  0.00    +0.277 A 
ATOM      8  O   UNL     1      -2.299  -3.430  -0.679  0.00  0.00    -0.266 OA
ATOM      9  N   UNL     1      -1.650  -2.193   1.054  0.00  0.00    -0.273 N 
ATOM     10  H   UNL     1      -2.467  -2.446   1.572  0.00  0.00    +0.173 HD
ATOM     11  C   UNL     1      -0.742  -1.369   1.607  0.00  0.00    +0.331 A 
ATOM     12  O   UNL     1      -0.929  -0.941   2.730  0.00  0.00    -0.246 OA
BRANCH   5  13
ATOM     13  N   UNL     1       1.732  -1.102  -1.017  0.00  0.00    -0.343 N 
ATOM     14  H   UNL     1       2.407  -0.562  -0.578  0.00  0.00    +0.144 HD
ATOM     15  H   UNL     1       1.855  -1.379  -1.938  0.00  0.00    +0.144 HD
ENDBRANCH   5  13
BRANCH   4  16
ATOM     16  C   UNL     1       1.337  -0.107   1.571  0.00  0.00    +0.128 C 
BRANCH  16  17
ATOM     17  C   UNL     1       2.373  -0.929   2.340  0.00  0.00    +0.021 C 
BRANCH  17  19
ATOM     18  C   UNL     1       4.419  -0.811   3.768  0.00  0.00    +0.004 C 
ATOM     19  C   UNL     1       3.383   0.011   2.999  0.00  0.00    -0.002 C 
ENDBRANCH  17  19
ENDBRANCH  16  17
ENDBRANCH   4  16
ENDBRANCH   1   6
BRANCH   1  20
ATOM     20  C   UNL     1       0.076  -4.264  -2.429  0.00  0.00    +0.117 C 
BRANCH  20  21
ATOM     21  C   UNL     1       1.570  -4.593  -2.423  0.00  0.00    +0.001 C 
ATOM     22  C   UNL     1       2.142  -4.340  -1.027  0.00  0.00    +0.009 C 
ATOM     23  C   UNL     1       1.770  -6.064  -2.796  0.00  0.00    +0.009 C 
ENDBRANCH  20  21
ENDBRANCH   1  20
BRANCH   2  24
ATOM     24  C   UNL     1       0.261  -2.498  -4.642  0.00  0.00    +0.328 C 
BRANCH  24  25
ATOM     25  O   UNL     1       0.352  -1.384  -5.570  0.00  0.00    -0.453 OA
BRANCH  25  26
ATOM     26  C   UNL     1       0.648  -1.677  -6.846  0.00  0.00    +0.352 C 
ATOM     27  O   UNL     1       0.827  -2.825  -7.177  0.00  0.00    -0.247 OA
BRANCH  26  28
ATOM     28  C   UNL     1       0.759  -0.573  -7.866  0.00  0.00    +0.318 C 
ATOM     29  C   UNL     1       1.961   0.321  -7.532  0.00  0.00    +0.285 C 
ATOM     30  O   UNL     1       2.044   1.349  -8.526  0.00  0.00    -0.484 OA
ATOM     31  C   UNL     1       1.921   0.956  -9.823  0.00  0.00    +0.162 A 
ATOM     32  C   UNL     1       2.340   1.807 -10.835  0.00  0.00    +0.049 A 
ATOM     33  C   UNL     1       2.218   1.424 -12.157  0.00  0.00    +0.004 A 
ATOM     34  C   UNL     1       1.677   0.192 -12.475  0.00  0.00    +0.004 A 
ATOM     35  C   UNL     1       1.258  -0.661 -11.472  0.00  0.00    +0.049 A 
ATOM     36  C   UNL     1       1.379  -0.283 -10.143  0.00  0.00    +0.163 A 
ATOM     37  O   UNL     1       0.966  -1.136  -9.166  0.00  0.00    -0.471 OA
ENDBRANCH  26  28
ENDBRANCH  25  26
ENDBRANCH  24  25
ENDBRANCH   2  24
TORSDOF 11
