REMARK  Name = ZINC29413007
REMARK  10 active torsions:
REMARK  status: ('A' for Active; 'I' for Inactive)
REMARK    1  A    between atoms: C_1  and  C_2
REMARK    2  A    between atoms: C_5  and  N_22
REMARK    3  A    between atoms: N_8  and  C_9
REMARK    4  A    between atoms: C_9  and  C_10
REMARK    5  A    between atoms: N_12  and  C_13
REMARK    6  A    between atoms: C_13  and  C_14
REMARK    7  A    between atoms: C_19  and  C_20
REMARK    8  A    between atoms: N_22  and  S_23
REMARK    9  A    between atoms: S_23  and  C_26
REMARK   10  A    between atoms: C_26  and  C_27
REMARK                            x       y       z     vdW  Elec       q    Type
REMARK                         _______ _______ _______ _____ _____    ______ ____
ROOT
ATOM      1  C   UNL     1      -0.018   1.503   0.010  0.00  0.00    +0.063 C 
ATOM      2  C   UNL     1       0.002  -0.004   0.002  0.00  0.00    +0.020 A 
ATOM      3  C   UNL     1       0.005  -0.665  -1.177  0.00  0.00    +0.023 A 
ATOM      4  C   UNL     1       0.025  -2.068  -1.196  0.00  0.00    +0.031 A 
ATOM      5  C   UNL     1       0.040  -2.752  -0.012  0.00  0.00    +0.112 A 
ATOM      6  C   UNL     1       0.036  -2.029   1.201  0.00  0.00    +0.274 A 
ATOM      7  O   UNL     1       0.050  -2.623   2.267  0.00  0.00    -0.266 OA
ATOM      8  N   UNL     1       0.022  -0.682   1.181  0.00  0.00    -0.302 N 
ENDROOT
BRANCH   5   9
ATOM      9  N   UNL     1       0.058  -4.152  -0.002  0.00  0.00    -0.215 N 
ATOM     10  H   UNL     1       0.069  -4.631   0.841  0.00  0.00    +0.173 HD
BRANCH   9  11
ATOM     11  S   UNL     1       0.062  -4.990  -1.431  0.00  0.00    +0.047 S 
ATOM     12  O   UNL     1       0.058  -6.358  -1.048  0.00  0.00    -0.155 OA
ATOM     13  O   UNL     1      -1.017  -4.442  -2.175  0.00  0.00    -0.155 OA
BRANCH  11  14
ATOM     14  C   UNL     1       1.641  -4.565  -2.216  0.00  0.00    +0.223 C 
BRANCH  14  15
ATOM     15  C   UNL     1       1.753  -5.280  -3.538  0.00  0.00    -0.025 A 
ATOM     16  C   UNL     1       2.320  -6.539  -3.597  0.00  0.00    +0.007 A 
ATOM     17  C   UNL     1       2.423  -7.195  -4.809  0.00  0.00    +0.020 A 
ATOM     18  C   UNL     1       1.958  -6.591  -5.964  0.00  0.00    +0.041 A 
ATOM     19  C   UNL     1       1.390  -5.331  -5.904  0.00  0.00    +0.020 A 
ATOM     20  C   UNL     1       1.283  -4.678  -4.691  0.00  0.00    +0.007 A 
ATOM     21 CL   UNL     1       2.087  -7.415  -7.487  0.00  0.00    -0.084 Cl
ENDBRANCH  14  15
ENDBRANCH  11  14
ENDBRANCH   9  11
ENDBRANCH   5   9
BRANCH   8  22
ATOM     22  C   UNL     1       0.024   0.061   2.444  0.00  0.00    +0.220 C 
BRANCH  22  23
ATOM     23  C   UNL     1      -1.396   0.297   2.890  0.00  0.00    +0.233 C 
ATOM     24  O   UNL     1      -2.318  -0.116   2.220  0.00  0.00    -0.274 OA
ATOM     25  N   UNL     1      -1.640   0.966   4.034  0.00  0.00    -0.310 N 
ATOM     26  H   UNL     1      -0.902   1.295   4.570  0.00  0.00    +0.149 HD
BRANCH  25  27
ATOM     27  C   UNL     1      -3.021   1.194   4.468  0.00  0.00    +0.141 C 
BRANCH  27  28
ATOM     28  C   UNL     1      -3.019   1.959   5.767  0.00  0.00    -0.011 A 
ATOM     29  C   UNL     1      -3.201   1.294   6.972  0.00  0.00    +0.010 A 
ATOM     30  C   UNL     1      -3.192   2.033   8.142  0.00  0.00    +0.041 A 
ATOM     31  C   UNL     1      -3.003   3.409   8.071  0.00  0.00    +0.094 A 
ATOM     32  N   UNL     1      -2.833   4.007   6.901  0.00  0.00    -0.347 N 
ATOM     33  C   UNL     1      -2.830   3.326   5.771  0.00  0.00    +0.019 A 
ATOM     34  C   UNL     1      -2.626   4.052   4.466  0.00  0.00    +0.063 C 
ATOM     35  N   UNL     1      -2.993   4.164   9.238  0.00  0.00    -0.345 N 
ATOM     36  H   UNL     1      -3.117   3.731  10.097  0.00  0.00    +0.144 HD
ATOM     37  H   UNL     1      -2.861   5.124   9.193  0.00  0.00    +0.144 HD
ATOM     38  H   UNL     1      -2.703   4.968   6.876  0.00  0.00    +0.167 HD
ENDBRANCH  27  28
ENDBRANCH  25  27
ENDBRANCH  22  23
ENDBRANCH   8  22
TORSDOF 8
