REMARK  Name = ZINC40475625
REMARK  1 active torsions:
REMARK  status: ('A' for Active; 'I' for Inactive)
REMARK    1  A    between atoms: C_3  and  C_6
REMARK                            x       y       z     vdW  Elec       q    Type
REMARK                         _______ _______ _______ _____ _____    ______ ____
ROOT
ATOM      1  C   UNL     1       3.761   1.845  -0.024  0.00  0.00    +0.079 C 
ATOM      2  C   UNL     1       4.492   1.334   1.182  0.00  0.00    +0.033 A 
ATOM      3  C   UNL     1       5.771   0.866   1.291  0.00  0.00    +0.110 A 
ATOM      4  N   UNL     1       6.115   0.454   2.510  0.00  0.00    -0.225 NA
ATOM      5  C   UNL     1       5.282   0.521   3.527  0.00  0.00    +0.147 A 
ATOM      6  S   UNL     1       5.555   0.034   5.198  0.00  0.00    -0.023 SA
ATOM      7  S   UNL     1       3.892   1.184   2.845  0.00  0.00    -0.063 S 
ATOM      8  S   UNL     1       6.862   0.844  -0.124  0.00  0.00    -0.091 S 
ATOM      9  C   UNL     1       5.927   1.901  -1.260  0.00  0.00    +0.153 C 
ATOM     10  C   UNL     1       4.471   1.344  -1.255  0.00  0.00    +0.112 C 
ATOM     11  C   UNL     1       4.005   1.764  -2.610  0.00  0.00    +0.245 C 
ATOM     12  O   UNL     1       2.736   1.994  -2.983  0.00  0.00    -0.273 OA
ATOM     13  N   UNL     1       5.078   1.867  -3.372  0.00  0.00    -0.145 NA
ATOM     14  C   UNL     1       6.260   1.715  -2.716  0.00  0.00    +0.253 C 
ATOM     15  O   UNL     1       7.350   1.476  -3.195  0.00  0.00    -0.272 OA
ENDROOT
BRANCH   1  18
ATOM     16  C   UNL     1      -0.016   1.351   0.009  0.00  0.00    +0.008 A 
ATOM     17  C   UNL     1       1.183   2.038   0.002  0.00  0.00    +0.012 A 
ATOM     18  C   UNL     1       2.343   1.336  -0.013  0.00  0.00    -0.001 A 
ATOM     19  S   UNL     1       1.754  -0.349  -0.017  0.00  0.00    -0.101 S 
ATOM     20  C   UNL     1       0.002  -0.004   0.002  0.00  0.00    +0.045 A 
ENDBRANCH   1  18
TORSDOF 1
