REMARK  Name = ZINC40657460
REMARK  9 active torsions:
REMARK  status: ('A' for Active; 'I' for Inactive)
REMARK    1  A    between atoms: C_1  and  C_2
REMARK    2  A    between atoms: C_5  and  C_8
REMARK    3  A    between atoms: N_10  and  N_11
REMARK    4  A    between atoms: C_13  and  N_35
REMARK    5  A    between atoms: C_14  and  N_18
REMARK    6  A    between atoms: N_18  and  N_19
REMARK    7  A    between atoms: C_20  and  C_22
REMARK    8  A    between atoms: C_22  and  C_23
REMARK    9  A    between atoms: C_22  and  C_29
REMARK                            x       y       z     vdW  Elec       q    Type
REMARK                         _______ _______ _______ _____ _____    ______ ____
ROOT
ATOM      1  N   UNL     1       0.361  -6.788   0.578  0.00  0.00    -0.246 N 
ATOM      2  C   UNL     1       0.329  -7.384   1.829  0.00  0.00    +0.171 A 
ATOM      3  C   UNL     1       0.330  -8.770   1.950  0.00  0.00    +0.208 A 
ATOM      4  C   UNL     1       0.296  -9.320   3.228  0.00  0.00    +0.171 A 
ATOM      5  N   UNL     1       0.266  -8.505   4.282  0.00  0.00    -0.217 NA
ATOM      6  C   UNL     1       0.266  -7.197   4.125  0.00  0.00    +0.225 A 
ATOM      7  N   UNL     1       0.302  -6.638   2.932  0.00  0.00    -0.217 NA
ATOM      8  H   UNL     1       0.381  -7.338  -0.221  0.00  0.00    +0.172 HD
ENDROOT
BRANCH   1  11
ATOM      9  C   UNL     1       0.398  -4.812  -0.749  0.00  0.00    +0.260 C 
ATOM     10  O   UNL     1       0.422  -5.501  -1.750  0.00  0.00    -0.269 OA
ATOM     11  N   UNL     1       0.366  -5.391   0.467  0.00  0.00    -0.231 N 
ATOM     12  H   UNL     1       0.347  -4.841   1.266  0.00  0.00    +0.173 HD
BRANCH   9  17
ATOM     13  C   UNL     1       0.416   0.925  -1.203  0.00  0.00    +0.044 C 
ATOM     14  C   UNL     1       0.412  -0.577  -1.085  0.00  0.00    -0.050 A 
ATOM     15  C   UNL     1       0.440  -1.359  -2.226  0.00  0.00    +0.004 A 
ATOM     16  C   UNL     1       0.436  -2.734  -2.124  0.00  0.00    +0.013 A 
ATOM     17  C   UNL     1       0.403  -3.338  -0.866  0.00  0.00    +0.038 A 
ATOM     18  C   UNL     1       0.375  -2.544   0.282  0.00  0.00    +0.013 A 
ATOM     19  C   UNL     1       0.385  -1.169   0.166  0.00  0.00    +0.004 A 
ENDBRANCH   9  17
ENDBRANCH   1  11
BRANCH   3  20
ATOM     20  N   UNL     1       0.364  -9.638   0.752  0.00  0.00    +0.063 N 
ATOM     21  O   UNL     1       1.425  -9.989   0.290  0.00  0.00    -0.126 OA
ATOM     22  O   UNL     1      -0.668  -9.995   0.234  0.00  0.00    -0.126 OA
ENDBRANCH   3  20
BRANCH   4  23
ATOM     23  N   UNL     1       0.295 -10.695   3.403  0.00  0.00    -0.246 N 
ATOM     24  H   UNL     1       0.318 -11.282   2.631  0.00  0.00    +0.172 HD
BRANCH  23  25
ATOM     25  N   UNL     1       0.262 -11.237   4.694  0.00  0.00    -0.235 N 
ATOM     26  C   UNL     1       0.261 -12.574   4.864  0.00  0.00    +0.241 C 
ATOM     27  O   UNL     1       0.289 -13.308   3.899  0.00  0.00    -0.273 OA
ATOM     28  H   UNL     1       0.240 -10.650   5.466  0.00  0.00    +0.173 HD
BRANCH  26  29
ATOM     29  C   UNL     1       0.225 -13.157   6.253  0.00  0.00    +0.136 C 
BRANCH  29  30
ATOM     30  C   UNL     1       0.231 -14.662   6.166  0.00  0.00    -0.031 A 
ATOM     31  C   UNL     1      -0.756 -15.395   6.798  0.00  0.00    +0.005 A 
ATOM     32  C   UNL     1      -0.751 -16.775   6.718  0.00  0.00    +0.000 A 
ATOM     33  C   UNL     1       0.242 -17.422   6.007  0.00  0.00    +0.000 A 
ATOM     34  C   UNL     1       1.229 -16.689   5.375  0.00  0.00    +0.000 A 
ATOM     35  C   UNL     1       1.221 -15.309   5.451  0.00  0.00    +0.005 A 
ENDBRANCH  29  30
BRANCH  29  36
ATOM     36  C   UNL     1       1.434 -12.694   7.024  0.00  0.00    -0.031 A 
ATOM     37  C   UNL     1       2.697 -12.834   6.479  0.00  0.00    +0.005 A 
ATOM     38  C   UNL     1       3.806 -12.409   7.187  0.00  0.00    +0.000 A 
ATOM     39  C   UNL     1       3.652 -11.842   8.438  0.00  0.00    +0.000 A 
ATOM     40  C   UNL     1       2.389 -11.701   8.982  0.00  0.00    +0.000 A 
ATOM     41  C   UNL     1       1.280 -12.122   8.273  0.00  0.00    +0.005 A 
ENDBRANCH  29  36
ENDBRANCH  26  29
ENDBRANCH  23  25
ENDBRANCH   4  23
TORSDOF 8
