REMARK  Name = ZINC38547667
REMARK  12 active torsions:
REMARK  status: ('A' for Active; 'I' for Inactive)
REMARK    1  A    between atoms: C_1  and  C_2
REMARK    2  A    between atoms: N_8  and  C_9
REMARK    3  A    between atoms: C_9  and  C_11
REMARK    4  A    between atoms: C_9  and  C_21
REMARK    5  A    between atoms: C_14  and  O_19
REMARK    6  A    between atoms: C_15  and  O_17
REMARK    7  A    between atoms: O_17  and  C_18
REMARK    8  A    between atoms: O_19  and  C_20
REMARK    9  A    between atoms: C_22  and  C_35
REMARK   10  A    between atoms: C_23  and  C_34
REMARK   11  A    between atoms: C_25  and  N_26
REMARK   12  A    between atoms: C_27  and  C_29
REMARK                            x       y       z     vdW  Elec       q    Type
REMARK                         _______ _______ _______ _____ _____    ______ ____
ROOT
ATOM      1  C   UNL     1      -0.095  -2.026   3.580  0.00  0.00    +0.135 C 
ENDROOT
BRANCH   1   9
ATOM      2  C   UNL     1      -2.590  -6.424   4.425  0.00  0.00    +0.044 C 
ATOM      3  C   UNL     1      -1.861  -5.819   3.253  0.00  0.00    -0.046 A 
ATOM      4  C   UNL     1      -1.730  -6.518   2.061  0.00  0.00    +0.021 A 
ATOM      5  C   UNL     1      -1.057  -5.936   1.006  0.00  0.00    +0.084 A 
ATOM      6  N   UNL     1      -0.539  -4.727   1.118  0.00  0.00    -0.350 N 
ATOM      7  C   UNL     1      -0.642  -4.029   2.238  0.00  0.00    +0.097 A 
ATOM      8  C   UNL     1      -1.313  -4.552   3.339  0.00  0.00    +0.045 A 
ATOM      9  N   UNL     1      -0.081  -2.759   2.312  0.00  0.00    -0.320 N 
ATOM     10  H   UNL     1       0.320  -2.359   1.525  0.00  0.00    +0.148 HD
ATOM     11  H   UNL     1      -0.070  -4.341   0.361  0.00  0.00    +0.166 HD
ENDBRANCH   1   9
BRANCH   1  12
ATOM     12  C   UNL     1      -1.447  -1.391   3.779  0.00  0.00    +0.009 A 
ATOM     13  C   UNL     1      -2.057  -1.408   5.020  0.00  0.00    -0.033 A 
ATOM     14  C   UNL     1      -3.273  -0.828   5.164  0.00  0.00    -0.008 A 
ATOM     15  S   UNL     1      -3.597  -0.227   3.514  0.00  0.00    -0.078 S 
ATOM     16  C   UNL     1      -2.087  -0.784   2.741  0.00  0.00    +0.078 A 
ATOM     17  C   UNL     1      -4.131  -0.719   6.398  0.00  0.00    +0.052 C 
ATOM     18  C   UNL     1      -1.380  -2.065   6.195  0.00  0.00    +0.045 C 
BRANCH  16  19
ATOM     19  N   UNL     1      -1.672  -0.638   1.416  0.00  0.00    -0.273 N 
ATOM     20  C   UNL     1      -2.401   0.105   0.559  0.00  0.00    +0.284 C 
ATOM     21  O   UNL     1      -3.370   0.722   0.961  0.00  0.00    -0.266 OA
ATOM     22  H   UNL     1      -0.859  -1.071   1.111  0.00  0.00    +0.156 HD
BRANCH  20  23
ATOM     23  C   UNL     1      -2.026   0.171  -0.857  0.00  0.00    +0.189 A 
ATOM     24  C   UNL     1      -2.612   0.958  -1.807  0.00  0.00    +0.054 A 
ATOM     25  C   UNL     1      -1.941   0.702  -3.013  0.00  0.00    +0.042 A 
ATOM     26  C   UNL     1      -0.987  -0.218  -2.750  0.00  0.00    +0.196 A 
ATOM     27  O   UNL     1      -1.038  -0.532  -1.448  0.00  0.00    -0.458 OA
ENDBRANCH  20  23
ENDBRANCH  16  19
ENDBRANCH   1  12
BRANCH   1  28
ATOM     28  C   UNL     1       0.964  -0.954   3.552  0.00  0.00    -0.019 A 
ATOM     29  C   UNL     1       1.241  -0.289   2.372  0.00  0.00    +0.009 A 
ATOM     30  C   UNL     1       2.211   0.695   2.341  0.00  0.00    +0.050 A 
ATOM     31  C   UNL     1       2.909   1.017   3.494  0.00  0.00    +0.162 A 
ATOM     32  C   UNL     1       2.630   0.348   4.681  0.00  0.00    +0.162 A 
ATOM     33  C   UNL     1       1.653  -0.634   4.707  0.00  0.00    +0.055 A 
BRANCH  32  34
ATOM     34  O   UNL     1       3.312   0.661   5.816  0.00  0.00    -0.491 OA
ATOM     35  C   UNL     1       2.973  -0.067   6.998  0.00  0.00    +0.277 C 
ENDBRANCH  32  34
BRANCH  31  36
ATOM     36  O   UNL     1       3.864   1.985   3.465  0.00  0.00    -0.491 OA
ATOM     37  C   UNL     1       4.097   2.629   2.210  0.00  0.00    +0.277 C 
ENDBRANCH  31  36
ENDBRANCH   1  28
TORSDOF 7
