REMARK  Name = ZINC32916338
REMARK  15 active torsions:
REMARK  status: ('A' for Active; 'I' for Inactive)
REMARK    1  A    between atoms: C_1  and  C_2
REMARK    2  A    between atoms: C_2  and  C_3
REMARK    3  A    between atoms: C_3  and  C_4
REMARK    4  A    between atoms: C_4  and  N_5
REMARK    5  A    between atoms: N_5  and  C_6
REMARK    6  A    between atoms: C_7  and  N_18
REMARK    7  A    between atoms: N_8  and  C_15
REMARK    8  A    between atoms: C_15  and  C_16
REMARK    9  A    between atoms: C_16  and  C_17
REMARK   10  A    between atoms: C_19  and  C_21
REMARK   11  A    between atoms: C_21  and  N_22
REMARK   12  A    between atoms: C_26  and  C_29
REMARK   13  A    between atoms: C_29  and  N_30
REMARK   14  A    between atoms: N_30  and  S_31
REMARK   15  A    between atoms: S_31  and  C_34
REMARK                            x       y       z     vdW  Elec       q    Type
REMARK                         _______ _______ _______ _____ _____    ______ ____
ROOT
ATOM      1  N   UNL     1       4.464   4.347   0.896  0.00  0.00    -0.266 N 
ATOM      2  C   UNL     1       3.324   3.708   1.232  0.00  0.00    +0.203 C 
ATOM      3  O   UNL     1       2.266   4.302   1.208  0.00  0.00    -0.277 OA
ENDROOT
BRANCH   1   4
ATOM      4  C   UNL     1       4.444   5.731   0.625  0.00  0.00    +0.140 A 
ATOM      5  C   UNL     1       3.720   6.228  -0.440  0.00  0.00    +0.127 A 
ATOM      6  N   UNL     1       3.719   7.582  -0.678  0.00  0.00    -0.280 N 
ATOM      7  C   UNL     1       4.416   8.414   0.118  0.00  0.00    +0.331 A 
ATOM      8  O   UNL     1       4.403   9.608  -0.110  0.00  0.00    -0.246 OA
ATOM      9  N   UNL     1       5.127   7.948   1.160  0.00  0.00    -0.273 N 
ATOM     10  H   UNL     1       5.693   8.646   1.795  0.00  0.00    +0.173 HD
ATOM     11  C   UNL     1       5.156   6.631   1.441  0.00  0.00    +0.277 A 
ATOM     12  O   UNL     1       5.799   6.220   2.392  0.00  0.00    -0.266 OA
BRANCH   5  13
ATOM     13  N   UNL     1       3.009   5.378  -1.253  0.00  0.00    -0.343 N 
ATOM     14  H   UNL     1       2.434   5.781  -2.100  0.00  0.00    +0.144 HD
ATOM     15  H   UNL     1       3.014   4.296  -1.057  0.00  0.00    +0.144 HD
ENDBRANCH   5  13
BRANCH   6  16
ATOM     16  C   UNL     1       2.955   8.123  -1.805  0.00  0.00    +0.128 C 
BRANCH  16  17
ATOM     17  C   UNL     1       1.536   8.461  -1.344  0.00  0.00    +0.018 C 
ATOM     18  C   UNL     1       0.738   9.025  -2.521  0.00  0.00    +0.005 C 
ENDBRANCH  16  17
ENDBRANCH   6  16
ENDBRANCH   1   4
BRANCH   1  19
ATOM     19  C   UNL     1       5.723   3.603   0.813  0.00  0.00    +0.114 C 
BRANCH  19  20
ATOM     20  C   UNL     1       5.852   2.971  -0.574  0.00  0.00    +0.019 C 
BRANCH  20  22
ATOM     21  C   UNL     1       7.296   1.562  -2.048  0.00  0.00    +0.004 C 
ATOM     22  C   UNL     1       7.167   2.194  -0.661  0.00  0.00    -0.002 C 
ENDBRANCH  20  22
ENDBRANCH  19  20
ENDBRANCH   1  19
BRANCH   2  23
ATOM     23  C   UNL     1       3.364   2.256   1.635  0.00  0.00    +0.019 C 
BRANCH  23  24
ATOM     24  N   UNL     1       1.998   1.781   1.891  0.00  0.00    +0.386 N 
ATOM     25  C   UNL     1       1.968   0.321   2.043  0.00  0.00    -0.078 C 
ATOM     26  C   UNL     1       0.518  -0.152   2.162  0.00  0.00    -0.018 C 
ATOM     27  C   UNL     1      -0.134   0.520   3.374  0.00  0.00    +0.001 C 
ATOM     28  C   UNL     1      -0.047   2.040   3.214  0.00  0.00    -0.012 C 
ATOM     29  C   UNL     1       1.420   2.449   3.064  0.00  0.00    -0.073 C 
ATOM     30  H   UNL     1       1.379   2.040   1.019  0.00  0.00    -0.081 HD
BRANCH  28  31
ATOM     31  C   UNL     1      -0.642   2.719   4.450  0.00  0.00    +0.107 C 
BRANCH  31  32
ATOM     32  N   UNL     1      -2.074   2.419   4.529  0.00  0.00    -0.195 NA
ATOM     33  H   UNL     1      -2.634   2.166   3.616  0.00  0.00    +0.148 HD
BRANCH  32  34
ATOM     34  S   UNL     1      -2.902   2.699   5.935  0.00  0.00    +0.027 S 
ATOM     35  O   UNL     1      -4.232   2.279   5.663  0.00  0.00    -0.158 OA
ATOM     36  O   UNL     1      -2.132   2.058   6.943  0.00  0.00    -0.158 OA
ATOM     37  C   UNL     1      -2.849   4.499   6.157  0.00  0.00    +0.214 C 
ENDBRANCH  32  34
ENDBRANCH  31  32
ENDBRANCH  28  31
ENDBRANCH  23  24
ENDBRANCH   2  23
TORSDOF 12
