REMARK  Name = ZINC47534876
REMARK  11 active torsions:
REMARK  status: ('A' for Active; 'I' for Inactive)
REMARK    1  A    between atoms: C_1  and  C_2
REMARK    2  A    between atoms: C_2  and  C_4
REMARK    3  A    between atoms: C_2  and  N_16
REMARK    4  A    between atoms: C_17  and  C_19
REMARK    5  A    between atoms: C_20  and  C_21
REMARK    6  A    between atoms: C_23  and  O_31
REMARK    7  A    between atoms: C_24  and  O_29
REMARK    8  A    between atoms: C_26  and  O_27
REMARK    9  A    between atoms: O_27  and  C_28
REMARK   10  A    between atoms: O_29  and  C_30
REMARK   11  A    between atoms: O_31  and  C_32
REMARK                            x       y       z     vdW  Elec       q    Type
REMARK                         _______ _______ _______ _____ _____    ______ ____
ROOT
ATOM      1  N   UNL     1       0.688  -0.476  -1.203  0.00  0.00    -0.305 N 
ATOM      2  C   UNL     1       2.031  -0.587  -1.215  0.00  0.00    +0.237 C 
ATOM      3  O   UNL     1       2.674  -0.294  -0.224  0.00  0.00    -0.271 OA
ATOM      4  H   UNL     1       0.175  -0.710  -1.993  0.00  0.00    +0.150 HD
ENDROOT
BRANCH   1   6
ATOM      5  C   UNL     1      -0.019   1.526   0.010  0.00  0.00    +0.033 C 
ATOM      6  C   UNL     1       0.002  -0.004   0.002  0.00  0.00    +0.100 C 
BRANCH   6   7
ATOM      7  C   UNL     1      -1.412  -0.526   0.013  0.00  0.00    -0.025 A 
ATOM      8  C   UNL     1      -2.140  -0.568  -1.164  0.00  0.00    +0.007 A 
ATOM      9  C   UNL     1      -3.436  -1.044  -1.164  0.00  0.00    +0.028 A 
ATOM     10  C   UNL     1      -4.011  -1.482   0.019  0.00  0.00    +0.067 A 
ATOM     11  C   UNL     1      -3.276  -1.440   1.206  0.00  0.00    +0.067 A 
ATOM     12  C   UNL     1      -1.974  -0.965   1.195  0.00  0.00    +0.033 A 
ATOM     13  N   UNL     1      -4.104  -1.937   2.210  0.00  0.00    -0.306 N 
ATOM     14  H   UNL     1      -3.868  -2.030   3.146  0.00  0.00    +0.170 HD
ATOM     15  C   UNL     1      -5.288  -2.267   1.659  0.00  0.00    +0.325 A 
ATOM     16  O   UNL     1      -6.237  -2.732   2.262  0.00  0.00    -0.247 OA
ATOM     17  N   UNL     1      -5.262  -2.004   0.338  0.00  0.00    -0.306 N 
ATOM     18  H   UNL     1      -5.991  -2.152  -0.284  0.00  0.00    +0.170 HD
ENDBRANCH   6   7
ENDBRANCH   1   6
BRANCH   2  19
ATOM     19  C   UNL     1       2.695  -1.044  -2.381  0.00  0.00    +0.068 C 
ATOM     20  C   UNL     1       4.042  -1.155  -2.393  0.00  0.00    +0.017 C 
BRANCH  20  21
ATOM     21  C   UNL     1       4.729  -1.628  -3.600  0.00  0.00    +0.020 A 
ATOM     22  C   UNL     1       3.991  -1.961  -4.745  0.00  0.00    +0.061 A 
ATOM     23  C   UNL     1       4.642  -2.404  -5.876  0.00  0.00    +0.162 A 
ATOM     24  C   UNL     1       6.033  -2.523  -5.884  0.00  0.00    +0.165 A 
ATOM     25  C   UNL     1       6.769  -2.196  -4.756  0.00  0.00    +0.095 A 
ATOM     26  C   UNL     1       6.128  -1.744  -3.616  0.00  0.00    +0.131 A 
BRANCH  26  27
ATOM     27  O   UNL     1       6.850  -1.419  -2.513  0.00  0.00    -0.494 OA
ATOM     28  C   UNL     1       8.269  -1.562  -2.601  0.00  0.00    +0.277 C 
ENDBRANCH  26  27
BRANCH  24  29
ATOM     29  O   UNL     1       6.668  -2.962  -7.002  0.00  0.00    -0.491 OA
ATOM     30  C   UNL     1       8.092  -3.061  -6.943  0.00  0.00    +0.277 C 
ENDBRANCH  24  29
BRANCH  23  31
ATOM     31  O   UNL     1       3.927  -2.727  -6.988  0.00  0.00    -0.491 OA
ATOM     32  C   UNL     1       2.507  -2.582  -6.911  0.00  0.00    +0.277 C 
ENDBRANCH  23  31
ENDBRANCH  20  21
ENDBRANCH   2  19
TORSDOF 7
