REMARK  Name = ZINC10166993
REMARK  8 active torsions:
REMARK  status: ('A' for Active; 'I' for Inactive)
REMARK    1  A    between atoms: C_1  and  C_2
REMARK    2  A    between atoms: C_2  and  C_3
REMARK    3  A    between atoms: C_8  and  O_30
REMARK    4  A    between atoms: C_9  and  C_11
REMARK    5  A    between atoms: C_11  and  C_13
REMARK    6  A    between atoms: C_11  and  N_52
REMARK    7  A    between atoms: C_16  and  N_19
REMARK    8  A    between atoms: C_24  and  C_27
REMARK                            x       y       z     vdW  Elec       q    Type
REMARK                         _______ _______ _______ _____ _____    ______ ____
ROOT
ATOM      1  C   UNL     1      -0.013   1.086   0.008  0.00  0.00    +0.005 C 
ENDROOT
BRANCH   1   8
ATOM      2  C   UNL     1      -2.817   2.341  -5.102  0.00  0.00    +0.152 A 
ATOM      3  N   UNL     1      -2.685   3.323  -4.213  0.00  0.00    -0.205 NA
ATOM      4  C   UNL     1      -2.052   2.873  -3.164  0.00  0.00    +0.199 A 
ATOM      5  N   UNL     1      -1.748   1.558  -3.344  0.00  0.00    -0.173 N 
ATOM      6  N   UNL     1      -2.269   1.254  -4.628  0.00  0.00    -0.147 NA
ATOM      7  C   UNL     1      -1.076   0.923  -2.327  0.00  0.00    +0.225 A 
ATOM      8  C   UNL     1      -0.742   1.585  -1.213  0.00  0.00    +0.045 A 
ATOM      9  S   UNL     1      -1.393   3.214  -1.550  0.00  0.00    -0.050 S 
BRANCH   2  11
ATOM     10  C   UNL     1      -2.462   2.878  -7.497  0.00  0.00    +0.012 C 
ATOM     11  C   UNL     1      -3.492   2.463  -6.444  0.00  0.00    +0.075 C 
ENDBRANCH   2  11
BRANCH   7  12
ATOM     12  O   UNL     1      -0.747  -0.391  -2.454  0.00  0.00    -0.492 OA
ATOM     13  H   UNL     1      -1.423  -0.999  -2.124  0.00  0.00    +0.294 HD
ENDBRANCH   7  12
ENDBRANCH   1   8
BRANCH   1  19
ATOM     14  C   UNL     1       0.038   1.176   2.427  0.00  0.00    -0.077 C 
ATOM     15  C   UNL     1      -0.626   1.808   3.652  0.00  0.00    -0.006 C 
ATOM     16  C   UNL     1      -2.077   1.329   3.744  0.00  0.00    +0.071 C 
ATOM     17  C   UNL     1      -2.811   1.698   2.452  0.00  0.00    -0.006 C 
ATOM     18  C   UNL     1      -2.084   1.070   1.261  0.00  0.00    -0.077 C 
ATOM     19  N   UNL     1      -0.701   1.589   1.215  0.00  0.00    +0.387 N 
ATOM     20  H   UNL     1      -0.731   2.615   1.177  0.00  0.00    -0.080 HD
BRANCH  16  21
ATOM     21  C   UNL     1      -2.755   1.993   4.915  0.00  0.00    +0.213 C 
ATOM     22  O   UNL     1      -3.728   2.693   4.736  0.00  0.00    -0.276 OA
ATOM     23  N   UNL     1      -2.278   1.809   6.163  0.00  0.00    -0.329 N 
ATOM     24  H   UNL     1      -1.499   1.249   6.306  0.00  0.00    +0.145 HD
ATOM     25  H   UNL     1      -2.714   2.236   6.916  0.00  0.00    +0.145 HD
ENDBRANCH  16  21
ENDBRANCH   1  19
BRANCH   1  26
ATOM     26  C   UNL     1       1.401   1.607  -0.003  0.00  0.00    -0.056 A 
ATOM     27  C   UNL     1       1.663   2.902   0.406  0.00  0.00    +0.004 A 
ATOM     28  C   UNL     1       2.961   3.379   0.401  0.00  0.00    +0.033 A 
ATOM     29  C   UNL     1       3.995   2.565  -0.023  0.00  0.00    +0.126 A 
ATOM     30  C   UNL     1       3.732   1.272  -0.437  0.00  0.00    +0.033 A 
ATOM     31  C   UNL     1       2.435   0.793  -0.426  0.00  0.00    +0.004 A 
BRANCH  29  32
ATOM     32  N   UNL     1       5.383   3.077  -0.035  0.00  0.00    +0.056 N 
ATOM     33  O   UNL     1       6.294   2.360  -0.408  0.00  0.00    -0.126 OA
ATOM     34  O   UNL     1       5.615   4.216   0.330  0.00  0.00    -0.126 OA
ENDBRANCH  29  32
ENDBRANCH   1  26
TORSDOF 7
