REMARK  Name = ZINC57371645
REMARK  11 active torsions:
REMARK  status: ('A' for Active; 'I' for Inactive)
REMARK    1  A    between atoms: N_9  and  C_10
REMARK    2  A    between atoms: C_10  and  C_11
REMARK    3  A    between atoms: C_11  and  C_13
REMARK    4  A    between atoms: C_11  and  O_30
REMARK    5  A    between atoms: C_13  and  O_14
REMARK    6  A    between atoms: O_14  and  C_15
REMARK    7  A    between atoms: C_15  and  C_16
REMARK    8  A    between atoms: C_15  and  C_23
REMARK    9  A    between atoms: N_31  and  C_32
REMARK   10  A    between atoms: C_32  and  C_33
REMARK   11  A    between atoms: C_33  and  O_34
REMARK                            x       y       z     vdW  Elec       q    Type
REMARK                         _______ _______ _______ _____ _____    ______ ____
ROOT
ATOM      1  C   UNL     1       5.396  -0.501   1.389  0.00  0.00    +0.160 C 
ENDROOT
BRANCH   1   2
ATOM      2  O   UNL     1       5.271  -1.776   2.023  0.00  0.00    -0.388 OA
ATOM      3  H   UNL     1       5.767  -2.482   1.588  0.00  0.00    +0.210 HD
ENDBRANCH   1   2
BRANCH   1   4
ATOM      4  C   UNL     1       4.882  -0.594  -0.049  0.00  0.00    +0.158 C 
BRANCH   4  13
ATOM      5  C   UNL     1      -0.017   1.373   0.010  0.00  0.00    +0.002 A 
ATOM      6  C   UNL     1       1.169   2.093   0.002  0.00  0.00    +0.002 A 
ATOM      7  C   UNL     1       2.384   1.439  -0.013  0.00  0.00    +0.028 A 
ATOM      8  C   UNL     1       2.421   0.053  -0.021  0.00  0.00    +0.068 A 
ATOM      9  C   UNL     1       1.224  -0.681  -0.013  0.00  0.00    +0.065 A 
ATOM     10  C   UNL     1       0.002  -0.004   0.002  0.00  0.00    +0.028 A 
ATOM     11  N   UNL     1       1.562  -1.998  -0.024  0.00  0.00    -0.327 N 
ATOM     12  C   UNL     1       2.866  -2.117  -0.037  0.00  0.00    +0.174 A 
ATOM     13  N   UNL     1       3.445  -0.880  -0.036  0.00  0.00    -0.311 N 
ATOM     14  N   UNL     1       3.552  -3.313  -0.050  0.00  0.00    -0.314 N 
ATOM     15  H   UNL     1       4.522  -3.316  -0.059  0.00  0.00    +0.149 HD
ATOM     16  H   UNL     1       0.933  -2.736  -0.021  0.00  0.00    +0.169 HD
BRANCH  14  17
ATOM     17  C   UNL     1       2.816  -4.580  -0.050  0.00  0.00    +0.132 C 
BRANCH  17  18
ATOM     18  C   UNL     1       3.807  -5.745  -0.066  0.00  0.00    +0.174 C 
BRANCH  18  19
ATOM     19  O   UNL     1       4.561  -5.746   1.149  0.00  0.00    -0.393 OA
ATOM     20  H   UNL     1       5.210  -6.460   1.208  0.00  0.00    +0.209 HD
ENDBRANCH  18  19
ENDBRANCH  17  18
ENDBRANCH  14  17
ENDBRANCH   4  13
ENDBRANCH   1   4
BRANCH   1  21
ATOM     21  C   UNL     1       6.867  -0.080   1.379  0.00  0.00    +0.194 C 
BRANCH  21  22
ATOM     22  O   UNL     1       7.315   0.120   2.721  0.00  0.00    -0.365 OA
BRANCH  22  23
ATOM     23  C   UNL     1       8.684   0.518   2.823  0.00  0.00    +0.178 C 
BRANCH  23  24
ATOM     24  C   UNL     1       8.867   1.376   4.049  0.00  0.00    -0.014 A 
ATOM     25  C   UNL     1       8.214   1.050   5.224  0.00  0.00    +0.009 A 
ATOM     26  C   UNL     1       8.382   1.835   6.348  0.00  0.00    +0.039 A 
ATOM     27  C   UNL     1       9.204   2.948   6.299  0.00  0.00    +0.123 A 
ATOM     28  C   UNL     1       9.856   3.274   5.122  0.00  0.00    +0.039 A 
ATOM     29  C   UNL     1       9.691   2.484   4.000  0.00  0.00    +0.009 A 
ATOM     30  F   UNL     1       9.368   3.717   7.398  0.00  0.00    -0.205 F 
ENDBRANCH  23  24
BRANCH  23  31
ATOM     31  C   UNL     1       9.556  -0.706   2.932  0.00  0.00    -0.014 A 
ATOM     32  C   UNL     1       9.101  -1.821   3.611  0.00  0.00    +0.009 A 
ATOM     33  C   UNL     1       9.900  -2.944   3.710  0.00  0.00    +0.039 A 
ATOM     34  C   UNL     1      11.157  -2.952   3.129  0.00  0.00    +0.123 A 
ATOM     35  C   UNL     1      11.612  -1.835   2.449  0.00  0.00    +0.039 A 
ATOM     36  C   UNL     1      10.809  -0.715   2.347  0.00  0.00    +0.009 A 
ATOM     37  F   UNL     1      11.939  -4.049   3.226  0.00  0.00    -0.205 F 
ENDBRANCH  23  31
ENDBRANCH  22  23
ENDBRANCH  21  22
ENDBRANCH   1  21
TORSDOF 11
