REMARK  Name = ZINC43400262
REMARK  7 active torsions:
REMARK  status: ('A' for Active; 'I' for Inactive)
REMARK    1  A    between atoms: C_1  and  C_2
REMARK    2  A    between atoms: C_5  and  O_9
REMARK    3  A    between atoms: C_7  and  C_8
REMARK    4  A    between atoms: O_9  and  C_10
REMARK    5  A    between atoms: C_11  and  C_17
REMARK    6  A    between atoms: C_14  and  C_16
REMARK    7  A    between atoms: N_18  and  O_19
REMARK                            x       y       z     vdW  Elec       q    Type
REMARK                         _______ _______ _______ _____ _____    ______ ____
ROOT
ATOM      1  C   UNL     1      -0.046  -4.760  -1.216  0.00  0.00    +0.231 A 
ATOM      2  C   UNL     1      -0.143  -6.158  -1.259  0.00  0.00    +0.080 A 
ATOM      3  C   UNL     1      -0.248  -6.788  -2.502  0.00  0.00    +0.018 A 
ATOM      4  C   UNL     1      -0.250  -6.000  -3.641  0.00  0.00    +0.024 A 
ATOM      5  C   UNL     1      -0.150  -4.627  -3.517  0.00  0.00    +0.042 A 
ATOM      6  N   UNL     1      -0.058  -4.053  -2.333  0.00  0.00    -0.217 NA
ATOM      7  C   UNL     1      -0.153  -3.770  -4.757  0.00  0.00    +0.066 C 
ENDROOT
BRANCH   2   8
ATOM      8  C   UNL     1      -0.135  -6.952  -0.011  0.00  0.00    +0.168 C 
ATOM      9  N   UNL     1      -0.037  -6.353   1.140  0.00  0.00    -0.071 NA
ATOM     10  N   UNL     1      -0.232  -8.332  -0.068  0.00  0.00    -0.340 N 
ATOM     11  H   UNL     1      -0.305  -8.778  -0.926  0.00  0.00    +0.144 HD
ATOM     12  H   UNL     1      -0.227  -8.852   0.750  0.00  0.00    +0.144 HD
BRANCH   9  13
ATOM     13  O   UNL     1      -0.029  -7.113   2.335  0.00  0.00    -0.408 OA
ATOM     14  H   UNL     1       0.047  -6.581   3.139  0.00  0.00    +0.328 HD
ENDBRANCH   9  13
ENDBRANCH   2   8
BRANCH   1  15
ATOM     15  O   UNL     1       0.057  -4.129  -0.021  0.00  0.00    -0.437 OA
BRANCH  15  20
ATOM     16  C   UNL     1      -0.009   1.503   0.012  0.00  0.00    +0.044 C 
ATOM     17  C   UNL     1       0.009  -0.004   0.003  0.00  0.00    -0.047 A 
ATOM     18  C   UNL     1      -1.169  -0.707  -0.171  0.00  0.00    +0.007 A 
ATOM     19  C   UNL     1      -1.156  -2.088  -0.179  0.00  0.00    +0.046 A 
ATOM     20  C   UNL     1       0.041  -2.770  -0.013  0.00  0.00    +0.131 A 
ATOM     21  C   UNL     1       1.222  -2.063   0.160  0.00  0.00    +0.050 A 
ATOM     22  C   UNL     1       1.204  -0.681   0.162  0.00  0.00    -0.044 A 
ATOM     23  C   UNL     1       2.486   0.088   0.345  0.00  0.00    +0.044 C 
ENDBRANCH  15  20
ENDBRANCH   1  15
TORSDOF 4
