REMARK  Name = ZINC13501085
REMARK  10 active torsions:
REMARK  status: ('A' for Active; 'I' for Inactive)
REMARK    1  A    between atoms: C_1  and  C_2
REMARK    2  A    between atoms: C_2  and  C_3
REMARK    3  A    between atoms: C_3  and  C_5
REMARK    4  A    between atoms: C_3  and  N_72
REMARK    5  A    between atoms: N_9  and  C_10
REMARK    6  A    between atoms: C_15  and  C_16
REMARK    7  A    between atoms: C_15  and  N_72
REMARK    8  A    between atoms: C_20  and  C_29
REMARK    9  A    between atoms: C_22  and  C_28
REMARK   10  A    between atoms: C_30  and  N_72
REMARK                            x       y       z     vdW  Elec       q    Type
REMARK                         _______ _______ _______ _____ _____    ______ ____
ROOT
ATOM      1  N   UNL     1      -1.599   7.718  -1.065  0.00  0.00    +0.391 N 
ATOM      2  H   UNL     1      -0.939   7.251  -1.698  0.00  0.00    -0.080 HD
ENDROOT
BRANCH   1   3
ATOM      3  C   UNL     1      -2.978   7.399  -1.489  0.00  0.00    -0.067 C 
ATOM      4  C   UNL     1      -3.977   8.340  -0.813  0.00  0.00    -0.015 C 
ATOM      5  C   UNL     1      -5.395   7.994  -1.273  0.00  0.00    -0.002 C 
ATOM      6  C   UNL     1      -5.717   6.548  -0.891  0.00  0.00    -0.000 C 
ATOM      7  C   UNL     1      -4.717   5.607  -1.567  0.00  0.00    -0.002 C 
ATOM      8  C   UNL     1      -3.300   5.953  -1.107  0.00  0.00    -0.015 C 
ENDBRANCH   1   3
BRANCH   1   9
ATOM      9  C   UNL     1      -1.375   9.178  -1.130  0.00  0.00    +0.003 C 
BRANCH   9  10
ATOM     10  C   UNL     1      -2.203   9.763  -2.245  0.00  0.00    +0.138 A 
ATOM     11  N   UNL     1      -2.397   9.242  -3.432  0.00  0.00    -0.115 NA
ATOM     12  N   UNL     1      -3.163  10.038  -4.096  0.00  0.00    -0.023 NA
ATOM     13  N   UNL     1      -3.456  11.057  -3.365  0.00  0.00    -0.044 NA
ATOM     14  N   UNL     1      -2.883  10.924  -2.217  0.00  0.00    -0.228 N 
BRANCH  14  15
ATOM     15  C   UNL     1      -2.959  11.861  -1.093  0.00  0.00    +0.111 C 
ATOM     16  C   UNL     1      -4.431  12.071  -0.679  0.00  0.00    +0.027 C 
ATOM     17  C   UNL     1      -4.507  13.571  -0.298  0.00  0.00    +0.002 C 
ATOM     18  C   UNL     1      -3.582  14.238  -1.347  0.00  0.00    +0.002 C 
ATOM     19  C   UNL     1      -2.420  13.238  -1.517  0.00  0.00    +0.027 C 
ENDBRANCH  14  15
ENDBRANCH   9  10
BRANCH   9  21
ATOM     20  C   UNL     1       0.955   8.738  -0.341  0.00  0.00    +0.002 C 
ATOM     21  C   UNL     1       0.108   9.431  -1.410  0.00  0.00    -0.011 C 
ENDBRANCH   9  21
ENDBRANCH   1   9
BRANCH   1  22
ATOM     22  C   UNL     1      -1.369   7.233   0.312  0.00  0.00    -0.036 C 
BRANCH  22  23
ATOM     23  C   UNL     1      -2.299   7.922   1.277  0.00  0.00    +0.001 A 
ATOM     24  C   UNL     1      -3.457   7.320   1.645  0.00  0.00    +0.017 A 
ATOM     25  C   UNL     1      -4.339   8.015   2.585  0.00  0.00    -0.001 A 
ATOM     26  C   UNL     1      -5.547   7.445   3.001  0.00  0.00    +0.013 A 
ATOM     27  C   UNL     1      -6.348   8.120   3.878  0.00  0.00    -0.050 A 
ATOM     28  C   UNL     1      -5.973   9.367   4.360  0.00  0.00    +0.008 A 
ATOM     29  C   UNL     1      -4.791   9.950   3.959  0.00  0.00    -0.026 A 
ATOM     30  C   UNL     1      -3.956   9.280   3.071  0.00  0.00    +0.052 A 
ATOM     31  N   UNL     1      -2.765   9.837   2.658  0.00  0.00    -0.322 N 
ATOM     32  H   UNL     1      -2.503  10.709   2.994  0.00  0.00    +0.169 HD
ATOM     33  C   UNL     1      -1.962   9.191   1.795  0.00  0.00    +0.251 A 
ATOM     34  O   UNL     1      -0.916   9.714   1.451  0.00  0.00    -0.268 OA
ATOM     35  C   UNL     1      -4.400  11.307   4.486  0.00  0.00    +0.046 C 
ATOM     36  C   UNL     1      -7.648   7.506   4.326  0.00  0.00    +0.044 C 
ENDBRANCH  22  23
ENDBRANCH   1  22
TORSDOF 7
