REMARK  Name = ZINC08666787
REMARK  6 active torsions:
REMARK  status: ('A' for Active; 'I' for Inactive)
REMARK    1  A    between atoms: C_3  and  C_6
REMARK    2  A    between atoms: C_6  and  N_7
REMARK    3  A    between atoms: C_16  and  C_28
REMARK    4  A    between atoms: C_16  and  C_32
REMARK    5  A    between atoms: C_18  and  C_20
REMARK    6  A    between atoms: C_23  and  C_26
REMARK                            x       y       z     vdW  Elec       q    Type
REMARK                         _______ _______ _______ _____ _____    ______ ____
ROOT
ATOM      1  N   UNL     1       3.346   1.441   1.121  0.00  0.00    -0.274 N 
ATOM      2  C   UNL     1       3.981   2.378   1.897  0.00  0.00    +0.120 A 
ATOM      3  C   UNL     1       4.419   2.040   3.143  0.00  0.00    +0.100 A 
ATOM      4  C   UNL     1       4.201   0.733   3.610  0.00  0.00    +0.262 A 
ATOM      5  O   UNL     1       4.578   0.407   4.723  0.00  0.00    -0.267 OA
ATOM      6  N   UNL     1       3.572  -0.158   2.818  0.00  0.00    -0.275 N 
ATOM      7  H   UNL     1       3.421  -1.062   3.137  0.00  0.00    +0.173 HD
ATOM      8  C   UNL     1       3.148   0.195   1.591  0.00  0.00    +0.331 A 
ATOM      9  O   UNL     1       2.581  -0.625   0.894  0.00  0.00    -0.246 OA
ATOM     10  C   UNL     1       5.129   3.045   4.004  0.00  0.00    +0.285 C 
ATOM     11  N   UNL     1       4.928   4.402   3.511  0.00  0.00    -0.239 NA
ATOM     12  C   UNL     1       4.491   4.663   2.322  0.00  0.00    +0.128 C 
ATOM     13  N   UNL     1       4.175   3.657   1.431  0.00  0.00    -0.285 N 
ATOM     14  H   UNL     1       4.092   3.851   0.485  0.00  0.00    +0.155 HD
ENDROOT
BRANCH  12  15
ATOM     15  C   UNL     1       4.326   6.075   1.907  0.00  0.00    +0.015 A 
ATOM     16  C   UNL     1       3.851   6.375   0.630  0.00  0.00    +0.012 A 
ATOM     17  C   UNL     1       3.697   7.688   0.243  0.00  0.00    +0.019 A 
ATOM     18  C   UNL     1       4.017   8.719   1.130  0.00  0.00    +0.052 A 
ATOM     19  C   UNL     1       4.492   8.418   2.409  0.00  0.00    +0.019 A 
ATOM     20  C   UNL     1       4.640   7.104   2.796  0.00  0.00    +0.012 A 
BRANCH  18  21
ATOM     21  C   UNL     1       3.858  10.084   0.728  0.00  0.00    +0.099 C 
ATOM     22  N   UNL     1       3.732  11.167   0.409  0.00  0.00    -0.191 NA
ENDBRANCH  18  21
ENDBRANCH  12  15
BRANCH  10  23
ATOM     23  C   UNL     1       4.593   2.947   5.434  0.00  0.00    +0.428 C 
ATOM     24  F   UNL     1       5.123   1.810   6.054  0.00  0.00    -0.167 F 
ATOM     25  F   UNL     1       4.969   4.088   6.152  0.00  0.00    -0.167 F 
ATOM     26  F   UNL     1       3.197   2.854   5.404  0.00  0.00    -0.167 F 
ENDBRANCH  10  23
BRANCH  10  27
ATOM     27  C   UNL     1       6.627   2.731   4.010  0.00  0.00    +0.428 C 
ATOM     28  F   UNL     1       7.122   2.798   2.703  0.00  0.00    -0.167 F 
ATOM     29  F   UNL     1       7.296   3.663   4.810  0.00  0.00    -0.167 F 
ATOM     30  F   UNL     1       6.831   1.445   4.521  0.00  0.00    -0.167 F 
ENDBRANCH  10  27
BRANCH   1  31
ATOM     31  C   UNL     1       2.876   1.799  -0.220  0.00  0.00    +0.202 C 
BRANCH  31  34
ATOM     32  C   UNL     1      -0.296   3.654   0.063  0.00  0.00    +0.041 A 
ATOM     33  C   UNL     1       1.117   3.612   0.045  0.00  0.00    +0.046 A 
ATOM     34  C   UNL     1       1.467   2.326  -0.135  0.00  0.00    +0.125 A 
ATOM     35  O   UNL     1       0.347   1.590  -0.226  0.00  0.00    -0.466 OA
ATOM     36  C   UNL     1      -0.725   2.390  -0.107  0.00  0.00    +0.195 A 
ENDBRANCH  31  34
ENDBRANCH   1  31
TORSDOF 6
