REMARK  Name = ZINC20914198
REMARK  13 active torsions:
REMARK  status: ('A' for Active; 'I' for Inactive)
REMARK    1  A    between atoms: C_1  and  C_2
REMARK    2  A    between atoms: C_2  and  C_4
REMARK    3  A    between atoms: C_7  and  N_10
REMARK    4  A    between atoms: C_11  and  C_13
REMARK    5  A    between atoms: C_13  and  C_14
REMARK    6  A    between atoms: C_14  and  S_15
REMARK    7  A    between atoms: S_15  and  C_16
REMARK    8  A    between atoms: N_20  and  N_21
REMARK    9  A    between atoms: N_22  and  N_23
REMARK   10  A    between atoms: C_24  and  C_25
REMARK   11  A    between atoms: C_28  and  C_31
REMARK   12  A    between atoms: C_31  and  O_33
REMARK   13  A    between atoms: O_33  and  C_34
REMARK                            x       y       z     vdW  Elec       q    Type
REMARK                         _______ _______ _______ _____ _____    ______ ____
ROOT
ATOM      1  C   UNL     1       0.601  -2.115  -0.647  0.00  0.00    +0.210 A 
ATOM      2  N   UNL     1      -0.703  -2.071  -0.779  0.00  0.00    -0.119 NA
ATOM      3  N   UNL     1      -1.089  -0.855  -0.933  0.00  0.00    -0.109 NA
ATOM      4  C   UNL     1      -0.056  -0.050  -0.918  0.00  0.00    +0.254 A 
ATOM      5  N   UNL     1       1.059  -0.827  -0.731  0.00  0.00    -0.211 N 
ATOM      6  N   UNL     1      -0.084   1.330  -1.060  0.00  0.00    -0.204 N 
ATOM      7  H   UNL     1       0.853   1.906  -1.021  0.00  0.00    +0.177 HD
ENDROOT
BRANCH   5   8
ATOM      8  N   UNL     1       2.355  -0.404  -0.646  0.00  0.00    -0.294 N 
ATOM      9  H   UNL     1       2.591   0.667  -0.730  0.00  0.00    +0.163 HD
ATOM     10  H   UNL     1       3.163  -1.135  -0.494  0.00  0.00    +0.163 HD
ENDBRANCH   5   8
BRANCH   6  11
ATOM     11  N   UNL     1      -1.305   1.990  -1.251  0.00  0.00    -0.188 NA
ATOM     12  C   UNL     1      -1.331   3.283  -1.384  0.00  0.00    +0.138 C 
BRANCH  12  13
ATOM     13  C   UNL     1      -2.614   3.976  -1.585  0.00  0.00    -0.005 A 
ATOM     14  C   UNL     1      -3.804   3.242  -1.640  0.00  0.00    +0.010 A 
ATOM     15  C   UNL     1      -4.994   3.886  -1.823  0.00  0.00    +0.015 A 
ATOM     16  C   UNL     1      -5.023   5.277  -1.965  0.00  0.00    +0.059 A 
ATOM     17  C   UNL     1      -3.832   6.010  -1.915  0.00  0.00    +0.015 A 
ATOM     18  C   UNL     1      -2.642   5.368  -1.728  0.00  0.00    +0.010 A 
BRANCH  16  19
ATOM     19  C   UNL     1      -6.307   5.971  -2.168  0.00  0.00    +0.339 C 
ATOM     20  O   UNL     1      -6.332   7.180  -2.292  0.00  0.00    -0.245 OA
BRANCH  19  21
ATOM     21  O   UNL     1      -7.454   5.266  -2.217  0.00  0.00    -0.464 OA
ATOM     22  C   UNL     1      -8.681   6.015  -2.419  0.00  0.00    +0.280 C 
ENDBRANCH  19  21
ENDBRANCH  16  19
ENDBRANCH  12  13
ENDBRANCH   6  11
BRANCH   1  23
ATOM     23  S   UNL     1       1.579  -3.560  -0.406  0.00  0.00    -0.084 S 
BRANCH  23  24
ATOM     24  C   UNL     1       0.282  -4.822  -0.407  0.00  0.00    +0.086 C 
BRANCH  24  25
ATOM     25  C   UNL     1       0.912  -6.202  -0.207  0.00  0.00    +0.107 C 
BRANCH  25  27
ATOM     26  N   UNL     1       0.155  -8.551  -0.045  0.00  0.00    -0.285 N 
ATOM     27  C   UNL     1      -0.168  -7.253  -0.207  0.00  0.00    +0.218 C 
ATOM     28  O   UNL     1      -1.327  -6.930  -0.353  0.00  0.00    -0.275 OA
ATOM     29  H   UNL     1       1.212  -8.854   0.000  0.00  0.00    +0.155 HD
BRANCH  26  33
ATOM     30  C   UNL     1      -2.844 -11.415   0.282  0.00  0.00    +0.017 A 
ATOM     31  C   UNL     1      -1.632 -11.736  -0.343  0.00  0.00    +0.013 A 
ATOM     32  C   UNL     1      -0.647 -10.789  -0.448  0.00  0.00    +0.024 A 
ATOM     33  C   UNL     1      -0.849  -9.510   0.064  0.00  0.00    +0.033 A 
ATOM     34  C   UNL     1      -2.050  -9.189   0.691  0.00  0.00    +0.024 A 
ATOM     35  C   UNL     1      -3.044 -10.128   0.796  0.00  0.00    +0.013 A 
BRANCH  30  37
ATOM     36  C   UNL     1      -5.207 -12.079   1.069  0.00  0.00    +0.091 C 
ATOM     37  C   UNL     1      -3.903 -12.426   0.397  0.00  0.00    +0.160 C 
ATOM     38  O   UNL     1      -3.729 -13.540  -0.049  0.00  0.00    -0.292 OA
ENDBRANCH  30  37
ENDBRANCH  26  33
ENDBRANCH  25  27
ENDBRANCH  24  25
ENDBRANCH  23  24
ENDBRANCH   1  23
TORSDOF 11
