REMARK  Name = ZINC39676983
REMARK  8 active torsions:
REMARK  status: ('A' for Active; 'I' for Inactive)
REMARK    1  A    between atoms: C_1  and  C_2
REMARK    2  A    between atoms: C_5  and  C_35
REMARK    3  A    between atoms: C_6  and  C_8
REMARK    4  A    between atoms: C_8  and  C_9
REMARK    5  A    between atoms: C_9  and  N_10
REMARK    6  A    between atoms: C_11  and  C_13
REMARK    7  A    between atoms: C_24  and  C_26
REMARK    8  A    between atoms: C_29  and  C_34
REMARK                            x       y       z     vdW  Elec       q    Type
REMARK                         _______ _______ _______ _____ _____    ______ ____
ROOT
ATOM      1  C   UNL     1       2.693  -5.106   5.951  0.00  0.00    +0.100 C 
ATOM      2  C   UNL     1       1.841  -6.390   5.839  0.00  0.00    +0.121 C 
ATOM      3  N   UNL     1       2.811  -7.453   5.485  0.00  0.00    -0.296 N 
ATOM      4  C   UNL     1       4.013  -7.139   6.294  0.00  0.00    +0.115 C 
ATOM      5  C   UNL     1       4.117  -5.601   6.253  0.00  0.00    -0.004 C 
ATOM      6  C   UNL     1       5.074  -5.168   5.147  0.00  0.00    -0.010 C 
ATOM      7  C   UNL     1       6.493  -5.623   5.498  0.00  0.00    -0.082 C 
ATOM      8  N   UNL     1       6.896  -5.032   6.780  0.00  0.00    +0.379 N 
ATOM      9  C   UNL     1       6.027  -5.527   7.854  0.00  0.00    -0.082 C 
ATOM     10  C   UNL     1       4.588  -5.068   7.603  0.00  0.00    -0.010 C 
ATOM     11  C   UNL     1       2.639  -8.474   4.623  0.00  0.00    +0.250 C 
ATOM     12  O   UNL     1       1.624  -8.544   3.957  0.00  0.00    -0.270 OA
ATOM     13  H   UNL     1       7.852  -5.284   6.979  0.00  0.00    -0.086 HD
ATOM     14  H   UNL     1       6.820  -4.028   6.724  0.00  0.00    -0.086 HD
ENDROOT
BRANCH  11  15
ATOM     15  C   UNL     1       3.684  -9.510   4.487  0.00  0.00    +0.075 A 
ATOM     16  C   UNL     1       4.427  -9.907   5.601  0.00  0.00    +0.016 A 
ATOM     17  C   UNL     1       5.401 -10.874   5.468  0.00  0.00    +0.007 A 
ATOM     18  C   UNL     1       5.646 -11.453   4.235  0.00  0.00    -0.012 A 
ATOM     19  C   UNL     1       4.915 -11.066   3.125  0.00  0.00    +0.162 A 
ATOM     20  C   UNL     1       3.929 -10.100   3.244  0.00  0.00    +0.171 A 
ATOM     21  F   UNL     1       3.211  -9.727   2.163  0.00  0.00    -0.202 F 
ATOM     22  F   UNL     1       5.160 -11.636   1.924  0.00  0.00    -0.202 F 
ATOM     23  C   UNL     1       6.713 -12.508   4.100  0.00  0.00    +0.047 C 
ENDBRANCH  11  15
BRANCH   1  25
ATOM     24  N   UNL     1       2.780  -3.001   4.655  0.00  0.00    -0.315 N 
ATOM     25  C   UNL     1       2.668  -4.344   4.651  0.00  0.00    +0.218 C 
ATOM     26  O   UNL     1       2.546  -4.939   3.602  0.00  0.00    -0.275 OA
ATOM     27  H   UNL     1       2.877  -2.525   5.494  0.00  0.00    +0.149 HD
BRANCH  24  28
ATOM     28  C   UNL     1       2.755  -2.260   3.391  0.00  0.00    +0.109 C 
BRANCH  28  29
ATOM     29  C   UNL     1       2.899  -0.763   3.674  0.00  0.00    +0.054 C 
BRANCH  29  35
ATOM     30  C   UNL     1       5.327   1.411  -0.123  0.00  0.00    +0.044 C 
ATOM     31  C   UNL     1       4.035   1.039   0.558  0.00  0.00    -0.050 A 
ATOM     32  C   UNL     1       2.826   1.397  -0.010  0.00  0.00    +0.003 A 
ATOM     33  C   UNL     1       1.641   1.056   0.614  0.00  0.00    +0.004 A 
ATOM     34  C   UNL     1       1.665   0.357   1.807  0.00  0.00    -0.047 A 
ATOM     35  C   UNL     1       2.873  -0.002   2.374  0.00  0.00    -0.043 A 
ATOM     36  C   UNL     1       4.058   0.336   1.747  0.00  0.00    +0.007 A 
ATOM     37  C   UNL     1       0.373  -0.014   2.488  0.00  0.00    +0.044 C 
ENDBRANCH  29  35
ENDBRANCH  28  29
ENDBRANCH  24  28
ENDBRANCH   1  25
TORSDOF 5
