REMARK  Name = ZINC06144537
REMARK  9 active torsions:
REMARK  status: ('A' for Active; 'I' for Inactive)
REMARK    1  A    between atoms: C_1  and  C_2
REMARK    2  A    between atoms: C_2  and  C_4
REMARK    3  A    between atoms: C_2  and  O_13
REMARK    4  A    between atoms: N_6  and  C_7
REMARK    5  A    between atoms: O_13  and  C_14
REMARK    6  A    between atoms: C_14  and  C_16
REMARK    7  A    between atoms: C_19  and  N_22
REMARK    8  A    between atoms: N_22  and  S_23
REMARK    9  A    between atoms: S_23  and  C_26
REMARK                            x       y       z     vdW  Elec       q    Type
REMARK                         _______ _______ _______ _____ _____    ______ ____
ROOT
ATOM      1  C   UNL     1       9.669   0.554   0.505  0.00  0.00    +0.059 A 
ATOM      2  C   UNL     1       9.443   1.853   0.038  0.00  0.00    +0.017 A 
ATOM      3  C   UNL     1      10.468   2.763   0.024  0.00  0.00    +0.025 A 
ATOM      4  C   UNL     1      11.737   2.392   0.461  0.00  0.00    +0.048 A 
ATOM      5  C   UNL     1      11.967   1.098   0.921  0.00  0.00    +0.025 A 
ATOM      6  C   UNL     1      10.944   0.185   0.944  0.00  0.00    +0.017 A 
ENDROOT
BRANCH   1   7
ATOM      7  C   UNL     1       8.568  -0.425   0.528  0.00  0.00    +0.340 C 
ATOM      8  O   UNL     1       8.767  -1.554   0.930  0.00  0.00    -0.245 OA
BRANCH   7   9
ATOM      9  O   UNL     1       7.339  -0.067   0.105  0.00  0.00    -0.449 OA
BRANCH   9  11
ATOM     10  C   UNL     1       6.279  -1.854  -1.164  0.00  0.00    +0.062 C 
ATOM     11  C   UNL     1       6.303  -1.082   0.157  0.00  0.00    +0.259 C 
BRANCH  11  12
ATOM     12  C   UNL     1       4.965  -0.424   0.378  0.00  0.00    +0.258 C 
ATOM     13  O   UNL     1       4.879   0.786   0.391  0.00  0.00    -0.271 OA
ATOM     14  N   UNL     1       3.864  -1.180   0.561  0.00  0.00    -0.282 N 
ATOM     15  H   UNL     1       3.943  -2.144   0.626  0.00  0.00    +0.155 HD
BRANCH  14  16
ATOM     16  C   UNL     1       2.607  -0.573   0.657  0.00  0.00    +0.033 A 
ATOM     17  C   UNL     1       2.333   0.578  -0.070  0.00  0.00    +0.023 A 
ATOM     18  C   UNL     1       1.091   1.175   0.027  0.00  0.00    +0.002 A 
ATOM     19  C   UNL     1       0.121   0.627   0.847  0.00  0.00    +0.000 A 
ATOM     20  C   UNL     1       0.391  -0.519   1.572  0.00  0.00    +0.002 A 
ATOM     21  C   UNL     1       1.631  -1.121   1.479  0.00  0.00    +0.023 A 
ENDBRANCH  14  16
ENDBRANCH  11  12
ENDBRANCH   9  11
ENDBRANCH   7   9
ENDBRANCH   1   7
BRANCH   4  22
ATOM     22  N   UNL     1      12.775   3.315   0.440  0.00  0.00    -0.216 N 
ATOM     23  H   UNL     1      12.808   4.024   1.101  0.00  0.00    +0.174 HD
BRANCH  22  24
ATOM     24  S   UNL     1      13.958   3.205  -0.715  0.00  0.00    +0.079 S 
ATOM     25  O   UNL     1      14.851   4.287  -0.486  0.00  0.00    -0.149 OA
ATOM     26  O   UNL     1      14.388   1.851  -0.727  0.00  0.00    -0.149 OA
BRANCH  24  27
ATOM     27  C   UNL     1      13.193   3.505  -2.273  0.00  0.00    +0.147 A 
ATOM     28  C   UNL     1      13.092   4.666  -2.965  0.00  0.00    +0.038 A 
ATOM     29  C   UNL     1      12.440   4.667  -4.184  0.00  0.00    +0.025 A 
ATOM     30  C   UNL     1      11.920   3.504  -4.651  0.00  0.00    +0.057 A 
ATOM     31  S   UNL     1      12.356   2.357  -3.355  0.00  0.00    -0.061 S 
ATOM     32 BR   UNL     1      10.982   3.181  -6.261  0.00  0.00    -0.043 Br
ENDBRANCH  24  27
ENDBRANCH  22  24
ENDBRANCH   4  22
TORSDOF 8
