REMARK  Name = ZINC32911911
REMARK  11 active torsions:
REMARK  status: ('A' for Active; 'I' for Inactive)
REMARK    1  A    between atoms: C_1  and  C_2
REMARK    2  A    between atoms: C_5  and  S_11
REMARK    3  A    between atoms: C_7  and  N_8
REMARK    4  A    between atoms: S_11  and  N_14
REMARK    5  A    between atoms: N_14  and  C_15
REMARK    6  A    between atoms: C_15  and  C_16
REMARK    7  A    between atoms: C_16  and  C_17
REMARK    8  A    between atoms: C_17  and  C_18
REMARK    9  A    between atoms: C_19  and  C_31
REMARK   10  A    between atoms: C_20  and  N_30
REMARK   11  A    between atoms: N_21  and  C_23
REMARK                            x       y       z     vdW  Elec       q    Type
REMARK                         _______ _______ _______ _____ _____    ______ ____
ROOT
ATOM      1  C   UNL     1      -1.085   1.158  -0.204  0.00  0.00    +0.060 C 
ENDROOT
BRANCH   1   2
ATOM      2  C   UNL     1      -2.005   1.695   0.862  0.00  0.00    +0.083 A 
ATOM      3  C   UNL     1      -3.200   1.085   1.310  0.00  0.00    +0.114 A 
ATOM      4  C   UNL     1      -3.733   1.909   2.296  0.00  0.00    +0.138 A 
ATOM      5  N   UNL     1      -2.895   2.962   2.431  0.00  0.00    -0.217 N 
ATOM      6  N   UNL     1      -1.833   2.799   1.534  0.00  0.00    -0.168 NA
BRANCH   5   7
ATOM      7  C   UNL     1      -3.059   4.033   3.320  0.00  0.00    +0.068 A 
ATOM      8  C   UNL     1      -4.332   4.509   3.607  0.00  0.00    +0.030 A 
ATOM      9  C   UNL     1      -4.492   5.561   4.487  0.00  0.00    +0.040 A 
ATOM     10  C   UNL     1      -3.384   6.148   5.076  0.00  0.00    +0.124 A 
ATOM     11  C   UNL     1      -2.114   5.677   4.787  0.00  0.00    +0.040 A 
ATOM     12  C   UNL     1      -1.950   4.622   3.912  0.00  0.00    +0.030 A 
ATOM     13  F   UNL     1      -3.543   7.181   5.932  0.00  0.00    -0.205 F 
ENDBRANCH   5   7
BRANCH   4  14
ATOM     14  N   UNL     1      -4.899   1.693   3.006  0.00  0.00    -0.342 N 
ATOM     15  H   UNL     1      -5.223   2.418   3.767  0.00  0.00    +0.144 HD
ATOM     16  H   UNL     1      -5.503   0.795   2.810  0.00  0.00    +0.144 HD
ENDBRANCH   4  14
BRANCH   3  17
ATOM     17  C   UNL     1      -3.755  -0.148   0.838  0.00  0.00    +0.104 C 
ATOM     18  N   UNL     1      -4.196  -1.125   0.463  0.00  0.00    -0.191 NA
ENDBRANCH   3  17
ENDBRANCH   1   2
BRANCH   1  19
ATOM     19  C   UNL     1      -1.517   1.696  -1.569  0.00  0.00    +0.023 C 
BRANCH  19  20
ATOM     20  C   UNL     1      -0.583   1.151  -2.652  0.00  0.00    +0.106 C 
BRANCH  20  21
ATOM     21  N   UNL     1      -0.997   1.666  -3.959  0.00  0.00    -0.190 NA
ATOM     22  H   UNL     1      -2.040   1.975  -4.123  0.00  0.00    +0.148 HD
BRANCH  21  23
ATOM     23  S   UNL     1       0.028   1.554  -5.255  0.00  0.00    +0.058 S 
ATOM     24  O   UNL     1      -0.662   2.109  -6.367  0.00  0.00    -0.153 OA
ATOM     25  O   UNL     1       1.288   2.045  -4.820  0.00  0.00    -0.153 OA
BRANCH  23  30
ATOM     26  C   UNL     1       0.774  -4.314  -6.440  0.00  0.00    +0.046 C 
ATOM     27  C   UNL     1       0.588  -2.849  -6.144  0.00  0.00    -0.020 A 
ATOM     28  C   UNL     1       1.440  -2.207  -5.265  0.00  0.00    +0.007 A 
ATOM     29  C   UNL     1       1.272  -0.861  -4.997  0.00  0.00    +0.029 A 
ATOM     30  C   UNL     1       0.246  -0.159  -5.601  0.00  0.00    +0.107 A 
ATOM     31  C   UNL     1      -0.606  -0.801  -6.481  0.00  0.00    +0.061 A 
ATOM     32  C   UNL     1      -0.435  -2.145  -6.752  0.00  0.00    +0.131 A 
BRANCH  32  33
ATOM     33  N   UNL     1      -1.347  -2.832  -7.694  0.00  0.00    +0.057 N 
ATOM     34  O   UNL     1      -2.317  -2.245  -8.139  0.00  0.00    -0.126 OA
ATOM     35  O   UNL     1      -1.128  -3.984  -8.024  0.00  0.00    -0.126 OA
ENDBRANCH  32  33
ENDBRANCH  23  30
ENDBRANCH  21  23
ENDBRANCH  20  21
ENDBRANCH  19  20
ENDBRANCH   1  19
TORSDOF 10
