REMARK  Name = ZINC39836446
REMARK  8 active torsions:
REMARK  status: ('A' for Active; 'I' for Inactive)
REMARK    1  A    between atoms: C_1  and  C_2
REMARK    2  A    between atoms: C_2  and  C_3
REMARK    3  A    between atoms: C_2  and  C_4
REMARK    4  A    between atoms: C_2  and  C_5
REMARK    5  A    between atoms: C_12  and  N_25
REMARK    6  A    between atoms: C_13  and  C_14
REMARK    7  A    between atoms: N_16  and  C_17
REMARK    8  A    between atoms: C_26  and  C_28
REMARK                            x       y       z     vdW  Elec       q    Type
REMARK                         _______ _______ _______ _____ _____    ______ ____
ROOT
ATOM      1  C   UNL     1       0.718  -0.497  -1.257  0.00  0.00    -0.000 C 
ATOM      2  C   UNL     1      -0.017   0.013  -2.499  0.00  0.00    +0.009 C 
ATOM      3  C   UNL     1       0.538  -0.670  -3.751  0.00  0.00    +0.037 C 
ATOM      4  C   UNL     1       2.052  -0.516  -3.760  0.00  0.00    -0.023 A 
ATOM      5  C   UNL     1       2.731  -0.199  -2.636  0.00  0.00    -0.004 A 
ATOM      6  S   UNL     1       4.426  -0.135  -3.140  0.00  0.00    -0.077 S 
ATOM      7  C   UNL     1       4.255  -0.512  -4.768  0.00  0.00    +0.085 A 
ATOM      8  C   UNL     1       2.890  -0.689  -4.933  0.00  0.00    +0.069 A 
ATOM      9  C   UNL     1       2.158   0.038  -1.273  0.00  0.00    +0.046 C 
ENDROOT
BRANCH   1  11
ATOM     10  C   UNL     1      -0.019   1.526   0.010  0.00  0.00    +0.011 C 
ATOM     11  C   UNL     1       0.002  -0.004   0.002  0.00  0.00    -0.035 C 
ATOM     12  C   UNL     1       0.742  -0.511   1.242  0.00  0.00    +0.011 C 
ATOM     13  C   UNL     1      -1.433  -0.534   0.013  0.00  0.00    +0.011 C 
ENDBRANCH   1  11
BRANCH   8  14
ATOM     14  C   UNL     1       2.317  -1.036  -6.237  0.00  0.00    +0.247 C 
ATOM     15  O   UNL     1       1.974  -0.155  -7.004  0.00  0.00    -0.270 OA
ATOM     16  N   UNL     1       2.170  -2.329  -6.586  0.00  0.00    -0.307 N 
ATOM     17  H   UNL     1       2.443  -3.030  -5.974  0.00  0.00    +0.149 HD
BRANCH  16  18
ATOM     18  C   UNL     1       1.597  -2.675  -7.889  0.00  0.00    +0.096 C 
ATOM     19  C   UNL     1       2.709  -2.679  -8.951  0.00  0.00    +0.046 C 
ATOM     20  C   UNL     1       2.148  -3.346 -10.239  0.00  0.00    +0.168 C 
ATOM     21  S   UNL     1       1.185  -4.735  -9.506  0.00  0.00    -0.029 S 
ATOM     22  O   UNL     1       2.014  -5.888  -9.441  0.00  0.00    -0.174 OA
ATOM     23  O   UNL     1      -0.076  -4.817 -10.156  0.00  0.00    -0.174 OA
ATOM     24  C   UNL     1       0.944  -4.076  -7.807  0.00  0.00    +0.188 C 
ENDBRANCH  16  18
ENDBRANCH   8  14
BRANCH   7  25
ATOM     25  N   UNL     1       5.250  -0.621  -5.726  0.00  0.00    -0.275 N 
ATOM     26  C   UNL     1       6.538  -0.414  -5.386  0.00  0.00    +0.250 C 
ATOM     27  O   UNL     1       6.827  -0.132  -4.239  0.00  0.00    -0.270 OA
ATOM     28  H   UNL     1       5.020  -0.847  -6.641  0.00  0.00    +0.156 HD
BRANCH  26  29
ATOM     29  C   UNL     1       7.599  -0.531  -6.407  0.00  0.00    +0.055 A 
ATOM     30  C   UNL     1       7.271  -0.850  -7.727  0.00  0.00    +0.014 A 
ATOM     31  C   UNL     1       8.266  -0.957  -8.675  0.00  0.00    +0.001 A 
ATOM     32  C   UNL     1       9.588  -0.750  -8.323  0.00  0.00    +0.001 A 
ATOM     33  C   UNL     1       9.922  -0.434  -7.018  0.00  0.00    +0.021 A 
ATOM     34  C   UNL     1       8.935  -0.317  -6.059  0.00  0.00    +0.053 A 
ATOM     35 CL   UNL     1       9.354   0.087  -4.423  0.00  0.00    -0.083 Cl
ENDBRANCH  26  29
ENDBRANCH   7  25
TORSDOF 5
