REMARK  Name = ZINC03853839
REMARK  10 active torsions:
REMARK  status: ('A' for Active; 'I' for Inactive)
REMARK    1  A    between atoms: C_1  and  C_2
REMARK    2  A    between atoms: C_2  and  O_3
REMARK    3  A    between atoms: O_3  and  C_4
REMARK    4  A    between atoms: C_9  and  N_10
REMARK    5  A    between atoms: C_14  and  C_32
REMARK    6  A    between atoms: C_20  and  S_21
REMARK    7  A    between atoms: S_21  and  C_22
REMARK    8  A    between atoms: C_22  and  C_23
REMARK    9  A    between atoms: N_25  and  C_26
REMARK   10  A    between atoms: C_26  and  C_27
REMARK                            x       y       z     vdW  Elec       q    Type
REMARK                         _______ _______ _______ _____ _____    ______ ____
ROOT
ATOM      1  N   UNL     1       2.363   3.886   0.001  0.00  0.00    -0.271 N 
ATOM      2  C   UNL     1       2.969   4.242   1.195  0.00  0.00    +0.124 A 
ATOM      3  N   UNL     1       2.440   3.920   2.351  0.00  0.00    -0.384 N 
ATOM      4  C   UNL     1       4.232   4.988   1.114  0.00  0.00    +0.082 A 
ATOM      5  C   UNL     1       5.127   5.511   2.064  0.00  0.00    +0.072 A 
ATOM      6  N   UNL     1       6.103   6.099   1.428  0.00  0.00    -0.177 NA
ATOM      7  N   UNL     1       5.894   5.990   0.048  0.00  0.00    -0.260 N 
ATOM      8  H   UNL     1       6.618   6.428  -0.654  0.00  0.00    +0.191 HD
ATOM      9  C   UNL     1       4.737   5.303  -0.155  0.00  0.00    +0.162 A 
ATOM     10  N   UNL     1       4.067   4.915  -1.250  0.00  0.00    -0.204 NA
ATOM     11  C   UNL     1       2.943   4.245  -1.185  0.00  0.00    +0.177 A 
ATOM     12  C   UNL     1       4.983   5.409   3.561  0.00  0.00    +0.068 C 
ATOM     13  H   UNL     1       2.941   4.214   3.285  0.00  0.00    +0.157 HD
ATOM     14  H   UNL     1       1.496   3.357   2.386  0.00  0.00    +0.157 HD
ENDROOT
BRANCH   1  20
ATOM     15  C   UNL     1      -0.058   3.846   0.023  0.00  0.00    +0.144 A 
ATOM     16  C   UNL     1      -1.245   3.131   0.031  0.00  0.00    +0.048 A 
ATOM     17  C   UNL     1      -1.220   1.749   0.017  0.00  0.00    +0.004 A 
ATOM     18  C   UNL     1      -0.013   1.076   0.008  0.00  0.00    +0.002 A 
ATOM     19  C   UNL     1       1.176   1.781   0.000  0.00  0.00    +0.030 A 
ATOM     20  C   UNL     1       1.159   3.168   0.008  0.00  0.00    +0.092 A 
BRANCH  15  21
ATOM     21  O   UNL     1      -0.081   5.205   0.031  0.00  0.00    -0.490 OA
BRANCH  21  23
ATOM     22  C   UNL     1      -1.191   7.352   0.054  0.00  0.00    +0.048 C 
ATOM     23  C   UNL     1      -1.365   5.832   0.047  0.00  0.00    +0.226 C 
ENDBRANCH  21  23
ENDBRANCH  15  21
ENDBRANCH   1  20
BRANCH  11  24
ATOM     24  S   UNL     1       2.145   3.786  -2.688  0.00  0.00    -0.078 S 
BRANCH  24  25
ATOM     25  C   UNL     1       3.304   4.489  -3.887  0.00  0.00    +0.173 C 
BRANCH  25  26
ATOM     26  C   UNL     1       2.812   4.212  -5.284  0.00  0.00    +0.224 C 
ATOM     27  O   UNL     1       1.780   3.598  -5.452  0.00  0.00    -0.275 OA
ATOM     28  N   UNL     1       3.520   4.645  -6.346  0.00  0.00    -0.308 N 
ATOM     29  H   UNL     1       4.456   5.201  -6.193  0.00  0.00    +0.149 HD
BRANCH  28  30
ATOM     30  C   UNL     1       3.041   4.375  -7.704  0.00  0.00    +0.178 C 
BRANCH  30  31
ATOM     31  C   UNL     1       4.006   4.960  -8.702  0.00  0.00    +0.122 A 
ATOM     32  C   UNL     1       5.069   4.329  -9.234  0.00  0.00    +0.046 A 
ATOM     33  C   UNL     1       5.690   5.243 -10.115  0.00  0.00    +0.041 A 
ATOM     34  C   UNL     1       4.970   6.379 -10.070  0.00  0.00    +0.195 A 
ATOM     35  O   UNL     1       3.948   6.200  -9.217  0.00  0.00    -0.466 OA
ENDBRANCH  30  31
ENDBRANCH  28  30
ENDBRANCH  25  26
ENDBRANCH  24  25
ENDBRANCH  11  24
TORSDOF 8
