REMARK  Name = ZINC64794402
REMARK  8 active torsions:
REMARK  status: ('A' for Active; 'I' for Inactive)
REMARK    1  A    between atoms: C_5  and  N_7
REMARK    2  A    between atoms: C_8  and  C_10
REMARK    3  A    between atoms: C_10  and  S_11
REMARK    4  A    between atoms: S_11  and  C_12
REMARK    5  A    between atoms: C_15  and  C_23
REMARK    6  A    between atoms: N_16  and  C_17
REMARK    7  A    between atoms: C_17  and  C_18
REMARK    8  A    between atoms: C_24  and  N_32
REMARK                            x       y       z     vdW  Elec       q    Type
REMARK                         _______ _______ _______ _____ _____    ______ ____
ROOT
ATOM      1  C   UNL     1      -1.371  -6.656   0.437  0.00  0.00    +0.193 A 
ATOM      2  N   UNL     1      -0.231  -7.308   0.429  0.00  0.00    -0.122 NA
ATOM      3  N   UNL     1      -0.442  -8.572   0.527  0.00  0.00    -0.128 NA
ATOM      4  C   UNL     1      -1.734  -8.807   0.605  0.00  0.00    +0.174 A 
ATOM      5  N   UNL     1      -2.369  -7.585   0.555  0.00  0.00    -0.294 N 
ENDROOT
BRANCH   4   6
ATOM      6  C   UNL     1      -2.378 -10.122   0.726  0.00  0.00    +0.080 A 
ATOM      7  C   UNL     1      -1.788 -11.347   0.789  0.00  0.00    +0.052 A 
ATOM      8  C   UNL     1      -2.632 -12.525   0.909  0.00  0.00    +0.029 A 
ATOM      9  C   UNL     1      -2.250 -13.887   0.990  0.00  0.00    +0.014 A 
ATOM     10  C   UNL     1      -3.228 -14.848   1.099  0.00  0.00    +0.020 A 
ATOM     11  C   UNL     1      -4.567 -14.486   1.130  0.00  0.00    +0.112 A 
ATOM     12  N   UNL     1      -4.918 -13.217   1.054  0.00  0.00    -0.248 NA
ATOM     13  C   UNL     1      -4.021 -12.262   0.949  0.00  0.00    +0.111 A 
ATOM     14  S   UNL     1      -4.118 -10.493   0.834  0.00  0.00    -0.064 S 
BRANCH   7  15
ATOM     15  N   UNL     1      -0.393 -11.471   0.738  0.00  0.00    -0.356 N 
ATOM     16  H   UNL     1       0.161 -10.679   0.657  0.00  0.00    +0.142 HD
ATOM     17  H   UNL     1       0.018 -12.348   0.783  0.00  0.00    +0.142 HD
ENDBRANCH   7  15
ENDBRANCH   4   6
BRANCH   1  18
ATOM     18  S   UNL     1      -1.576  -4.910   0.325  0.00  0.00    -0.077 S 
BRANCH  18  19
ATOM     19  C   UNL     1       0.118  -4.276   0.191  0.00  0.00    +0.173 C 
BRANCH  19  21
ATOM     20  N   UNL     1       1.237  -2.080  -0.022  0.00  0.00    -0.284 N 
ATOM     21  C   UNL     1       0.086  -2.773   0.087  0.00  0.00    +0.228 C 
ATOM     22  O   UNL     1      -0.976  -2.187   0.102  0.00  0.00    -0.275 OA
ATOM     23  H   UNL     1       2.080  -2.551  -0.115  0.00  0.00    +0.155 HD
BRANCH  20  28
ATOM     24  C   UNL     1       0.153   1.372   0.637  0.00  0.00    +0.002 A 
ATOM     25  C   UNL     1       1.173   2.086   0.035  0.00  0.00    +0.002 A 
ATOM     26  C   UNL     1       2.214   1.422  -0.586  0.00  0.00    +0.022 A 
ATOM     27  C   UNL     1       2.239   0.040  -0.607  0.00  0.00    +0.062 A 
ATOM     28  C   UNL     1       1.216  -0.681  -0.003  0.00  0.00    +0.052 A 
ATOM     29  C   UNL     1       0.172  -0.009   0.620  0.00  0.00    +0.025 A 
ATOM     30 CL   UNL     1       3.546  -0.795  -1.388  0.00  0.00    -0.082 Cl
ENDBRANCH  20  28
ENDBRANCH  19  21
ENDBRANCH  18  19
ENDBRANCH   1  18
BRANCH   5  31
ATOM     31  C   UNL     1      -3.811  -7.332   0.614  0.00  0.00    +0.200 C 
BRANCH  31  32
ATOM     32  C   UNL     1      -4.380  -7.345  -0.781  0.00  0.00    +0.125 A 
ATOM     33  C   UNL     1      -4.867  -8.423  -1.422  0.00  0.00    +0.046 A 
ATOM     34  C   UNL     1      -5.293  -7.984  -2.696  0.00  0.00    +0.041 A 
ATOM     35  C   UNL     1      -5.041  -6.664  -2.758  0.00  0.00    +0.195 A 
ATOM     36  O   UNL     1      -4.494  -6.281  -1.593  0.00  0.00    -0.466 OA
ENDBRANCH  31  32
ENDBRANCH   5  31
TORSDOF 8
