REMARK  Name = ZINC63098800
REMARK  8 active torsions:
REMARK  status: ('A' for Active; 'I' for Inactive)
REMARK    1  A    between atoms: C_1  and  N_2
REMARK    2  A    between atoms: C_4  and  C_12
REMARK    3  A    between atoms: C_13  and  C_14
REMARK    4  A    between atoms: C_13  and  N_28
REMARK    5  A    between atoms: N_16  and  C_17
REMARK    6  A    between atoms: C_17  and  C_18
REMARK    7  A    between atoms: C_18  and  C_19
REMARK    8  A    between atoms: C_29  and  C_31
REMARK                            x       y       z     vdW  Elec       q    Type
REMARK                         _______ _______ _______ _____ _____    ______ ____
ROOT
ATOM      1  C   UNL     1      -1.124  -3.022  -1.255  0.00  0.00    +0.011 C 
ATOM      2  C   UNL     1      -1.768  -4.186  -1.139  0.00  0.00    +0.093 C 
ENDROOT
BRANCH   1   6
ATOM      3  C   UNL     1      -0.072   1.478  -0.018  0.00  0.00    +0.129 C 
ATOM      4  N   UNL     1      -0.038   0.013  -0.021  0.00  0.00    -0.332 N 
ATOM      5  C   UNL     1      -1.220  -0.854  -0.013  0.00  0.00    +0.117 C 
ATOM      6  C   UNL     1      -0.667  -2.289  -0.020  0.00  0.00    +0.063 C 
ATOM      7  C   UNL     1       0.836  -2.116  -0.033  0.00  0.00    -0.018 A 
ATOM      8  C   UNL     1       1.124  -0.760  -0.038  0.00  0.00    +0.033 A 
ATOM      9  C   UNL     1       2.458  -0.351  -0.055  0.00  0.00    +0.023 A 
ATOM     10  C   UNL     1       3.472  -1.286  -0.071  0.00  0.00    +0.002 A 
ATOM     11  C   UNL     1       3.174  -2.636  -0.069  0.00  0.00    +0.000 A 
ATOM     12  C   UNL     1       1.855  -3.049  -0.043  0.00  0.00    +0.006 A 
ENDBRANCH   1   6
BRANCH   2  13
ATOM     13  C   UNL     1      -2.115  -4.960  -2.347  0.00  0.00    +0.258 C 
ATOM     14  O   UNL     1      -2.702  -6.020  -2.242  0.00  0.00    -0.269 OA
ATOM     15  N   UNL     1      -1.783  -4.492  -3.566  0.00  0.00    -0.310 N 
ATOM     16  H   UNL     1      -1.315  -3.646  -3.650  0.00  0.00    +0.149 HD
BRANCH  15  17
ATOM     17  C   UNL     1      -2.127  -5.260  -4.765  0.00  0.00    +0.109 C 
BRANCH  17  18
ATOM     18  C   UNL     1      -1.640  -4.513  -6.007  0.00  0.00    +0.052 C 
BRANCH  18  19
ATOM     19  C   UNL     1      -1.995  -5.303  -7.240  0.00  0.00    -0.040 C 
ATOM     20  C   UNL     1      -3.087  -5.144  -8.022  0.00  0.00    -0.001 A 
ATOM     21  C   UNL     1      -4.229  -4.223  -7.960  0.00  0.00    +0.010 A 
ATOM     22  C   UNL     1      -5.191  -4.306  -8.907  0.00  0.00    +0.001 A 
ATOM     23  C   UNL     1      -5.125  -5.247  -9.944  0.00  0.00    +0.002 A 
ATOM     24  C   UNL     1      -4.108  -6.126 -10.068  0.00  0.00    +0.026 A 
ATOM     25  C   UNL     1      -3.041  -6.128  -9.127  0.00  0.00    +0.043 A 
ATOM     26  N   UNL     1      -1.962  -6.867  -9.032  0.00  0.00    -0.380 N 
ATOM     27  C   UNL     1      -1.198  -6.431  -7.858  0.00  0.00    +0.144 C 
ATOM     28  H   UNL     1      -1.710  -7.580  -9.639  0.00  0.00    +0.160 HD
ENDBRANCH  18  19
ENDBRANCH  17  18
ENDBRANCH  15  17
ENDBRANCH   2  13
BRANCH   2  29
ATOM     29  N   UNL     1      -2.114  -4.673   0.128  0.00  0.00    -0.278 N 
ATOM     30  C   UNL     1      -1.648  -5.868   0.541  0.00  0.00    +0.248 C 
ATOM     31  O   UNL     1      -0.998  -6.562  -0.217  0.00  0.00    -0.270 OA
ATOM     32  H   UNL     1      -2.689  -4.149   0.708  0.00  0.00    +0.155 HD
BRANCH  30  33
ATOM     33  C   UNL     1      -1.927  -6.335   1.915  0.00  0.00    +0.037 A 
ATOM     34  C   UNL     1      -2.678  -5.543   2.786  0.00  0.00    +0.013 A 
ATOM     35  C   UNL     1      -2.934  -5.985   4.067  0.00  0.00    +0.001 A 
ATOM     36  C   UNL     1      -2.449  -7.210   4.490  0.00  0.00    +0.000 A 
ATOM     37  C   UNL     1      -1.704  -7.999   3.632  0.00  0.00    +0.001 A 
ATOM     38  C   UNL     1      -1.446  -7.572   2.346  0.00  0.00    +0.013 A 
ENDBRANCH  30  33
ENDBRANCH   2  29
TORSDOF 7
