REMARK  Name = ZINC39668378
REMARK  4 active torsions:
REMARK  status: ('A' for Active; 'I' for Inactive)
REMARK    1  A    between atoms: C_6  and  C_7
REMARK    2  A    between atoms: C_7  and  N_8
REMARK    3  A    between atoms: C_9  and  C_11
REMARK    4  A    between atoms: C_22  and  C_24
REMARK                            x       y       z     vdW  Elec       q    Type
REMARK                         _______ _______ _______ _____ _____    ______ ____
ROOT
ATOM      1  C   UNL     1      -3.319  -1.951  -3.012  0.00  0.00    +0.100 C 
ATOM      2  C   UNL     1      -3.732  -0.624  -3.688  0.00  0.00    +0.121 C 
ATOM      3  N   UNL     1      -4.899  -0.980  -4.529  0.00  0.00    -0.296 N 
ATOM      4  C   UNL     1      -5.668  -1.943  -3.705  0.00  0.00    +0.115 C 
ATOM      5  C   UNL     1      -4.593  -2.813  -3.025  0.00  0.00    -0.004 C 
ATOM      6  C   UNL     1      -5.015  -3.153  -1.599  0.00  0.00    -0.010 C 
ATOM      7  C   UNL     1      -6.248  -4.059  -1.638  0.00  0.00    -0.082 C 
ATOM      8  N   UNL     1      -5.934  -5.285  -2.382  0.00  0.00    +0.379 N 
ATOM      9  C   UNL     1      -5.619  -4.957  -3.778  0.00  0.00    -0.082 C 
ATOM     10  C   UNL     1      -4.359  -4.089  -3.829  0.00  0.00    -0.010 C 
ATOM     11  C   UNL     1      -5.194  -0.529  -5.765  0.00  0.00    +0.252 C 
ATOM     12  O   UNL     1      -6.198  -0.919  -6.330  0.00  0.00    -0.270 OA
ATOM     13  H   UNL     1      -5.139  -5.740  -1.958  0.00  0.00    -0.086 HD
ATOM     14  H   UNL     1      -6.728  -5.907  -2.355  0.00  0.00    -0.086 HD
ENDROOT
BRANCH  11  15
ATOM     15  C   UNL     1      -4.300   0.436  -6.432  0.00  0.00    +0.108 A 
ATOM     16  C   UNL     1      -3.250  -0.019  -7.238  0.00  0.00    +0.138 A 
ATOM     17  C   UNL     1      -2.417   0.892  -7.859  0.00  0.00    +0.041 A 
ATOM     18  C   UNL     1      -2.617   2.250  -7.686  0.00  0.00    +0.026 A 
ATOM     19  C   UNL     1      -3.653   2.708  -6.891  0.00  0.00    +0.077 A 
ATOM     20  C   UNL     1      -4.500   1.810  -6.266  0.00  0.00    +0.156 A 
ATOM     21  F   UNL     1      -5.514   2.260  -5.495  0.00  0.00    -0.203 F 
ATOM     22 CL   UNL     1      -3.893   4.415  -6.682  0.00  0.00    -0.081 Cl
ATOM     23  F   UNL     1      -3.051  -1.344  -7.407  0.00  0.00    -0.205 F 
ENDBRANCH  11  15
BRANCH   1  25
ATOM     24  N   UNL     1      -1.966  -2.520  -1.021  0.00  0.00    -0.311 N 
ATOM     25  C   UNL     1      -2.869  -1.700  -1.596  0.00  0.00    +0.218 C 
ATOM     26  O   UNL     1      -3.319  -0.762  -0.974  0.00  0.00    -0.275 OA
ATOM     27  H   UNL     1      -1.607  -3.271  -1.519  0.00  0.00    +0.149 HD
BRANCH  24  28
ATOM     28  C   UNL     1      -1.529  -2.276   0.356  0.00  0.00    +0.139 C 
BRANCH  28  34
ATOM     29  C   UNL     1       0.824  -3.117   0.537  0.00  0.00    +0.009 A 
ATOM     30  C   UNL     1       1.747  -4.073   0.907  0.00  0.00    +0.046 A 
ATOM     31  C   UNL     1       1.328  -5.259   1.503  0.00  0.00    +0.124 A 
ATOM     32  C   UNL     1      -0.031  -5.462   1.712  0.00  0.00    -0.002 A 
ATOM     33  C   UNL     1      -0.950  -4.504   1.347  0.00  0.00    +0.012 A 
ATOM     34  C   UNL     1      -0.525  -3.326   0.757  0.00  0.00    -0.030 A 
ATOM     35  C   UNL     1      -0.183  -6.831   2.345  0.00  0.00    +0.080 C 
ATOM     36  C   UNL     1       1.201  -7.465   2.075  0.00  0.00    +0.234 C 
ATOM     37  O   UNL     1       2.058  -6.317   1.951  0.00  0.00    -0.491 OA
ENDBRANCH  28  34
ENDBRANCH  24  28
ENDBRANCH   1  25
TORSDOF 4
