REMARK  Name = ZINC39678845
REMARK  8 active torsions:
REMARK  status: ('A' for Active; 'I' for Inactive)
REMARK    1  A    between atoms: C_1  and  C_2
REMARK    2  A    between atoms: C_2  and  C_3
REMARK    3  A    between atoms: C_2  and  O_4
REMARK    4  A    between atoms: O_4  and  C_5
REMARK    5  A    between atoms: C_5  and  C_7
REMARK    6  A    between atoms: C_7  and  N_8
REMARK    7  A    between atoms: C_9  and  C_11
REMARK    8  A    between atoms: C_22  and  C_24
REMARK                            x       y       z     vdW  Elec       q    Type
REMARK                         _______ _______ _______ _____ _____    ______ ____
ROOT
ATOM      1  C   UNL     1       6.523  -1.800  -2.496  0.00  0.00    +0.100 C 
ATOM      2  C   UNL     1       6.718  -2.768  -1.308  0.00  0.00    +0.121 C 
ATOM      3  N   UNL     1       7.008  -4.078  -1.937  0.00  0.00    -0.295 N 
ATOM      4  C   UNL     1       7.881  -3.749  -3.089  0.00  0.00    +0.115 C 
ATOM      5  C   UNL     1       7.291  -2.445  -3.662  0.00  0.00    -0.004 C 
ATOM      6  C   UNL     1       8.410  -1.522  -4.133  0.00  0.00    -0.010 C 
ATOM      7  C   UNL     1       9.122  -2.159  -5.330  0.00  0.00    -0.082 C 
ATOM      8  N   UNL     1       8.156  -2.383  -6.413  0.00  0.00    +0.379 N 
ATOM      9  C   UNL     1       7.135  -3.345  -5.982  0.00  0.00    -0.082 C 
ATOM     10  C   UNL     1       6.339  -2.758  -4.812  0.00  0.00    -0.010 C 
ATOM     11  C   UNL     1       6.576  -5.295  -1.549  0.00  0.00    +0.265 C 
ATOM     12  O   UNL     1       5.779  -5.394  -0.636  0.00  0.00    -0.268 OA
ATOM     13  H   UNL     1       7.713  -1.509  -6.653  0.00  0.00    -0.086 HD
ATOM     14  H   UNL     1       8.638  -2.746  -7.222  0.00  0.00    -0.086 HD
ENDROOT
BRANCH  11  15
ATOM     15  C   UNL     1       7.072  -6.511  -2.235  0.00  0.00    +0.126 A 
ATOM     16  C   UNL     1       6.525  -7.759  -1.899  0.00  0.00    +0.033 A 
ATOM     17  C   UNL     1       6.973  -8.887  -2.524  0.00  0.00    +0.012 A 
ATOM     18  C   UNL     1       7.982  -8.754  -3.496  0.00  0.00    +0.000 A 
ATOM     19  C   UNL     1       8.489  -9.871  -4.179  0.00  0.00    +0.010 A 
ATOM     20  C   UNL     1       9.465  -9.704  -5.113  0.00  0.00    +0.001 A 
ATOM     21  C   UNL     1       9.969  -8.437  -5.404  0.00  0.00    +0.002 A 
ATOM     22  C   UNL     1       9.502  -7.332  -4.764  0.00  0.00    +0.028 A 
ATOM     23  C   UNL     1       8.493  -7.463  -3.790  0.00  0.00    +0.072 A 
ATOM     24  N   UNL     1       8.014  -6.396  -3.151  0.00  0.00    -0.242 NA
ENDBRANCH  11  15
BRANCH   1  26
ATOM     25  N   UNL     1       4.585  -0.523  -3.353  0.00  0.00    -0.305 N 
ATOM     26  C   UNL     1       5.061  -1.674  -2.837  0.00  0.00    +0.219 C 
ATOM     27  O   UNL     1       4.311  -2.608  -2.646  0.00  0.00    -0.275 OA
ATOM     28  H   UNL     1       5.185   0.224  -3.506  0.00  0.00    +0.149 HD
BRANCH  25  29
ATOM     29  C   UNL     1       3.163  -0.402  -3.684  0.00  0.00    +0.224 C 
BRANCH  29  30
ATOM     30  C   UNL     1       2.893   0.972  -4.242  0.00  0.00    +0.325 C 
ATOM     31  O   UNL     1       3.796   1.768  -4.351  0.00  0.00    -0.249 OA
BRANCH  30  32
ATOM     32  O   UNL     1       1.650   1.312  -4.616  0.00  0.00    -0.461 OA
BRANCH  32  34
ATOM     33  C   UNL     1       1.669   2.614  -6.652  0.00  0.00    +0.052 C 
ATOM     34  C   UNL     1       1.467   2.631  -5.136  0.00  0.00    +0.170 C 
ATOM     35  C   UNL     1       0.050   3.113  -4.816  0.00  0.00    +0.052 C 
ENDBRANCH  32  34
ENDBRANCH  30  32
ENDBRANCH  29  30
ENDBRANCH  25  29
ENDBRANCH   1  26
TORSDOF 6
