REMARK  Name = ZINC13032406
REMARK  15 active torsions:
REMARK  status: ('A' for Active; 'I' for Inactive)
REMARK    1  A    between atoms: C_1  and  C_2
REMARK    2  A    between atoms: C_2  and  C_3
REMARK    3  A    between atoms: C_6  and  C_9
REMARK    4  A    between atoms: C_9  and  C_11
REMARK    5  A    between atoms: C_9  and  N_19
REMARK    6  A    between atoms: N_13  and  C_14
REMARK    7  A    between atoms: C_14  and  C_15
REMARK    8  A    between atoms: C_14  and  C_16
REMARK    9  A    between atoms: C_14  and  C_17
REMARK   10  A    between atoms: C_17  and  C_18
REMARK   11  A    between atoms: N_19  and  C_20
REMARK   12  A    between atoms: C_20  and  C_21
REMARK   13  A    between atoms: C_21  and  N_78
REMARK   14  A    between atoms: C_27  and  C_29
REMARK   15  A    between atoms: C_29  and  N_30
REMARK                            x       y       z     vdW  Elec       q    Type
REMARK                         _______ _______ _______ _____ _____    ______ ____
ROOT
ATOM      1  N   UNL     1      -5.495   4.147  -1.863  0.00  0.00    -0.286 N 
ATOM      2  C   UNL     1      -4.205   4.487  -1.671  0.00  0.00    +0.238 C 
ATOM      3  O   UNL     1      -3.344   4.032  -2.394  0.00  0.00    -0.274 OA
ENDROOT
BRANCH   1   4
ATOM      4  C   UNL     1      -5.857   3.228  -2.945  0.00  0.00    +0.192 C 
BRANCH   4   8
ATOM      5  C   UNL     1      -7.000  -0.540  -1.290  0.00  0.00    -0.048 A 
ATOM      6  C   UNL     1      -6.440  -0.481  -2.552  0.00  0.00    +0.004 A 
ATOM      7  C   UNL     1      -6.070   0.738  -3.088  0.00  0.00    +0.006 A 
ATOM      8  C   UNL     1      -6.261   1.899  -2.361  0.00  0.00    -0.018 A 
ATOM      9  C   UNL     1      -6.817   1.839  -1.097  0.00  0.00    +0.006 A 
ATOM     10  C   UNL     1      -7.191   0.620  -0.563  0.00  0.00    +0.004 A 
BRANCH   5  12
ATOM     11  C   UNL     1      -6.225  -2.465   0.069  0.00  0.00    +0.009 C 
ATOM     12  C   UNL     1      -7.403  -1.870  -0.706  0.00  0.00    +0.032 C 
ENDBRANCH   5  12
ENDBRANCH   4   8
BRANCH   4  13
ATOM     13  C   UNL     1      -7.010   3.804  -3.727  0.00  0.00    +0.238 C 
ATOM     14  O   UNL     1      -7.903   4.387  -3.151  0.00  0.00    -0.273 OA
ATOM     15  N   UNL     1      -7.048   3.670  -5.068  0.00  0.00    -0.308 N 
ATOM     16  H   UNL     1      -6.333   3.203  -5.529  0.00  0.00    +0.149 HD
BRANCH  15  17
ATOM     17  C   UNL     1      -8.168   4.229  -5.829  0.00  0.00    +0.029 C 
ATOM     18  C   UNL     1      -9.475   3.590  -5.356  0.00  0.00    +0.031 C 
ATOM     19  C   UNL     1      -8.230   5.742  -5.606  0.00  0.00    +0.031 C 
BRANCH  17  20
ATOM     20  C   UNL     1      -7.968   3.940  -7.318  0.00  0.00    +0.022 C 
ATOM     21  C   UNL     1      -9.137   4.524  -8.112  0.00  0.00    +0.006 C 
ENDBRANCH  17  20
ENDBRANCH  15  17
ENDBRANCH   4  13
ENDBRANCH   1   4
BRANCH   1  22
ATOM     22  C   UNL     1      -6.535   4.696  -0.989  0.00  0.00    +0.090 C 
BRANCH  22  23
ATOM     23  C   UNL     1      -6.771   6.167  -1.339  0.00  0.00    -0.059 C 
BRANCH  23  29
ATOM     24  C   UNL     1      -9.012   6.178  -0.422  0.00  0.00    -0.050 C 
ATOM     25  C   UNL     1      -9.897   6.790   0.668  0.00  0.00    +0.141 C 
ATOM     26  O   UNL     1      -9.921   8.211   0.513  0.00  0.00    -0.383 OA
ATOM     27  C   UNL     1      -8.629   8.820   0.584  0.00  0.00    +0.141 C 
ATOM     28  C   UNL     1      -7.732   8.229  -0.507  0.00  0.00    -0.050 C 
ATOM     29  N   UNL     1      -7.660   6.765  -0.320  0.00  0.00    +0.384 N 
ATOM     30  H   UNL     1      -7.279   6.566   0.613  0.00  0.00    -0.082 HD
ENDBRANCH  23  29
ENDBRANCH  22  23
ENDBRANCH   1  22
BRANCH   2  31
ATOM     31  C   UNL     1      -3.832   5.431  -0.558  0.00  0.00    +0.241 C 
BRANCH  31  32
ATOM     32  N   UNL     1      -2.382   5.640  -0.559  0.00  0.00    -0.235 N 
ATOM     33  C   UNL     1      -1.444   4.903   0.124  0.00  0.00    +0.090 A 
ATOM     34  C   UNL     1      -1.511   3.803   0.973  0.00  0.00    +0.029 A 
ATOM     35  C   UNL     1      -0.364   3.290   1.511  0.00  0.00    +0.002 A 
ATOM     36  C   UNL     1       0.870   3.850   1.209  0.00  0.00    +0.002 A 
ATOM     37  C   UNL     1       0.963   4.925   0.375  0.00  0.00    +0.032 A 
ATOM     38  C   UNL     1      -0.198   5.474  -0.185  0.00  0.00    +0.113 A 
ATOM     39  N   UNL     1      -0.418   6.508  -1.022  0.00  0.00    -0.129 NA
ATOM     40  N   UNL     1      -1.677   6.631  -1.258  0.00  0.00    -0.064 NA
ENDBRANCH  31  32
ENDBRANCH   2  31
TORSDOF 11
