REMARK  Name = ZINC09450024
REMARK  8 active torsions:
REMARK  status: ('A' for Active; 'I' for Inactive)
REMARK    1  A    between atoms: C_1  and  C_2
REMARK    2  A    between atoms: C_6  and  O_28
REMARK    3  A    between atoms: C_12  and  C_13
REMARK    4  A    between atoms: C_13  and  C_14
REMARK    5  A    between atoms: N_16  and  C_17
REMARK    6  A    between atoms: C_17  and  C_18
REMARK    7  A    between atoms: C_21  and  S_24
REMARK    8  A    between atoms: S_24  and  N_27
REMARK                            x       y       z     vdW  Elec       q    Type
REMARK                         _______ _______ _______ _____ _____    ______ ____
ROOT
ATOM      1  C   UNL     1       3.980   7.058   1.426  0.00  0.00    +0.218 C 
ATOM      2  O   UNL     1       3.333   6.616   2.351  0.00  0.00    -0.275 OA
ATOM      3  N   UNL     1       5.085   7.791   1.667  0.00  0.00    -0.311 N 
ATOM      4  H   UNL     1       5.603   8.145   0.927  0.00  0.00    +0.149 HD
ENDROOT
BRANCH   1   5
ATOM      5  C   UNL     1       3.549   6.788   0.007  0.00  0.00    +0.138 C 
BRANCH   5  17
ATOM      6  C   UNL     1       3.719   3.905  -0.011  0.00  0.00    +0.045 C 
ATOM      7  C   UNL     1       2.380   4.597   0.005  0.00  0.00    -0.029 A 
ATOM      8  C   UNL     1       1.135   3.826   0.012  0.00  0.00    +0.022 A 
ATOM      9  C   UNL     1       1.154   2.426   0.004  0.00  0.00    +0.035 A 
ATOM     10  C   UNL     1      -0.021   1.732   0.012  0.00  0.00    +0.083 A 
ATOM     11  C   UNL     1      -1.241   2.408   0.021  0.00  0.00    +0.139 A 
ATOM     12  C   UNL     1      -1.278   3.792   0.034  0.00  0.00    +0.093 A 
ATOM     13  C   UNL     1      -0.093   4.513   0.027  0.00  0.00    +0.143 A 
ATOM     14  O   UNL     1      -0.107   5.864   0.035  0.00  0.00    -0.422 OA
ATOM     15  C   UNL     1       1.030   6.576   0.029  0.00  0.00    +0.341 A 
ATOM     16  O   UNL     1       0.969   7.793   0.037  0.00  0.00    -0.245 OA
ATOM     17  C   UNL     1       2.295   5.953   0.014  0.00  0.00    +0.049 A 
ATOM     18 CL   UNL     1       0.002  -0.004   0.002  0.00  0.00    -0.080 Cl
BRANCH  11  19
ATOM     19  O   UNL     1      -2.402   1.704   0.022  0.00  0.00    -0.505 OA
ATOM     20  H   UNL     1      -2.734   1.495   0.906  0.00  0.00    +0.292 HD
ENDBRANCH  11  19
ENDBRANCH   5  17
ENDBRANCH   1   5
BRANCH   3  21
ATOM     21  C   UNL     1       5.504   8.054   3.046  0.00  0.00    +0.139 C 
BRANCH  21  22
ATOM     22  C   UNL     1       6.759   8.889   3.039  0.00  0.00    -0.030 A 
ATOM     23  C   UNL     1       7.997   8.276   3.030  0.00  0.00    +0.007 A 
ATOM     24  C   UNL     1       9.148   9.042   3.020  0.00  0.00    +0.029 A 
ATOM     25  C   UNL     1       9.059  10.422   3.028  0.00  0.00    +0.105 A 
ATOM     26  C   UNL     1       7.821  11.035   3.042  0.00  0.00    +0.029 A 
ATOM     27  C   UNL     1       6.670  10.269   3.049  0.00  0.00    +0.007 A 
BRANCH  25  28
ATOM     28  S   UNL     1      10.526  11.399   3.019  0.00  0.00    +0.056 S 
ATOM     29  O   UNL     1      11.549  10.590   2.455  0.00  0.00    -0.153 OA
ATOM     30  O   UNL     1      10.168  12.663   2.478  0.00  0.00    -0.153 OA
BRANCH  28  31
ATOM     31  N   UNL     1      10.948  11.662   4.599  0.00  0.00    -0.204 NA
ATOM     32  H   UNL     1      11.881  11.776   4.839  0.00  0.00    +0.144 HD
ATOM     33  H   UNL     1      10.263  11.702   5.284  0.00  0.00    +0.144 HD
ENDBRANCH  28  31
ENDBRANCH  25  28
ENDBRANCH  21  22
ENDBRANCH   3  21
TORSDOF 7
