REMARK  Name = ZINC00820851
REMARK  13 active torsions:
REMARK  status: ('A' for Active; 'I' for Inactive)
REMARK    1  A    between atoms: C_1  and  C_2
REMARK    2  A    between atoms: C_3  and  C_25
REMARK    3  A    between atoms: C_4  and  C_10
REMARK    4  A    between atoms: C_12  and  C_21
REMARK    5  A    between atoms: C_13  and  O_20
REMARK    6  A    between atoms: C_14  and  C_16
REMARK    7  A    between atoms: C_16  and  C_17
REMARK    8  A    between atoms: C_16  and  C_18
REMARK    9  A    between atoms: C_16  and  C_19
REMARK   10  A    between atoms: C_21  and  C_22
REMARK   11  A    between atoms: C_21  and  C_23
REMARK   12  A    between atoms: C_21  and  C_24
REMARK   13  A    between atoms: N_27  and  C_28
REMARK                            x       y       z     vdW  Elec       q    Type
REMARK                         _______ _______ _______ _____ _____    ______ ____
ROOT
ATOM      1  C   UNL     1      -0.091   5.771   0.397  0.00  0.00    +0.061 C 
ATOM      2  C   UNL     1       0.224   4.299   0.317  0.00  0.00    +0.019 C 
ATOM      3  C   UNL     1       1.506   3.888   0.411  0.00  0.00    +0.056 C 
ATOM      4  C   UNL     1       1.778   2.400   0.326  0.00  0.00    +0.142 C 
ATOM      5  N   UNL     1       0.612   1.518   0.147  0.00  0.00    -0.288 N 
ATOM      6  C   UNL     1      -0.610   2.079   0.065  0.00  0.00    +0.304 C 
ATOM      7  O   UNL     1      -1.578   1.360  -0.088  0.00  0.00    -0.252 OA
ATOM      8  N   UNL     1      -0.794   3.402   0.152  0.00  0.00    -0.273 N 
ATOM      9  H   UNL     1       0.722   0.556   0.086  0.00  0.00    +0.151 HD
ATOM     10  H   UNL     1      -1.700   3.744   0.089  0.00  0.00    +0.156 HD
ENDROOT
BRANCH   4  11
ATOM     11  C   UNL     1       2.485   1.985   1.590  0.00  0.00    -0.022 A 
ATOM     12  C   UNL     1       1.759   1.763   2.746  0.00  0.00    +0.013 A 
ATOM     13  C   UNL     1       2.404   1.377   3.905  0.00  0.00    +0.000 A 
ATOM     14  C   UNL     1       3.783   1.223   3.911  0.00  0.00    +0.124 A 
ATOM     15  C   UNL     1       4.510   1.452   2.752  0.00  0.00    +0.000 A 
ATOM     16  C   UNL     1       3.859   1.833   1.594  0.00  0.00    +0.013 A 
BRANCH  15  17
ATOM     17  C   UNL     1       6.007   1.285   2.755  0.00  0.00    -0.009 C 
ATOM     18  C   UNL     1       6.543   1.462   1.333  0.00  0.00    +0.015 C 
ATOM     19  C   UNL     1       6.636   2.336   3.672  0.00  0.00    +0.015 C 
ATOM     20  C   UNL     1       6.363  -0.114   3.264  0.00  0.00    +0.015 C 
ENDBRANCH  15  17
BRANCH  13  21
ATOM     21  C   UNL     1       1.611   1.128   5.162  0.00  0.00    -0.009 C 
ATOM     22  C   UNL     1       0.126   1.367   4.884  0.00  0.00    +0.015 C 
ATOM     23  C   UNL     1       1.819  -0.317   5.619  0.00  0.00    +0.015 C 
ATOM     24  C   UNL     1       2.085   2.083   6.260  0.00  0.00    +0.015 C 
ENDBRANCH  13  21
BRANCH  14  25
ATOM     25  O   UNL     1       4.420   0.848   5.051  0.00  0.00    -0.506 OA
ATOM     26  H   UNL     1       4.699   1.589   5.608  0.00  0.00    +0.292 HD
ENDBRANCH  14  25
ENDBRANCH   4  11
BRANCH   3  27
ATOM     27  C   UNL     1       2.561   4.817   0.583  0.00  0.00    +0.248 C 
ATOM     28  O   UNL     1       3.275   5.109  -0.359  0.00  0.00    -0.270 OA
ATOM     29  N   UNL     1       2.776   5.378   1.790  0.00  0.00    -0.282 N 
ATOM     30  H   UNL     1       2.135   5.246   2.507  0.00  0.00    +0.155 HD
BRANCH  29  31
ATOM     31  C   UNL     1       3.921   6.150   2.009  0.00  0.00    +0.034 A 
ATOM     32  C   UNL     1       4.569   6.752   0.939  0.00  0.00    +0.023 A 
ATOM     33  C   UNL     1       5.697   7.518   1.159  0.00  0.00    +0.002 A 
ATOM     34  C   UNL     1       6.187   7.677   2.442  0.00  0.00    +0.000 A 
ATOM     35  C   UNL     1       5.547   7.074   3.510  0.00  0.00    +0.002 A 
ATOM     36  C   UNL     1       4.415   6.312   3.297  0.00  0.00    +0.023 A 
ENDBRANCH  29  31
ENDBRANCH   3  27
TORSDOF 6
