REMARK  Name = ZINC06148094
REMARK  8 active torsions:
REMARK  status: ('A' for Active; 'I' for Inactive)
REMARK    1  A    between atoms: C_1  and  O_2
REMARK    2  A    between atoms: O_2  and  C_3
REMARK    3  A    between atoms: C_5  and  C_11
REMARK    4  A    between atoms: C_8  and  O_9
REMARK    5  A    between atoms: C_13  and  C_25
REMARK    6  A    between atoms: C_15  and  C_20
REMARK    7  A    between atoms: C_15  and  O_24
REMARK    8  A    between atoms: C_25  and  C_27
REMARK                            x       y       z     vdW  Elec       q    Type
REMARK                         _______ _______ _______ _____ _____    ______ ____
ROOT
ATOM      1  C   UNL     1       2.485   1.052  -0.011  0.00  0.00    +0.118 C 
ATOM      2  C   UNL     1       2.885   0.672   1.418  0.00  0.00    +0.144 C 
ATOM      3  C   UNL     1       4.157  -0.180   1.358  0.00  0.00    +0.241 C 
ATOM      4  N   UNL     1       3.923  -1.331   0.485  0.00  0.00    -0.291 N 
ATOM      5  C   UNL     1       3.053  -1.269  -0.534  0.00  0.00    +0.133 C 
ATOM      6  S   UNL     1       2.842  -2.651  -1.522  0.00  0.00    -0.019 S 
ATOM      7  N   UNL     1       2.341  -0.165  -0.811  0.00  0.00    -0.319 N 
ATOM      8  H   UNL     1       4.407  -2.156   0.646  0.00  0.00    +0.151 HD
ATOM      9  H   UNL     1       1.719  -0.174  -1.555  0.00  0.00    +0.148 HD
ENDROOT
BRANCH   1  12
ATOM     10  C   UNL     1      -1.222   1.781  -0.066  0.00  0.00    +0.163 A 
ATOM     11  C   UNL     1      -0.016   1.099  -0.089  0.00  0.00    +0.055 A 
ATOM     12  C   UNL     1       1.174   1.796   0.014  0.00  0.00    -0.022 A 
ATOM     13  C   UNL     1       1.164   3.173   0.139  0.00  0.00    +0.024 A 
ATOM     14  C   UNL     1      -0.036   3.859   0.168  0.00  0.00    +0.063 A 
ATOM     15  C   UNL     1      -1.233   3.166   0.060  0.00  0.00    +0.173 A 
ATOM     16 BR   UNL     1      -0.046   5.741   0.347  0.00  0.00    -0.046 Br
BRANCH  10  18
ATOM     17  C   UNL     1      -2.306  -0.324  -0.294  0.00  0.00    +0.277 C 
ATOM     18  O   UNL     1      -2.393   1.097  -0.167  0.00  0.00    -0.491 OA
ENDBRANCH  10  18
BRANCH  15  19
ATOM     19  O   UNL     1      -2.414   3.840   0.083  0.00  0.00    -0.503 OA
ATOM     20  H   UNL     1      -2.785   3.954   0.969  0.00  0.00    +0.292 HD
ENDBRANCH  15  19
ENDBRANCH   1  12
BRANCH   3  21
ATOM     21  C   UNL     1       5.309   0.658   0.800  0.00  0.00    +0.436 C 
ATOM     22  F   UNL     1       5.527   1.762   1.631  0.00  0.00    -0.166 F 
ATOM     23  F   UNL     1       6.470  -0.121   0.745  0.00  0.00    -0.166 F 
ATOM     24  F   UNL     1       4.983   1.100  -0.487  0.00  0.00    -0.166 F 
ENDBRANCH   3  21
BRANCH   3  25
ATOM     25  O   UNL     1       4.489  -0.636   2.671  0.00  0.00    -0.364 OA
ATOM     26  H   UNL     1       5.286  -1.183   2.708  0.00  0.00    +0.212 HD
ENDBRANCH   3  25
BRANCH   2  27
ATOM     27  C   UNL     1       1.774  -0.115   2.063  0.00  0.00    +0.173 C 
ATOM     28  O   UNL     1       1.111  -0.883   1.399  0.00  0.00    -0.292 OA
BRANCH  27  29
ATOM     29  C   UNL     1       1.493   0.048   3.498  0.00  0.00    +0.018 A 
ATOM     30  C   UNL     1       2.260   0.929   4.269  0.00  0.00    +0.011 A 
ATOM     31  C   UNL     1       1.987   1.081   5.612  0.00  0.00    +0.001 A 
ATOM     32  C   UNL     1       0.966   0.355   6.200  0.00  0.00    +0.000 A 
ATOM     33  C   UNL     1       0.206  -0.522   5.446  0.00  0.00    +0.001 A 
ATOM     34  C   UNL     1       0.463  -0.680   4.100  0.00  0.00    +0.011 A 
ENDBRANCH  27  29
ENDBRANCH   2  27
TORSDOF 7
