REMARK  Name = ZINC20883304
REMARK  6 active torsions:
REMARK  status: ('A' for Active; 'I' for Inactive)
REMARK    1  A    between atoms: C_1  and  C_2
REMARK    2  A    between atoms: C_2  and  C_3
REMARK    3  A    between atoms: C_2  and  O_4
REMARK    4  A    between atoms: O_4  and  C_5
REMARK    5  A    between atoms: C_8  and  C_11
REMARK    6  A    between atoms: C_16  and  C_26
REMARK                            x       y       z     vdW  Elec       q    Type
REMARK                         _______ _______ _______ _____ _____    ______ ____
ROOT
ATOM      1  C   UNL     1       6.677  -3.038  -3.631  0.00  0.00    +0.032 C 
ATOM      2  C   UNL     1       7.170  -1.618  -3.355  0.00  0.00    +0.059 C 
ATOM      3  C   UNL     1       6.827  -1.220  -1.929  0.00  0.00    +0.017 C 
ATOM      4  C   UNL     1       5.708  -1.676  -1.346  0.00  0.00    +0.037 C 
ATOM      5  C   UNL     1       5.225  -1.337   0.044  0.00  0.00    +0.143 C 
ATOM      6  N   UNL     1       6.204  -0.653   0.864  0.00  0.00    -0.331 N 
ATOM      7  C   UNL     1       6.662   0.619   0.527  0.00  0.00    +0.049 A 
ATOM      8  C   UNL     1       6.403   1.718   1.331  0.00  0.00    +0.025 A 
ATOM      9  C   UNL     1       6.840   2.970   0.933  0.00  0.00    +0.002 A 
ATOM     10  C   UNL     1       7.527   3.126  -0.257  0.00  0.00    +0.002 A 
ATOM     11  C   UNL     1       7.803   2.027  -1.054  0.00  0.00    +0.025 A 
ATOM     12  C   UNL     1       7.385   0.772  -0.646  0.00  0.00    +0.052 A 
ATOM     13  N   UNL     1       7.720  -0.384  -1.343  0.00  0.00    -0.316 N 
ATOM     14  C   UNL     1       4.855  -2.569  -2.042  0.00  0.00    +0.163 C 
ATOM     15  O   UNL     1       3.841  -2.958  -1.495  0.00  0.00    -0.292 OA
ATOM     16  C   UNL     1       5.157  -3.051  -3.429  0.00  0.00    +0.088 C 
ATOM     17  H   UNL     1       6.597  -1.138   1.769  0.00  0.00    +0.147 HD
ATOM     18  H   UNL     1       8.797  -0.601  -1.401  0.00  0.00    +0.152 HD
ENDROOT
BRANCH   5  19
ATOM     19  C   UNL     1       4.005  -0.461  -0.074  0.00  0.00    +0.059 A 
ATOM     20  C   UNL     1       3.776   0.233  -1.204  0.00  0.00    +0.205 A 
ATOM     21  O   UNL     1       2.711   1.025  -1.366  0.00  0.00    -0.462 OA
ATOM     22  C   UNL     1       1.780   1.190  -0.403  0.00  0.00    +0.138 A 
ATOM     23  C   UNL     1       0.684   2.021  -0.604  0.00  0.00    +0.048 A 
ATOM     24  C   UNL     1      -0.255   2.174   0.394  0.00  0.00    +0.023 A 
ATOM     25  C   UNL     1      -0.118   1.506   1.604  0.00  0.00    +0.042 A 
ATOM     26  C   UNL     1       0.962   0.677   1.822  0.00  0.00    +0.035 A 
ATOM     27  C   UNL     1       1.917   0.515   0.820  0.00  0.00    +0.066 A 
ATOM     28  C   UNL     1       3.090  -0.361   1.008  0.00  0.00    +0.198 A 
ATOM     29  O   UNL     1       3.265  -0.974   2.047  0.00  0.00    -0.287 OA
ATOM     30 CL   UNL     1      -1.313   1.714   2.846  0.00  0.00    -0.084 Cl
ENDBRANCH   5  19
BRANCH   1  34
ATOM     31  C   UNL     1       7.615  -4.139  -7.652  0.00  0.00    +0.121 A 
ATOM     32  C   UNL     1       8.124  -4.877  -6.593  0.00  0.00    +0.046 A 
ATOM     33  C   UNL     1       7.819  -4.519  -5.294  0.00  0.00    +0.007 A 
ATOM     34  C   UNL     1       7.008  -3.426  -5.050  0.00  0.00    -0.043 A 
ATOM     35  C   UNL     1       6.495  -2.693  -6.104  0.00  0.00    +0.007 A 
ATOM     36  C   UNL     1       6.802  -3.043  -7.404  0.00  0.00    +0.046 A 
BRANCH  31  37
ATOM     37  O   UNL     1       7.914  -4.489  -8.931  0.00  0.00    -0.489 OA
BRANCH  37  39
ATOM     38  C   UNL     1       8.105  -6.896  -9.039  0.00  0.00    +0.051 C 
ATOM     39  C   UNL     1       8.845  -5.559  -9.110  0.00  0.00    +0.167 C 
ATOM     40  C   UNL     1       9.521  -5.423 -10.476  0.00  0.00    +0.051 C 
ENDBRANCH  37  39
ENDBRANCH  31  37
ENDBRANCH   1  34
TORSDOF 4
