REMARK  Name = ZINC13117979
REMARK  7 active torsions:
REMARK  status: ('A' for Active; 'I' for Inactive)
REMARK    1  A    between atoms: C_1  and  O_2
REMARK    2  A    between atoms: O_2  and  C_3
REMARK    3  A    between atoms: C_6  and  C_9
REMARK    4  A    between atoms: C_9  and  C_11
REMARK    5  A    between atoms: C_9  and  N_17
REMARK    6  A    between atoms: C_18  and  C_20
REMARK    7  A    between atoms: C_20  and  N_21
REMARK                            x       y       z     vdW  Elec       q    Type
REMARK                         _______ _______ _______ _____ _____    ______ ____
ROOT
ATOM      1  N   UNL     1       3.266  -3.664  -3.913  0.00  0.00    -0.303 N 
ATOM      2  C   UNL     1       4.317  -4.114  -4.627  0.00  0.00    +0.232 C 
ATOM      3  O   UNL     1       4.633  -3.557  -5.657  0.00  0.00    -0.274 OA
ATOM      4  H   UNL     1       3.013  -4.109  -3.089  0.00  0.00    +0.150 HD
ENDROOT
BRANCH   1   5
ATOM      5  C   UNL     1       2.505  -2.503  -4.381  0.00  0.00    +0.134 C 
BRANCH   5   9
ATOM      6  C   UNL     1       0.606  -0.607  -1.056  0.00  0.00    +0.120 A 
ATOM      7  C   UNL     1       1.173   0.161  -2.062  0.00  0.00    +0.046 A 
ATOM      8  C   UNL     1       1.786  -0.455  -3.136  0.00  0.00    +0.009 A 
ATOM      9  C   UNL     1       1.835  -1.835  -3.209  0.00  0.00    -0.023 A 
ATOM     10  C   UNL     1       1.270  -2.602  -2.207  0.00  0.00    +0.009 A 
ATOM     11  C   UNL     1       0.661  -1.992  -1.128  0.00  0.00    +0.046 A 
BRANCH   6  13
ATOM     12  C   UNL     1      -0.017   1.425   0.010  0.00  0.00    +0.277 C 
ATOM     13  O   UNL     1       0.002  -0.004   0.002  0.00  0.00    -0.495 OA
ENDBRANCH   6  13
ENDBRANCH   5   9
BRANCH   5  14
ATOM     14  C   UNL     1       1.458  -2.954  -5.367  0.00  0.00    -0.023 A 
ATOM     15  C   UNL     1       0.753  -4.122  -5.142  0.00  0.00    +0.006 A 
ATOM     16  C   UNL     1      -0.207  -4.535  -6.046  0.00  0.00    +0.000 A 
ATOM     17  C   UNL     1      -0.463  -3.781  -7.176  0.00  0.00    +0.000 A 
ATOM     18  C   UNL     1       0.241  -2.613  -7.401  0.00  0.00    +0.000 A 
ATOM     19  C   UNL     1       1.199  -2.197  -6.495  0.00  0.00    +0.006 A 
ENDBRANCH   5  14
ENDBRANCH   1   5
BRANCH   2  20
ATOM     20  C   UNL     1       5.100  -5.307  -4.144  0.00  0.00    +0.213 C 
BRANCH  20  21
ATOM     21  N   UNL     1       6.183  -5.594  -5.088  0.00  0.00    -0.215 N 
ATOM     22  C   UNL     1       6.064  -6.416  -6.154  0.00  0.00    +0.251 C 
ATOM     23  O   UNL     1       5.080  -7.033  -6.501  0.00  0.00    -0.272 OA
ATOM     24  C   UNL     1       7.416  -6.400  -6.819  0.00  0.00    +0.138 C 
ATOM     25  C   UNL     1       8.027  -7.807  -6.872  0.00  0.00    +0.045 C 
ATOM     26  C   UNL     1       8.831  -7.763  -8.191  0.00  0.00    +0.038 C 
ATOM     27  C   UNL     1       8.145  -6.712  -9.040  0.00  0.00    -0.042 A 
ATOM     28  C   UNL     1       7.330  -5.925  -8.244  0.00  0.00    -0.012 A 
ATOM     29  C   UNL     1       6.603  -4.894  -8.815  0.00  0.00    +0.006 A 
ATOM     30  C   UNL     1       6.688  -4.649 -10.171  0.00  0.00    +0.000 A 
ATOM     31  C   UNL     1       7.502  -5.435 -10.965  0.00  0.00    +0.000 A 
ATOM     32  C   UNL     1       8.229  -6.464 -10.399  0.00  0.00    +0.004 A 
ATOM     33  N   UNL     1       8.223  -5.500  -5.994  0.00  0.00    -0.281 N 
ATOM     34  C   UNL     1       7.413  -5.070  -5.005  0.00  0.00    +0.310 C 
ATOM     35  O   UNL     1       7.761  -4.298  -4.133  0.00  0.00    -0.252 OA
ATOM     36  H   UNL     1       9.152  -5.258  -6.133  0.00  0.00    +0.152 HD
ENDBRANCH  20  21
ENDBRANCH   2  20
TORSDOF 6
