REMARK  Name = ZINC39445385
REMARK  8 active torsions:
REMARK  status: ('A' for Active; 'I' for Inactive)
REMARK    1  A    between atoms: C_4  and  C_7
REMARK    2  A    between atoms: C_11  and  C_14
REMARK    3  A    between atoms: C_14  and  N_15
REMARK    4  A    between atoms: C_16  and  C_18
REMARK    5  A    between atoms: C_21  and  C_25
REMARK    6  A    between atoms: C_25  and  N_26
REMARK    7  A    between atoms: C_30  and  C_32
REMARK    8  A    between atoms: C_32  and  O_33
REMARK                            x       y       z     vdW  Elec       q    Type
REMARK                         _______ _______ _______ _____ _____    ______ ____
ROOT
ATOM      1  C   UNL     1       1.526  -6.129  -0.797  0.00  0.00    +0.101 A 
ATOM      2  C   UNL     1       0.904  -7.372  -0.704  0.00  0.00    +0.020 A 
ATOM      3  C   UNL     1      -0.231  -7.619  -1.476  0.00  0.00    +0.020 A 
ATOM      4  C   UNL     1      -0.716  -6.656  -2.302  0.00  0.00    +0.003 A 
ATOM      5  N   UNL     1      -0.116  -5.445  -2.397  0.00  0.00    -0.327 N 
ATOM      6  C   UNL     1       0.979  -5.153  -1.669  0.00  0.00    +0.261 A 
ATOM      7  O   UNL     1       1.501  -4.056  -1.765  0.00  0.00    -0.267 OA
ATOM      8  H   UNL     1      -0.484  -4.777  -2.996  0.00  0.00    +0.169 HD
ENDROOT
BRANCH   1  10
ATOM      9  N   UNL     1       3.249  -4.589  -0.008  0.00  0.00    -0.309 N 
ATOM     10  C   UNL     1       2.726  -5.831   0.001  0.00  0.00    +0.249 C 
ATOM     11  O   UNL     1       3.245  -6.705   0.668  0.00  0.00    -0.270 OA
ATOM     12  H   UNL     1       2.880  -3.911  -0.596  0.00  0.00    +0.149 HD
BRANCH   9  13
ATOM     13  C   UNL     1       4.375  -4.262   0.871  0.00  0.00    +0.134 C 
BRANCH  13  17
ATOM     14  C   UNL     1       3.685  -0.702   0.001  0.00  0.00    +0.095 C 
ATOM     15  C   UNL     1       4.008  -1.156  -1.455  0.00  0.00    +0.094 C 
ATOM     16  S   UNL     1       5.234  -2.485  -1.087  0.00  0.00    -0.139 S 
ATOM     17  C   UNL     1       4.773  -2.799   0.667  0.00  0.00    +0.130 C 
ATOM     18  N   UNL     1       3.606  -1.900   0.857  0.00  0.00    -0.296 NA
ATOM     19  H   UNL     1       3.503  -1.644   1.828  0.00  0.00    +0.124 HD
BRANCH  14  23
ATOM     20  C   UNL     1      -0.053   1.364   0.064  0.00  0.00    +0.000 A 
ATOM     21  C   UNL     1       1.131   2.077   0.062  0.00  0.00    +0.000 A 
ATOM     22  C   UNL     1       2.341   1.409   0.041  0.00  0.00    +0.005 A 
ATOM     23  C   UNL     1       2.367   0.027   0.024  0.00  0.00    -0.030 A 
ATOM     24  C   UNL     1       1.183  -0.687   0.027  0.00  0.00    +0.005 A 
ATOM     25  C   UNL     1      -0.027  -0.018   0.046  0.00  0.00    +0.000 A 
ENDBRANCH  14  23
ENDBRANCH  13  17
ENDBRANCH   9  13
ENDBRANCH   1  10
BRANCH   4  26
ATOM     26  C   UNL     1      -1.943  -6.940  -3.128  0.00  0.00    -0.024 C 
BRANCH  26  27
ATOM     27  N   UNL     1      -3.039  -6.062  -2.695  0.00  0.00    +0.387 N 
ATOM     28  C   UNL     1      -3.435  -6.406  -1.313  0.00  0.00    -0.078 C 
ATOM     29  C   UNL     1      -4.971  -6.209  -1.281  0.00  0.00    -0.020 C 
ATOM     30  C   UNL     1      -5.381  -6.710  -2.691  0.00  0.00    -0.015 C 
ATOM     31  C   UNL     1      -4.205  -6.252  -3.578  0.00  0.00    -0.042 C 
ATOM     32  H   UNL     1      -2.738  -5.100  -2.731  0.00  0.00    -0.081 HD
BRANCH  31  33
ATOM     33  C   UNL     1      -4.556  -4.931  -4.266  0.00  0.00    +0.140 C 
BRANCH  33  34
ATOM     34  O   UNL     1      -4.980  -3.981  -3.286  0.00  0.00    -0.397 OA
ATOM     35  H   UNL     1      -5.219  -3.119  -3.652  0.00  0.00    +0.209 HD
ENDBRANCH  33  34
ENDBRANCH  31  33
ENDBRANCH  26  27
ENDBRANCH   4  26
TORSDOF 8
