REMARK  Name = ZINC13756349
REMARK  13 active torsions:
REMARK  status: ('A' for Active; 'I' for Inactive)
REMARK    1  A    between atoms: C_1  and  C_2
REMARK    2  A    between atoms: C_2  and  C_3
REMARK    3  A    between atoms: C_3  and  C_4
REMARK    4  A    between atoms: C_5  and  C_27
REMARK    5  A    between atoms: C_17  and  C_21
REMARK    6  A    between atoms: C_18  and  N_20
REMARK    7  A    between atoms: C_21  and  O_23
REMARK    8  A    between atoms: O_23  and  C_24
REMARK    9  A    between atoms: C_24  and  C_25
REMARK   10  A    between atoms: C_24  and  C_26
REMARK   11  A    between atoms: C_27  and  O_29
REMARK   12  A    between atoms: O_29  and  C_30
REMARK   13  A    between atoms: C_30  and  C_31
REMARK                            x       y       z     vdW  Elec       q    Type
REMARK                         _______ _______ _______ _____ _____    ______ ____
ROOT
ATOM      1  C   UNL     1       1.864   5.135   1.030  0.00  0.00    +0.119 C 
ATOM      2  C   UNL     1       1.231   3.982   1.287  0.00  0.00    +0.099 C 
ATOM      3  C   UNL     1       0.462   3.270   0.212  0.00  0.00    +0.145 C 
ATOM      4  C   UNL     1      -1.022   3.412   0.441  0.00  0.00    -0.001 A 
ATOM      5  C   UNL     1      -1.865   4.500   0.498  0.00  0.00    +0.022 A 
ATOM      6  C   UNL     1      -3.220   4.313   0.715  0.00  0.00    +0.018 A 
ATOM      7  C   UNL     1      -3.720   3.034   0.883  0.00  0.00    +0.017 A 
ATOM      8  C   UNL     1      -2.877   1.944   0.831  0.00  0.00    +0.025 A 
ATOM      9  C   UNL     1      -1.514   2.123   0.607  0.00  0.00    +0.038 A 
ATOM     10  N   UNL     1      -0.475   1.195   0.513  0.00  0.00    -0.284 N 
ATOM     11  C   UNL     1       0.713   1.782   0.282  0.00  0.00    +0.237 C 
ATOM     12  O   UNL     1       1.782   1.224   0.155  0.00  0.00    -0.274 OA
ATOM     13 BR   UNL     1      -4.382   5.803   0.790  0.00  0.00    -0.050 Br
ATOM     14  C   UNL     1       0.838   3.799  -1.142  0.00  0.00    +0.117 C 
ATOM     15  C   UNL     1       1.504   4.979  -1.258  0.00  0.00    +0.195 C 
ATOM     16  O   UNL     1       1.843   5.708  -0.182  0.00  0.00    -0.445 OA
ATOM     17  H   UNL     1      -0.596   0.236   0.601  0.00  0.00    +0.155 HD
ENDROOT
BRANCH  15  18
ATOM     18  N   UNL     1       1.839   5.435  -2.505  0.00  0.00    -0.329 N 
ATOM     19  H   UNL     1       2.073   4.806  -3.205  0.00  0.00    +0.145 HD
ATOM     20  H   UNL     1       1.843   6.388  -2.688  0.00  0.00    +0.145 HD
ENDBRANCH  15  18
BRANCH  14  21
ATOM     21  C   UNL     1       0.500   3.072  -2.293  0.00  0.00    +0.342 C 
ATOM     22  O   UNL     1       0.710   3.546  -3.396  0.00  0.00    -0.245 OA
BRANCH  21  23
ATOM     23  O   UNL     1      -0.057   1.847  -2.179  0.00  0.00    -0.458 OA
BRANCH  23  24
ATOM     24  C   UNL     1      -0.376   1.164  -3.393  0.00  0.00    +0.171 C 
ATOM     25  C   UNL     1       0.824   0.322  -3.834  0.00  0.00    +0.052 C 
ATOM     26  C   UNL     1      -1.582   0.252  -3.163  0.00  0.00    +0.052 C 
ENDBRANCH  23  24
ENDBRANCH  21  23
ENDBRANCH  14  21
BRANCH   2  27
ATOM     27  C   UNL     1       1.289   3.428   2.590  0.00  0.00    +0.340 C 
ATOM     28  O   UNL     1       0.353   3.569   3.353  0.00  0.00    -0.245 OA
BRANCH  27  29
ATOM     29  O   UNL     1       2.383   2.743   2.983  0.00  0.00    -0.462 OA
BRANCH  29  30
ATOM     30  C   UNL     1       2.374   2.212   4.310  0.00  0.00    +0.229 C 
ATOM     31  C   UNL     1       3.688   1.475   4.573  0.00  0.00    +0.048 C 
ENDBRANCH  29  30
ENDBRANCH  27  29
ENDBRANCH   2  27
BRANCH   1  32
ATOM     32  C   UNL     1       2.627   5.810   2.140  0.00  0.00    +0.075 C 
BRANCH  32  34
ATOM     33  C   UNL     1       4.881   6.119   3.172  0.00  0.00    +0.004 C 
ATOM     34  C   UNL     1       4.107   5.434   2.044  0.00  0.00    +0.004 C 
ENDBRANCH  32  34
ENDBRANCH   1  32
TORSDOF 9
