REMARK  Name = ZINC43222656
REMARK  16 active torsions:
REMARK  status: ('A' for Active; 'I' for Inactive)
REMARK    1  A    between atoms: C_1  and  C_2
REMARK    2  A    between atoms: C_2  and  C_4
REMARK    3  A    between atoms: C_2  and  N_10
REMARK    4  A    between atoms: C_4  and  C_5
REMARK    5  A    between atoms: C_5  and  C_6
REMARK    6  A    between atoms: C_6  and  C_7
REMARK    7  A    between atoms: C_7  and  C_8
REMARK    8  A    between atoms: C_7  and  C_9
REMARK    9  A    between atoms: C_11  and  C_13
REMARK   10  A    between atoms: C_18  and  C_20
REMARK   11  A    between atoms: N_22  and  C_23
REMARK   12  A    between atoms: C_23  and  C_24
REMARK   13  A    between atoms: C_28  and  O_32
REMARK   14  A    between atoms: C_29  and  O_30
REMARK   15  A    between atoms: O_30  and  C_31
REMARK   16  A    between atoms: O_32  and  C_33
REMARK                            x       y       z     vdW  Elec       q    Type
REMARK                         _______ _______ _______ _____ _____    ______ ____
ROOT
ATOM      1  C   UNL     1       0.780  -1.133   3.576  0.00  0.00    +0.068 C 
ATOM      2  C   UNL     1       1.895  -0.143   3.977  0.00  0.00    -0.069 C 
ATOM      3  N   UNL     1       1.272   0.724   5.010  0.00  0.00    +0.380 N 
ATOM      4  C   UNL     1       0.447  -0.208   5.820  0.00  0.00    -0.069 C 
ATOM      5  C   UNL     1      -0.173  -1.178   4.788  0.00  0.00    +0.068 C 
ATOM      6  H   UNL     1       1.982   1.156   5.583  0.00  0.00    -0.086 HD
ATOM      7  H   UNL     1       0.691   1.426   4.578  0.00  0.00    -0.086 HD
ENDROOT
BRANCH   1   9
ATOM      8  N   UNL     1       0.711  -0.489   1.189  0.00  0.00    -0.313 N 
ATOM      9  C   UNL     1       0.051  -0.633   2.355  0.00  0.00    +0.215 C 
ATOM     10  O   UNL     1      -1.129  -0.361   2.423  0.00  0.00    -0.276 OA
ATOM     11  H   UNL     1       1.654  -0.707   1.135  0.00  0.00    +0.149 HD
BRANCH   8  13
ATOM     12  C   UNL     1      -0.019   1.526   0.010  0.00  0.00    +0.028 C 
ATOM     13  C   UNL     1       0.002  -0.004   0.002  0.00  0.00    +0.070 C 
BRANCH  13  14
ATOM     14  C   UNL     1       0.718  -0.497  -1.257  0.00  0.00    +0.022 C 
BRANCH  14  15
ATOM     15  C   UNL     1       0.630  -2.023  -1.329  0.00  0.00    +0.002 C 
BRANCH  15  16
ATOM     16  C   UNL     1       1.347  -2.517  -2.587  0.00  0.00    +0.003 C 
BRANCH  16  17
ATOM     17  C   UNL     1       1.259  -4.043  -2.659  0.00  0.00    -0.017 C 
ATOM     18  C   UNL     1       1.865  -4.527  -3.978  0.00  0.00    +0.007 C 
ATOM     19  C   UNL     1       2.031  -4.654  -1.488  0.00  0.00    +0.007 C 
ENDBRANCH  16  17
ENDBRANCH  15  16
ENDBRANCH  14  15
ENDBRANCH  13  14
ENDBRANCH   8  13
ENDBRANCH   1   9
BRANCH   5  20
ATOM     20  C   UNL     1      -0.237  -2.574   5.352  0.00  0.00    +0.215 C 
ATOM     21  O   UNL     1       0.413  -3.464   4.844  0.00  0.00    -0.276 OA
ATOM     22  N   UNL     1      -1.017  -2.835   6.420  0.00  0.00    -0.311 N 
ATOM     23  H   UNL     1      -1.537  -2.124   6.826  0.00  0.00    +0.149 HD
BRANCH  22  24
ATOM     24  C   UNL     1      -1.079  -4.192   6.968  0.00  0.00    +0.143 C 
BRANCH  24  25
ATOM     25  C   UNL     1      -2.014  -4.215   8.149  0.00  0.00    +0.015 A 
ATOM     26  C   UNL     1      -1.506  -4.174   9.434  0.00  0.00    +0.009 A 
ATOM     27  C   UNL     1      -2.361  -4.195  10.520  0.00  0.00    +0.004 A 
ATOM     28  C   UNL     1      -3.729  -4.257  10.326  0.00  0.00    +0.049 A 
ATOM     29  C   UNL     1      -4.245  -4.298   9.041  0.00  0.00    +0.162 A 
ATOM     30  C   UNL     1      -3.384  -4.271   7.947  0.00  0.00    +0.166 A 
BRANCH  30  31
ATOM     31  O   UNL     1      -3.885  -4.305   6.684  0.00  0.00    -0.491 OA
ATOM     32  C   UNL     1      -4.075  -5.594   6.096  0.00  0.00    +0.277 C 
ENDBRANCH  30  31
BRANCH  29  33
ATOM     33  O   UNL     1      -5.589  -4.359   8.848  0.00  0.00    -0.491 OA
ATOM     34  C   UNL     1      -6.412  -4.377  10.016  0.00  0.00    +0.277 C 
ENDBRANCH  29  33
ENDBRANCH  24  25
ENDBRANCH  22  24
ENDBRANCH   5  20
TORSDOF 11
