REMARK  Name = ZINC05823676
REMARK  8 active torsions:
REMARK  status: ('A' for Active; 'I' for Inactive)
REMARK    1  A    between atoms: C_1  and  C_2
REMARK    2  A    between atoms: C_2  and  C_30
REMARK    3  A    between atoms: C_6  and  C_17
REMARK    4  A    between atoms: C_11  and  O_16
REMARK    5  A    between atoms: C_12  and  O_15
REMARK    6  A    between atoms: C_24  and  S_26
REMARK    7  A    between atoms: S_26  and  C_27
REMARK    8  A    between atoms: C_27  and  C_28
REMARK                            x       y       z     vdW  Elec       q    Type
REMARK                         _______ _______ _______ _____ _____    ______ ____
ROOT
ATOM      1  C   UNL     1      -0.019   1.526   0.010  0.00  0.00    +0.031 C 
ATOM      2  C   UNL     1       0.002  -0.004   0.002  0.00  0.00    +0.034 C 
ATOM      3  C   UNL     1      -1.434  -0.546   0.065  0.00  0.00    +0.096 C 
ATOM      4  C   UNL     1      -2.085  -0.043   1.355  0.00  0.00    +0.187 C 
ATOM      5  C   UNL     1      -3.422  -0.766   1.561  0.00  0.00    +0.084 C 
ATOM      6  C   UNL     1      -4.270  -0.578   0.301  0.00  0.00    +0.058 C 
ATOM      7  C   UNL     1      -4.273   0.876  -0.097  0.00  0.00    +0.006 A 
ATOM      8  C   UNL     1      -5.258   1.328  -0.962  0.00  0.00    +0.011 A 
ATOM      9  C   UNL     1      -5.292   2.651  -1.355  0.00  0.00    +0.050 A 
ATOM     10  C   UNL     1      -4.336   3.538  -0.883  0.00  0.00    +0.162 A 
ATOM     11  C   UNL     1      -3.349   3.092  -0.014  0.00  0.00    +0.201 A 
ATOM     12  C   UNL     1      -3.319   1.756   0.382  0.00  0.00    +0.172 A 
ATOM     13  O   UNL     1      -2.344   1.357   1.242  0.00  0.00    -0.463 OA
ATOM     14  N   UNL     1      -1.215  -0.293   2.499  0.00  0.00    -0.331 N 
ATOM     15  C   UNL     1       0.060  -0.490   2.402  0.00  0.00    +0.131 C 
ATOM     16  N   UNL     1       0.712  -0.501   1.191  0.00  0.00    -0.320 N 
ATOM     17  C   UNL     1       0.695  -0.508  -1.266  0.00  0.00    +0.031 C 
ATOM     18  H   UNL     1       1.622  -0.830   1.122  0.00  0.00    +0.148 HD
ATOM     19  H   UNL     1      -1.615  -0.312   3.382  0.00  0.00    +0.165 HD
ENDROOT
BRANCH   6  20
ATOM     20  C   UNL     1      -5.683  -1.024   0.576  0.00  0.00    -0.040 A 
ATOM     21  C   UNL     1      -6.423  -0.405   1.567  0.00  0.00    +0.004 A 
ATOM     22  C   UNL     1      -7.719  -0.814   1.819  0.00  0.00    +0.000 A 
ATOM     23  C   UNL     1      -8.276  -1.842   1.081  0.00  0.00    +0.000 A 
ATOM     24  C   UNL     1      -7.537  -2.460   0.089  0.00  0.00    +0.000 A 
ATOM     25  C   UNL     1      -6.242  -2.048  -0.166  0.00  0.00    +0.004 A 
ENDBRANCH   6  20
BRANCH  11  26
ATOM     26  O   UNL     1      -2.410   3.960   0.451  0.00  0.00    -0.501 OA
ATOM     27  H   UNL     1      -2.657   4.403   1.274  0.00  0.00    +0.292 HD
ENDBRANCH  11  26
BRANCH  10  28
ATOM     28  O   UNL     1      -4.365   4.842  -1.270  0.00  0.00    -0.503 OA
ATOM     29  H   UNL     1      -4.892   5.412  -0.693  0.00  0.00    +0.292 HD
ENDBRANCH  10  28
BRANCH  15  30
ATOM     30  S   UNL     1       0.994  -0.755   3.873  0.00  0.00    -0.089 S 
BRANCH  30  31
ATOM     31  C   UNL     1       2.693  -0.981   3.279  0.00  0.00    +0.103 C 
BRANCH  31  32
ATOM     32  C   UNL     1       3.607  -1.220   4.453  0.00  0.00    -0.023 C 
ATOM     33  C   UNL     1       4.216  -2.372   4.586  0.00  0.00    +0.005 C 
ENDBRANCH  31  32
ENDBRANCH  30  31
ENDBRANCH  15  30
TORSDOF 6
