REMARK  Name = ZINC22933437
REMARK  8 active torsions:
REMARK  status: ('A' for Active; 'I' for Inactive)
REMARK    1  A    between atoms: C_3  and  S_27
REMARK    2  A    between atoms: C_6  and  C_7
REMARK    3  A    between atoms: C_7  and  N_8
REMARK    4  A    between atoms: C_9  and  C_11
REMARK    5  A    between atoms: C_11  and  N_12
REMARK    6  A    between atoms: N_15  and  C_18
REMARK    7  A    between atoms: C_18  and  C_19
REMARK    8  A    between atoms: S_27  and  N_30
REMARK                            x       y       z     vdW  Elec       q    Type
REMARK                         _______ _______ _______ _____ _____    ______ ____
ROOT
ATOM      1  N   UNL     1      -0.011   0.966   0.007  0.00  0.00    -0.313 N 
ATOM      2  C   UNL     1       1.147   1.655   0.000  0.00  0.00    +0.197 C 
ATOM      3  O   UNL     1       1.130   2.868   0.007  0.00  0.00    -0.278 OA
ATOM      4  H   UNL     1       0.004  -0.134   0.006  0.00  0.00    +0.149 HD
ENDROOT
BRANCH   1   5
ATOM      5  C   UNL     1      -1.290   1.681   0.017  0.00  0.00    +0.139 C 
BRANCH   5  11
ATOM      6  C   UNL     1      -2.950   0.241  -1.180  0.00  0.00    +0.007 A 
ATOM      7  C   UNL     1      -3.986  -0.675  -1.180  0.00  0.00    +0.029 A 
ATOM      8  C   UNL     1      -4.499  -1.138   0.017  0.00  0.00    +0.105 A 
ATOM      9  C   UNL     1      -3.974  -0.689   1.214  0.00  0.00    +0.029 A 
ATOM     10  C   UNL     1      -2.935   0.224   1.214  0.00  0.00    +0.007 A 
ATOM     11  C   UNL     1      -2.422   0.686   0.017  0.00  0.00    -0.030 A 
BRANCH   8  12
ATOM     12  S   UNL     1      -5.822  -2.302   0.017  0.00  0.00    +0.056 S 
ATOM     13  O   UNL     1      -5.769  -2.977  -1.233  0.00  0.00    -0.153 OA
ATOM     14  O   UNL     1      -5.756  -2.992   1.258  0.00  0.00    -0.153 OA
BRANCH  12  15
ATOM     15  N   UNL     1      -7.234  -1.438   0.030  0.00  0.00    -0.204 NA
ATOM     16  H   UNL     1      -8.088  -2.132   0.030  0.00  0.00    +0.144 HD
ATOM     17  H   UNL     1      -7.281  -0.799  -0.864  0.00  0.00    +0.144 HD
ENDBRANCH  12  15
ENDBRANCH   8  12
ENDBRANCH   5  11
ENDBRANCH   1   5
BRANCH   2  18
ATOM     18  C   UNL     1       2.462   0.920  -0.017  0.00  0.00    +0.019 C 
BRANCH  18  19
ATOM     19  N   UNL     1       3.565   1.890  -0.022  0.00  0.00    +0.387 N 
ATOM     20  C   UNL     1       3.584   2.660  -1.273  0.00  0.00    -0.063 C 
ATOM     21  C   UNL     1       4.695   3.710  -1.207  0.00  0.00    +0.066 C 
ATOM     22  N   UNL     1       5.984   3.042  -0.984  0.00  0.00    -0.298 NA
ATOM     23  C   UNL     1       5.966   2.271   0.267  0.00  0.00    +0.066 C 
ATOM     24  C   UNL     1       4.855   1.221   0.201  0.00  0.00    -0.063 C 
ATOM     25  H   UNL     1       3.400   2.593   0.808  0.00  0.00    -0.081 HD
BRANCH  22  26
ATOM     26  C   UNL     1       7.088   4.011  -0.990  0.00  0.00    +0.180 C 
BRANCH  26  27
ATOM     27  C   UNL     1       7.228   4.605  -2.368  0.00  0.00    +0.230 C 
ATOM     28  O   UNL     1       6.483   4.255  -3.258  0.00  0.00    -0.274 OA
ATOM     29  N   UNL     1       8.183   5.525  -2.611  0.00  0.00    -0.300 N 
ATOM     30  C   UNL     1       9.090   5.964  -1.542  0.00  0.00    +0.108 C 
ATOM     31  C   UNL     1      10.537   5.788  -2.025  0.00  0.00    +0.019 C 
ATOM     32  C   UNL     1      10.720   6.533  -3.349  0.00  0.00    +0.003 C 
ATOM     33  C   UNL     1       9.784   5.939  -4.405  0.00  0.00    +0.019 C 
ATOM     34  C   UNL     1       8.332   6.113  -3.949  0.00  0.00    +0.108 C 
ENDBRANCH  26  27
ENDBRANCH  22  26
ENDBRANCH  18  19
ENDBRANCH   2  18
TORSDOF 8
