REMARK  Name = ZINC08918719
REMARK  11 active torsions:
REMARK  status: ('A' for Active; 'I' for Inactive)
REMARK    1  A    between atoms: C_1  and  C_2
REMARK    2  A    between atoms: C_2  and  C_3
REMARK    3  A    between atoms: C_2  and  C_4
REMARK    4  A    between atoms: C_2  and  C_5
REMARK    5  A    between atoms: C_12  and  N_24
REMARK    6  A    between atoms: C_13  and  C_14
REMARK    7  A    between atoms: N_16  and  C_17
REMARK    8  A    between atoms: C_25  and  C_27
REMARK    9  A    between atoms: C_27  and  N_63
REMARK   10  A    between atoms: C_28  and  C_29
REMARK   11  A    between atoms: C_28  and  N_63
REMARK                            x       y       z     vdW  Elec       q    Type
REMARK                         _______ _______ _______ _____ _____    ______ ____
ROOT
ATOM      1  C   UNL     1       3.958   3.149   0.823  0.00  0.00    -0.000 C 
ATOM      2  C   UNL     1       4.616   2.025   0.017  0.00  0.00    +0.009 C 
ATOM      3  C   UNL     1       3.934   0.692   0.333  0.00  0.00    +0.037 C 
ATOM      4  C   UNL     1       2.431   0.853   0.142  0.00  0.00    -0.023 A 
ATOM      5  C   UNL     1       1.860   2.076   0.119  0.00  0.00    -0.004 A 
ATOM      6  S   UNL     1       0.134   1.766  -0.123  0.00  0.00    -0.077 S 
ATOM      7  C   UNL     1       0.169   0.035  -0.191  0.00  0.00    +0.084 A 
ATOM      8  C   UNL     1       1.514  -0.262  -0.026  0.00  0.00    +0.069 A 
ATOM      9  C   UNL     1       2.549   3.398   0.266  0.00  0.00    +0.046 C 
ENDROOT
BRANCH   1  11
ATOM     10  C   UNL     1       4.124   5.551   1.489  0.00  0.00    +0.011 C 
ATOM     11  C   UNL     1       4.792   4.426   0.697  0.00  0.00    -0.035 C 
ATOM     12  C   UNL     1       6.196   4.175   1.253  0.00  0.00    +0.011 C 
ATOM     13  C   UNL     1       4.891   4.827  -0.776  0.00  0.00    +0.011 C 
ENDBRANCH   1  11
BRANCH   8  14
ATOM     14  C   UNL     1       1.993  -1.647  -0.022  0.00  0.00    +0.251 C 
ATOM     15  O   UNL     1       2.329  -2.178  -1.064  0.00  0.00    -0.270 OA
ATOM     16  N   UNL     1       2.060  -2.333   1.136  0.00  0.00    -0.281 N 
ATOM     17  H   UNL     1       1.866  -1.888   1.976  0.00  0.00    +0.155 HD
BRANCH  16  18
ATOM     18  C   UNL     1       2.411  -3.688   1.127  0.00  0.00    +0.034 A 
ATOM     19  C   UNL     1       2.033  -4.497   0.064  0.00  0.00    +0.025 A 
ATOM     20  C   UNL     1       2.384  -5.833   0.056  0.00  0.00    +0.022 A 
ATOM     21  C   UNL     1       3.104  -6.367   1.111  0.00  0.00    +0.041 A 
ATOM     22  C   UNL     1       3.478  -5.564   2.174  0.00  0.00    +0.022 A 
ATOM     23  C   UNL     1       3.133  -4.226   2.185  0.00  0.00    +0.025 A 
ATOM     24 CL   UNL     1       3.539  -8.048   1.100  0.00  0.00    -0.084 Cl
ENDBRANCH  16  18
ENDBRANCH   8  14
BRANCH   7  25
ATOM     25  N   UNL     1      -0.891  -0.842  -0.369  0.00  0.00    -0.281 N 
ATOM     26  C   UNL     1      -2.143  -0.365  -0.514  0.00  0.00    +0.201 C 
ATOM     27  O   UNL     1      -2.343   0.831  -0.489  0.00  0.00    -0.278 OA
ATOM     28  H   UNL     1      -0.731  -1.799  -0.389  0.00  0.00    +0.155 HD
BRANCH  26  29
ATOM     29  C   UNL     1      -3.295  -1.318  -0.707  0.00  0.00    +0.016 C 
BRANCH  29  30
ATOM     30  N   UNL     1      -4.545  -0.545  -0.839  0.00  0.00    +0.389 N 
ATOM     31  H   UNL     1      -4.471   0.082  -1.649  0.00  0.00    -0.085 HD
ATOM     32  H   UNL     1      -4.691   0.011   0.012  0.00  0.00    -0.085 HD
BRANCH  30  33
ATOM     33  C   UNL     1      -5.691  -1.454  -1.029  0.00  0.00    -0.006 C 
BRANCH  33  34
ATOM     34  C   UNL     1      -6.951  -0.638  -1.161  0.00  0.00    +0.088 A 
ATOM     35  C   UNL     1      -7.466  -0.166  -2.311  0.00  0.00    +0.042 A 
ATOM     36  C   UNL     1      -8.644   0.538  -1.973  0.00  0.00    +0.041 A 
ATOM     37  C   UNL     1      -8.779   0.455  -0.637  0.00  0.00    +0.195 A 
ATOM     38  O   UNL     1      -7.754  -0.264  -0.151  0.00  0.00    -0.470 OA
ENDBRANCH  33  34
ENDBRANCH  30  33
ENDBRANCH  29  30
ENDBRANCH  26  29
ENDBRANCH   7  25
TORSDOF 8
