REMARK  Name = ZINC40014489
REMARK  18 active torsions:
REMARK  status: ('A' for Active; 'I' for Inactive)
REMARK    1  A    between atoms: C_1  and  C_2
REMARK    2  A    between atoms: C_2  and  C_3
REMARK    3  A    between atoms: C_3  and  C_4
REMARK    4  A    between atoms: C_4  and  C_5
REMARK    5  A    between atoms: C_5  and  O_6
REMARK    6  A    between atoms: O_6  and  C_7
REMARK    7  A    between atoms: C_10  and  C_16
REMARK    8  A    between atoms: C_12  and  O_13
REMARK    9  A    between atoms: O_13  and  C_14
REMARK   10  A    between atoms: C_14  and  C_15
REMARK   11  A    between atoms: N_31  and  C_32
REMARK   12  A    between atoms: C_32  and  C_33
REMARK   13  A    between atoms: C_33  and  C_34
REMARK   14  A    between atoms: C_34  and  N_35
REMARK   15  A    between atoms: N_35  and  C_36
REMARK   16  A    between atoms: N_35  and  C_38
REMARK   17  A    between atoms: C_36  and  C_37
REMARK   18  A    between atoms: C_38  and  C_39
REMARK                            x       y       z     vdW  Elec       q    Type
REMARK                         _______ _______ _______ _____ _____    ______ ____
ROOT
ATOM      1  C   UNL     1       4.183  -6.125  -6.804  0.00  0.00    +0.145 C 
ATOM      2  C   UNL     1       5.661  -5.912  -6.848  0.00  0.00    +0.072 A 
ATOM      3  C   UNL     1       6.707  -6.195  -5.860  0.00  0.00    +0.199 A 
ATOM      4  O   UNL     1       6.511  -6.846  -4.849  0.00  0.00    -0.287 OA
ATOM      5  C   UNL     1       8.028  -5.614  -6.210  0.00  0.00    +0.067 A 
ATOM      6  C   UNL     1       9.071  -5.623  -5.284  0.00  0.00    +0.053 A 
ATOM      7  C   UNL     1      10.289  -5.075  -5.625  0.00  0.00    +0.124 A 
ATOM      8  C   UNL     1      10.473  -4.516  -6.885  0.00  0.00    +0.042 A 
ATOM      9  C   UNL     1       9.450  -4.503  -7.806  0.00  0.00    +0.050 A 
ATOM     10  C   UNL     1       8.210  -5.055  -7.486  0.00  0.00    +0.140 A 
ATOM     11  O   UNL     1       7.226  -5.038  -8.414  0.00  0.00    -0.450 OA
ATOM     12  C   UNL     1       5.965  -5.351  -8.056  0.00  0.00    +0.199 A 
ATOM     13  C   UNL     1       4.714  -5.181  -8.815  0.00  0.00    +0.283 C 
ATOM     14  O   UNL     1       4.636  -4.705  -9.930  0.00  0.00    -0.267 OA
ATOM     15  N   UNL     1       3.667  -5.633  -8.092  0.00  0.00    -0.284 N 
ATOM     16  F   UNL     1      11.304  -5.079  -4.734  0.00  0.00    -0.205 F 
ENDROOT
BRANCH   1  20
ATOM     17  C   UNL     1       2.467  -3.897  -3.582  0.00  0.00    +0.162 A 
ATOM     18  C   UNL     1       3.011  -3.237  -4.672  0.00  0.00    +0.050 A 
ATOM     19  C   UNL     1       3.565  -3.960  -5.712  0.00  0.00    +0.009 A 
ATOM     20  C   UNL     1       3.578  -5.342  -5.668  0.00  0.00    -0.019 A 
ATOM     21  C   UNL     1       3.037  -6.007  -4.583  0.00  0.00    +0.055 A 
ATOM     22  C   UNL     1       2.485  -5.288  -3.535  0.00  0.00    +0.162 A 
BRANCH  17  23
ATOM     23  O   UNL     1       1.922  -3.188  -2.558  0.00  0.00    -0.488 OA
BRANCH  23  24
ATOM     24  C   UNL     1       1.938  -1.764  -2.675  0.00  0.00    +0.229 C 
BRANCH  24  25
ATOM     25  C   UNL     1       1.287  -1.143  -1.438  0.00  0.00    +0.041 C 
BRANCH  25  26
ATOM     26  C   UNL     1       1.305   0.382  -1.563  0.00  0.00    +0.003 C 
BRANCH  26  28
ATOM     27  C   UNL     1       0.671   2.527  -0.450  0.00  0.00    +0.004 C 
ATOM     28  C   UNL     1       0.653   1.002  -0.325  0.00  0.00    -0.003 C 
ENDBRANCH  26  28
ENDBRANCH  25  26
ENDBRANCH  24  25
ENDBRANCH  23  24
ENDBRANCH  17  23
BRANCH  22  29
ATOM     29  O   UNL     1       1.958  -5.940  -2.465  0.00  0.00    -0.489 OA
BRANCH  29  30
ATOM     30  C   UNL     1       2.011  -7.368  -2.484  0.00  0.00    +0.226 C 
ATOM     31  C   UNL     1       1.375  -7.920  -1.207  0.00  0.00    +0.048 C 
ENDBRANCH  29  30
ENDBRANCH  22  29
ENDBRANCH   1  20
BRANCH  15  32
ATOM     32  C   UNL     1       2.264  -5.633  -8.514  0.00  0.00    +0.107 C 
BRANCH  32  33
ATOM     33  C   UNL     1       1.641  -4.268  -8.214  0.00  0.00    +0.000 C 
BRANCH  33  34
ATOM     34  C   UNL     1       0.156  -4.293  -8.583  0.00  0.00    -0.077 C 
BRANCH  34  35
ATOM     35  N   UNL     1      -0.471  -3.029  -8.176  0.00  0.00    +0.379 N 
ATOM     36  H   UNL     1      -0.296  -2.867  -7.196  0.00  0.00    -0.082 HD
BRANCH  35  37
ATOM     37  C   UNL     1       0.097  -1.925  -8.963  0.00  0.00    -0.082 C 
ATOM     38  C   UNL     1      -0.464  -0.596  -8.455  0.00  0.00    -0.017 C 
ENDBRANCH  35  37
BRANCH  35  39
ATOM     39  C   UNL     1      -1.919  -3.103  -8.410  0.00  0.00    -0.082 C 
ATOM     40  C   UNL     1      -2.533  -4.151  -7.481  0.00  0.00    -0.017 C 
ENDBRANCH  35  39
ENDBRANCH  34  35
ENDBRANCH  33  34
ENDBRANCH  32  33
ENDBRANCH  15  32
TORSDOF 14
