REMARK  Name = ZINC35000388
REMARK  10 active torsions:
REMARK  status: ('A' for Active; 'I' for Inactive)
REMARK    1  A    between atoms: C_1  and  O_2
REMARK    2  A    between atoms: O_2  and  C_3
REMARK    3  A    between atoms: C_6  and  N_9
REMARK    4  A    between atoms: N_9  and  C_10
REMARK    5  A    between atoms: C_10  and  C_11
REMARK    6  A    between atoms: C_11  and  C_12
REMARK    7  A    between atoms: C_12  and  N_13
REMARK    8  A    between atoms: C_14  and  C_16
REMARK    9  A    between atoms: C_20  and  N_22
REMARK   10  A    between atoms: N_27  and  C_28
REMARK                            x       y       z     vdW  Elec       q    Type
REMARK                         _______ _______ _______ _____ _____    ______ ____
ROOT
ATOM      1  N   UNL     1      -4.983  -2.706  -0.404  0.00  0.00    -0.255 N 
ATOM      2  C   UNL     1      -6.079  -1.944  -0.215  0.00  0.00    +0.311 C 
ATOM      3  O   UNL     1      -6.044  -0.756  -0.471  0.00  0.00    -0.252 OA
ATOM      4  N   UNL     1      -7.213  -2.499   0.257  0.00  0.00    -0.269 N 
ATOM      5  H   UNL     1      -7.205  -3.410   0.589  0.00  0.00    +0.156 HD
ENDROOT
BRANCH   4   6
ATOM      6  C   UNL     1      -8.402  -1.761   0.267  0.00  0.00    +0.036 A 
ATOM      7  C   UNL     1      -8.358  -0.372   0.263  0.00  0.00    +0.025 A 
ATOM      8  C   UNL     1      -9.533   0.354   0.274  0.00  0.00    +0.023 A 
ATOM      9  C   UNL     1     -10.752  -0.299   0.287  0.00  0.00    +0.059 A 
ATOM     10  C   UNL     1     -10.799  -1.683   0.291  0.00  0.00    +0.061 A 
ATOM     11  C   UNL     1      -9.626  -2.415   0.276  0.00  0.00    +0.044 A 
ATOM     12 CL   UNL     1     -12.331  -2.499   0.309  0.00  0.00    -0.082 Cl
ATOM     13 CL   UNL     1     -12.226   0.618   0.300  0.00  0.00    -0.082 Cl
ENDBRANCH   4   6
BRANCH   1  17
ATOM     14  C   UNL     1      -1.355  -0.923  -1.427  0.00  0.00    +0.120 A 
ATOM     15  C   UNL     1      -1.959  -1.817  -2.300  0.00  0.00    +0.047 A 
ATOM     16  C   UNL     1      -3.160  -2.408  -1.961  0.00  0.00    +0.027 A 
ATOM     17  C   UNL     1      -3.764  -2.107  -0.748  0.00  0.00    +0.038 A 
ATOM     18  C   UNL     1      -3.159  -1.213   0.125  0.00  0.00    +0.027 A 
ATOM     19  C   UNL     1      -1.955  -0.626  -0.212  0.00  0.00    +0.047 A 
BRANCH  14  21
ATOM     20  C   UNL     1       0.389  -0.692  -3.027  0.00  0.00    +0.277 C 
ATOM     21  O   UNL     1      -0.172  -0.341  -1.761  0.00  0.00    -0.495 OA
ENDBRANCH  14  21
ENDBRANCH   1  17
BRANCH   1  22
ATOM     22  C   UNL     1      -5.067  -4.161  -0.250  0.00  0.00    +0.117 C 
BRANCH  22  23
ATOM     23  C   UNL     1      -4.766  -4.538   1.202  0.00  0.00    +0.038 C 
BRANCH  23  24
ATOM     24  C   UNL     1      -4.854  -6.057   1.363  0.00  0.00    +0.106 C 
BRANCH  24  25
ATOM     25  N   UNL     1      -4.565  -6.418   2.753  0.00  0.00    -0.311 N 
ATOM     26  C   UNL     1      -4.585  -7.711   3.131  0.00  0.00    +0.244 C 
ATOM     27  O   UNL     1      -4.842  -8.578   2.319  0.00  0.00    -0.270 OA
ATOM     28  H   UNL     1      -4.360  -5.726   3.402  0.00  0.00    +0.149 HD
BRANCH  26  29
ATOM     29  C   UNL     1      -4.294  -8.076   4.535  0.00  0.00    +0.039 A 
ATOM     30  C   UNL     1      -4.004  -7.082   5.471  0.00  0.00    +0.013 A 
ATOM     31  C   UNL     1      -3.734  -7.429   6.779  0.00  0.00    +0.003 A 
ATOM     32  C   UNL     1      -3.749  -8.758   7.162  0.00  0.00    +0.033 A 
ATOM     33  C   UNL     1      -4.035  -9.748   6.239  0.00  0.00    +0.127 A 
ATOM     34  C   UNL     1      -4.313  -9.414   4.929  0.00  0.00    +0.045 A 
BRANCH  33  35
ATOM     35  N   UNL     1      -4.048 -11.167   6.658  0.00  0.00    +0.056 N 
ATOM     36  O   UNL     1      -3.810 -11.461   7.806  0.00  0.00    -0.126 OA
ATOM     37  O   UNL     1      -4.298 -12.033   5.852  0.00  0.00    -0.126 OA
ENDBRANCH  33  35
ENDBRANCH  26  29
ENDBRANCH  24  25
ENDBRANCH  23  24
ENDBRANCH  22  23
ENDBRANCH   1  22
TORSDOF 9
