REMARK  Name = ZINC16784186
REMARK  12 active torsions:
REMARK  status: ('A' for Active; 'I' for Inactive)
REMARK    1  A    between atoms: C_1  and  C_2
REMARK    2  A    between atoms: C_2  and  N_58
REMARK    3  A    between atoms: C_3  and  C_4
REMARK    4  A    between atoms: C_3  and  N_58
REMARK    5  A    between atoms: C_5  and  C_6
REMARK    6  A    between atoms: C_5  and  N_58
REMARK    7  A    between atoms: C_11  and  C_12
REMARK    8  A    between atoms: C_12  and  N_13
REMARK    9  A    between atoms: C_14  and  C_16
REMARK   10  A    between atoms: C_18  and  S_23
REMARK   11  A    between atoms: S_23  and  N_26
REMARK   12  A    between atoms: N_26  and  C_27
REMARK                            x       y       z     vdW  Elec       q    Type
REMARK                         _______ _______ _______ _____ _____    ______ ____
ROOT
ATOM      1  N   UNL     1       0.157   3.849   4.852  0.00  0.00    -0.307 N 
ATOM      2  C   UNL     1      -0.888   3.994   5.690  0.00  0.00    +0.245 C 
ATOM      3  O   UNL     1      -1.924   4.489   5.291  0.00  0.00    -0.270 OA
ATOM      4  H   UNL     1       0.983   3.453   5.170  0.00  0.00    +0.149 HD
ENDROOT
BRANCH   2   5
ATOM      5  C   UNL     1      -0.775   3.550   7.096  0.00  0.00    +0.052 A 
ATOM      6  C   UNL     1       0.411   2.976   7.556  0.00  0.00    +0.042 A 
ATOM      7  C   UNL     1       0.512   2.568   8.870  0.00  0.00    +0.106 A 
ATOM      8  C   UNL     1      -0.563   2.718   9.729  0.00  0.00    +0.029 A 
ATOM      9  C   UNL     1      -1.742   3.282   9.279  0.00  0.00    +0.018 A 
ATOM     10  C   UNL     1      -1.856   3.699   7.968  0.00  0.00    +0.030 A 
ATOM     11 BR   UNL     1      -3.470   4.471   7.354  0.00  0.00    -0.050 Br
BRANCH   7  12
ATOM     12  S   UNL     1       2.010   1.848   9.454  0.00  0.00    +0.059 S 
ATOM     13  O   UNL     1       3.046   2.318   8.602  0.00  0.00    -0.153 OA
ATOM     14  O   UNL     1       2.033   2.044  10.861  0.00  0.00    -0.153 OA
BRANCH  12  15
ATOM     15  N   UNL     1       1.898   0.215   9.206  0.00  0.00    -0.187 NA
ATOM     16  H   UNL     1       1.879  -0.391   9.963  0.00  0.00    +0.148 HD
BRANCH  15  17
ATOM     17  C   UNL     1       1.827  -0.316   7.842  0.00  0.00    +0.077 C 
ATOM     18  C   UNL     1       0.986  -1.574   7.616  0.00  0.00    +0.022 C 
ATOM     19  C   UNL     1       2.513  -1.656   7.569  0.00  0.00    +0.022 C 
ENDBRANCH  15  17
ENDBRANCH  12  15
ENDBRANCH   7  12
ENDBRANCH   2   5
BRANCH   1  20
ATOM     20  C   UNL     1       0.044   4.288   3.459  0.00  0.00    +0.140 C 
BRANCH  20  26
ATOM     21  C   UNL     1       1.622   2.743   2.280  0.00  0.00    -0.059 A 
ATOM     22  C   UNL     1       2.814   2.492   1.625  0.00  0.00    +0.002 A 
ATOM     23  C   UNL     1       3.719   3.517   1.422  0.00  0.00    +0.000 A 
ATOM     24  C   UNL     1       3.438   4.789   1.883  0.00  0.00    +0.000 A 
ATOM     25  C   UNL     1       2.249   5.039   2.541  0.00  0.00    +0.005 A 
ATOM     26  C   UNL     1       1.341   4.016   2.740  0.00  0.00    -0.029 A 
BRANCH  21  27
ATOM     27  C   UNL     1       0.632   1.628   2.497  0.00  0.00    -0.043 C 
BRANCH  27  28
ATOM     28  N   UNL     1      -0.445   1.744   1.490  0.00  0.00    +0.382 N 
ATOM     29  H   UNL     1      -0.816   2.701   1.507  0.00  0.00    -0.081 HD
BRANCH  28  31
ATOM     30  C   UNL     1       0.556   0.006   0.044  0.00  0.00    -0.017 C 
ATOM     31  C   UNL     1       0.091   1.460   0.142  0.00  0.00    -0.082 C 
ENDBRANCH  28  31
BRANCH  28  32
ATOM     32  C   UNL     1      -1.537   0.799   1.808  0.00  0.00    -0.082 C 
ATOM     33  C   UNL     1      -2.731   1.103   0.901  0.00  0.00    -0.017 C 
ENDBRANCH  28  32
ENDBRANCH  27  28
ENDBRANCH  21  27
ENDBRANCH  20  26
ENDBRANCH   1  20
TORSDOF 10
