REMARK  Name = ZINC37263966
REMARK  5 active torsions:
REMARK  status: ('A' for Active; 'I' for Inactive)
REMARK    1  A    between atoms: C_4  and  C_7
REMARK    2  A    between atoms: N_10  and  C_12
REMARK    3  A    between atoms: N_19  and  C_33
REMARK    4  A    between atoms: C_24  and  C_26
REMARK    5  A    between atoms: C_33  and  C_34
REMARK                            x       y       z     vdW  Elec       q    Type
REMARK                         _______ _______ _______ _____ _____    ______ ____
ROOT
ATOM      1  C   UNL     1       3.786  -0.632   0.109  0.00  0.00    +0.100 A 
ATOM      2  C   UNL     1       4.033  -1.868   0.730  0.00  0.00    +0.038 A 
ATOM      3  C   UNL     1       5.325  -2.193   0.508  0.00  0.00    +0.137 A 
ATOM      4  N   UNL     1       5.893  -1.203  -0.223  0.00  0.00    -0.216 N 
ATOM      5  N   UNL     1       4.905  -0.236  -0.468  0.00  0.00    -0.164 NA
ATOM      6  N   UNL     1       5.925  -3.373   0.975  0.00  0.00    -0.246 N 
ATOM      7  C   UNL     1       5.293  -4.533   0.773  0.00  0.00    +0.231 C 
ATOM      8  O   UNL     1       5.613  -5.514   1.411  0.00  0.00    -0.274 OA
ATOM      9  C   UNL     1       4.191  -4.627  -0.238  0.00  0.00    +0.166 C 
ATOM     10  S   UNL     1       2.592  -4.159   0.505  0.00  0.00    -0.138 S 
ATOM     11  C   UNL     1       3.057  -2.707   1.515  0.00  0.00    +0.112 C 
ENDROOT
BRANCH   4  12
ATOM     12  C   UNL     1       7.224  -1.155  -0.659  0.00  0.00    +0.086 A 
ATOM     13  C   UNL     1       7.791  -2.257  -1.284  0.00  0.00    +0.029 A 
ATOM     14  C   UNL     1       9.103  -2.206  -1.714  0.00  0.00    +0.002 A 
ATOM     15  C   UNL     1       9.852  -1.060  -1.520  0.00  0.00    +0.002 A 
ATOM     16  C   UNL     1       9.291   0.039  -0.898  0.00  0.00    +0.022 A 
ATOM     17  C   UNL     1       7.977  -0.002  -0.471  0.00  0.00    +0.066 A 
ATOM     18 CL   UNL     1       7.271   1.381   0.305  0.00  0.00    -0.081 Cl
ENDBRANCH   4  12
BRANCH  11  19
ATOM     19  C   UNL     1       1.827  -1.893   1.827  0.00  0.00    -0.030 A 
ATOM     20  C   UNL     1       0.592  -2.303   1.363  0.00  0.00    +0.008 A 
ATOM     21  C   UNL     1      -0.537  -1.558   1.649  0.00  0.00    +0.038 A 
ATOM     22  C   UNL     1      -0.429  -0.400   2.400  0.00  0.00    +0.123 A 
ATOM     23  C   UNL     1       0.810   0.011   2.864  0.00  0.00    +0.038 A 
ATOM     24  C   UNL     1       1.936  -0.739   2.582  0.00  0.00    +0.008 A 
ATOM     25  F   UNL     1      -1.531   0.330   2.680  0.00  0.00    -0.205 F 
ENDBRANCH  11  19
BRANCH   1  29
ATOM     26  C   UNL     1       0.082   1.456   0.075  0.00  0.00    +0.000 A 
ATOM     27  C   UNL     1       1.218   2.075   0.565  0.00  0.00    +0.001 A 
ATOM     28  C   UNL     1       2.423   1.402   0.578  0.00  0.00    +0.010 A 
ATOM     29  C   UNL     1       2.494   0.097   0.097  0.00  0.00    +0.002 A 
ATOM     30  C   UNL     1       1.346  -0.522  -0.395  0.00  0.00    +0.010 A 
ATOM     31  C   UNL     1       0.147   0.160  -0.403  0.00  0.00    +0.001 A 
ENDBRANCH   1  29
BRANCH   6  32
ATOM     32  C   UNL     1       7.215  -3.333   1.669  0.00  0.00    +0.210 C 
BRANCH  32  33
ATOM     33  C   UNL     1       6.984  -3.285   3.157  0.00  0.00    +0.228 C 
ATOM     34  O   UNL     1       5.853  -3.283   3.596  0.00  0.00    -0.274 OA
ATOM     35  N   UNL     1       8.034  -3.243   4.001  0.00  0.00    -0.328 N 
ATOM     36  H   UNL     1       8.938  -3.244   3.650  0.00  0.00    +0.145 HD
ATOM     37  H   UNL     1       7.886  -3.212   4.959  0.00  0.00    +0.145 HD
ENDBRANCH  32  33
ENDBRANCH   6  32
TORSDOF 5
