REMARK  Name = ZINC39427781
REMARK  10 active torsions:
REMARK  status: ('A' for Active; 'I' for Inactive)
REMARK    1  A    between atoms: C_1  and  C_2
REMARK    2  A    between atoms: C_2  and  O_3
REMARK    3  A    between atoms: O_3  and  C_4
REMARK    4  A    between atoms: C_6  and  C_11
REMARK    5  A    between atoms: C_9  and  O_10
REMARK    6  A    between atoms: C_13  and  C_22
REMARK    7  A    between atoms: C_14  and  C_21
REMARK    8  A    between atoms: N_24  and  C_25
REMARK    9  A    between atoms: C_28  and  C_32
REMARK   10  A    between atoms: C_30  and  C_31
REMARK                            x       y       z     vdW  Elec       q    Type
REMARK                         _______ _______ _______ _____ _____    ______ ____
ROOT
ATOM      1  C   UNL     1      -0.018  -4.296  -0.287  0.00  0.00    +0.177 C 
ATOM      2  C   UNL     1      -1.290  -5.088  -0.141  0.00  0.00    +0.060 C 
ATOM      3  C   UNL     1      -1.330  -6.427  -0.194  0.00  0.00    +0.018 C 
ATOM      4  N   UNL     1      -0.203  -7.185  -0.399  0.00  0.00    -0.287 N 
ATOM      5  C   UNL     1       0.945  -6.524  -0.813  0.00  0.00    +0.218 A 
ATOM      6  N   UNL     1       1.046  -5.172  -0.771  0.00  0.00    -0.221 N 
ATOM      7  N   UNL     1       2.312  -4.853  -1.261  0.00  0.00    -0.156 NA
ATOM      8  C   UNL     1       2.897  -5.987  -1.560  0.00  0.00    +0.247 A 
ATOM      9  N   UNL     1       2.065  -6.997  -1.286  0.00  0.00    -0.201 NA
ATOM     10  C   UNL     1      -2.655  -7.123  -0.022  0.00  0.00    +0.061 C 
ATOM     11  H   UNL     1      -0.209  -8.145  -0.260  0.00  0.00    +0.155 HD
ENDROOT
BRANCH   1  14
ATOM     12  C   UNL     1       0.732  -1.825   2.470  0.00  0.00    +0.162 A 
ATOM     13  C   UNL     1       0.373  -2.354   1.241  0.00  0.00    +0.055 A 
ATOM     14  C   UNL     1       0.374  -3.723   1.051  0.00  0.00    -0.015 A 
ATOM     15  C   UNL     1       0.732  -4.567   2.085  0.00  0.00    +0.010 A 
ATOM     16  C   UNL     1       1.091  -4.046   3.314  0.00  0.00    +0.049 A 
ATOM     17  C   UNL     1       1.099  -2.674   3.509  0.00  0.00    +0.158 A 
BRANCH  17  18
ATOM     18  O   UNL     1       1.458  -2.160   4.716  0.00  0.00    -0.503 OA
ATOM     19  H   UNL     1       0.720  -2.048   5.331  0.00  0.00    +0.292 HD
ENDBRANCH  17  18
BRANCH  12  20
ATOM     20  O   UNL     1       0.733  -0.478   2.658  0.00  0.00    -0.489 OA
BRANCH  20  22
ATOM     21  C   UNL     1       0.216   1.795   2.018  0.00  0.00    +0.048 C 
ATOM     22  C   UNL     1       0.243   0.328   1.584  0.00  0.00    +0.226 C 
ENDBRANCH  20  22
ENDBRANCH  12  20
ENDBRANCH   1  14
BRANCH   2  23
ATOM     23  C   UNL     1      -2.501  -4.385   0.062  0.00  0.00    +0.248 C 
ATOM     24  O   UNL     1      -3.095  -3.909  -0.888  0.00  0.00    -0.270 OA
ATOM     25  N   UNL     1      -2.997  -4.242   1.307  0.00  0.00    -0.281 N 
ATOM     26  H   UNL     1      -2.490  -4.559   2.070  0.00  0.00    +0.155 HD
BRANCH  25  27
ATOM     27  C   UNL     1      -4.243  -3.636   1.498  0.00  0.00    +0.037 A 
ATOM     28  C   UNL     1      -5.141  -3.544   0.443  0.00  0.00    +0.024 A 
ATOM     29  C   UNL     1      -6.371  -2.946   0.635  0.00  0.00    +0.005 A 
ATOM     30  C   UNL     1      -6.708  -2.437   1.877  0.00  0.00    -0.050 A 
ATOM     31  C   UNL     1      -5.815  -2.527   2.929  0.00  0.00    +0.008 A 
ATOM     32  C   UNL     1      -4.587  -3.131   2.745  0.00  0.00    -0.029 A 
ATOM     33  C   UNL     1      -3.618  -3.234   3.895  0.00  0.00    +0.045 C 
ATOM     34  C   UNL     1      -8.050  -1.784   2.083  0.00  0.00    +0.044 C 
ENDBRANCH  25  27
ENDBRANCH   2  23
TORSDOF 6
