REMARK  Name = ZINC39655866
REMARK  8 active torsions:
REMARK  status: ('A' for Active; 'I' for Inactive)
REMARK    1  A    between atoms: C_1  and  C_2
REMARK    2  A    between atoms: C_2  and  C_3
REMARK    3  A    between atoms: C_6  and  C_9
REMARK    4  A    between atoms: C_13  and  C_22
REMARK    5  A    between atoms: N_24  and  C_25
REMARK    6  A    between atoms: C_25  and  C_26
REMARK    7  A    between atoms: C_26  and  C_27
REMARK    8  A    between atoms: C_30  and  C_36
REMARK                            x       y       z     vdW  Elec       q    Type
REMARK                         _______ _______ _______ _____ _____    ______ ____
ROOT
ATOM      1  C   UNL     1      -5.402  -2.001   0.046  0.00  0.00    +0.247 C 
ATOM      2  O   UNL     1      -5.928  -2.316   1.095  0.00  0.00    -0.270 OA
ATOM      3  N   UNL     1      -6.077  -2.136  -1.113  0.00  0.00    -0.296 N 
ATOM      4  C   UNL     1      -5.568  -1.930  -2.490  0.00  0.00    +0.121 C 
ATOM      5  C   UNL     1      -6.220  -3.058  -3.320  0.00  0.00    +0.100 C 
ATOM      6  C   UNL     1      -7.485  -3.443  -2.534  0.00  0.00    -0.004 C 
ATOM      7  C   UNL     1      -7.494  -2.531  -1.299  0.00  0.00    +0.115 C 
ATOM      8  C   UNL     1      -7.415  -4.905  -2.103  0.00  0.00    -0.010 C 
ATOM      9  C   UNL     1      -8.708  -5.279  -1.373  0.00  0.00    -0.082 C 
ATOM     10  N   UNL     1      -9.854  -5.066  -2.265  0.00  0.00    +0.379 N 
ATOM     11  C   UNL     1      -9.969  -3.642  -2.601  0.00  0.00    -0.082 C 
ATOM     12  C   UNL     1      -8.729  -3.198  -3.382  0.00  0.00    -0.010 C 
ATOM     13  H   UNL     1      -9.725  -5.600  -3.111  0.00  0.00    -0.086 HD
ATOM     14  H   UNL     1     -10.699  -5.370  -1.804  0.00  0.00    -0.086 HD
ENDROOT
BRANCH   1  18
ATOM     15  C   UNL     1      -1.438  -0.474   0.029  0.00  0.00    -0.048 A 
ATOM     16  C   UNL     1      -1.860  -1.285   1.068  0.00  0.00    +0.004 A 
ATOM     17  C   UNL     1      -3.146  -1.784   1.080  0.00  0.00    +0.013 A 
ATOM     18  C   UNL     1      -4.022  -1.469   0.040  0.00  0.00    +0.037 A 
ATOM     19  C   UNL     1      -3.591  -0.651  -1.005  0.00  0.00    +0.013 A 
ATOM     20  C   UNL     1      -2.304  -0.153  -1.001  0.00  0.00    +0.004 A 
BRANCH  15  22
ATOM     21  C   UNL     1       0.000   1.411   0.755  0.00  0.00    +0.009 C 
ATOM     22  C   UNL     1      -0.032   0.068   0.024  0.00  0.00    +0.032 C 
ENDBRANCH  15  22
ENDBRANCH   1  18
BRANCH   5  23
ATOM     23  C   UNL     1      -5.287  -4.237  -3.427  0.00  0.00    +0.218 C 
ATOM     24  O   UNL     1      -4.562  -4.523  -2.498  0.00  0.00    -0.275 OA
ATOM     25  N   UNL     1      -5.259  -4.974  -4.555  0.00  0.00    -0.315 N 
ATOM     26  H   UNL     1      -5.839  -4.745  -5.298  0.00  0.00    +0.149 HD
BRANCH  25  27
ATOM     27  C   UNL     1      -4.352  -6.120  -4.659  0.00  0.00    +0.109 C 
BRANCH  27  28
ATOM     28  C   UNL     1      -4.516  -6.778  -6.030  0.00  0.00    +0.056 C 
BRANCH  28  29
ATOM     29  C   UNL     1      -3.584  -7.957  -6.137  0.00  0.00    -0.021 A 
ATOM     30  C   UNL     1      -3.844  -9.319  -5.668  0.00  0.00    +0.003 A 
ATOM     31  C   UNL     1      -4.922  -9.937  -5.031  0.00  0.00    +0.013 A 
ATOM     32  C   UNL     1      -4.854 -11.265  -4.716  0.00  0.00    -0.050 A 
ATOM     33  C   UNL     1      -3.722 -12.006  -5.025  0.00  0.00    +0.005 A 
ATOM     34  C   UNL     1      -2.647 -11.416  -5.654  0.00  0.00    +0.026 A 
ATOM     35  C   UNL     1      -2.694 -10.066  -5.983  0.00  0.00    +0.047 A 
ATOM     36  N   UNL     1      -1.809  -9.208  -6.597  0.00  0.00    -0.360 N 
ATOM     37  C   UNL     1      -2.358  -7.958  -6.686  0.00  0.00    +0.087 A 
ATOM     38  C   UNL     1      -6.018 -11.931  -4.029  0.00  0.00    +0.044 C 
ATOM     39  H   UNL     1      -0.929  -9.454  -6.923  0.00  0.00    +0.165 HD
ENDBRANCH  28  29
ENDBRANCH  27  28
ENDBRANCH  25  27
ENDBRANCH   5  23
TORSDOF 6
