REMARK  Name = ZINC22153770
REMARK  7 active torsions:
REMARK  status: ('A' for Active; 'I' for Inactive)
REMARK    1  A    between atoms: C_1  and  C_2
REMARK    2  A    between atoms: C_2  and  C_3
REMARK    3  A    between atoms: C_3  and  N_4
REMARK    4  A    between atoms: C_8  and  S_9
REMARK    5  A    between atoms: S_9  and  C_10
REMARK    6  A    between atoms: C_10  and  C_11
REMARK    7  A    between atoms: C_17  and  C_22
REMARK                            x       y       z     vdW  Elec       q    Type
REMARK                         _______ _______ _______ _____ _____    ______ ____
ROOT
ATOM      1  C   UNL     1       5.324  -3.352   1.276  0.00  0.00    +0.121 A 
ATOM      2  N   UNL     1       6.141  -4.345   1.712  0.00  0.00    -0.310 N 
ATOM      3  H   UNL     1       5.890  -5.269   1.556  0.00  0.00    +0.170 HD
ATOM      4  C   UNL     1       7.290  -4.073   2.356  0.00  0.00    +0.260 A 
ATOM      5  O   UNL     1       8.013  -4.976   2.742  0.00  0.00    -0.267 OA
ATOM      6  C   UNL     1       7.652  -2.706   2.582  0.00  0.00    +0.080 A 
ATOM      7  C   UNL     1       8.830  -2.161   3.246  0.00  0.00    +0.004 A 
ATOM      8  C   UNL     1       8.960  -0.816   3.342  0.00  0.00    +0.056 A 
ATOM      9  S   UNL     1       7.494  -0.201   2.537  0.00  0.00    -0.076 S 
ATOM     10  C   UNL     1       6.747  -1.749   2.095  0.00  0.00    +0.116 A 
ATOM     11  N   UNL     1       5.630  -2.096   1.462  0.00  0.00    -0.226 NA
ENDROOT
BRANCH   7  12
ATOM     12  C   UNL     1       9.866  -3.062   3.807  0.00  0.00    -0.017 A 
ATOM     13  C   UNL     1       9.498  -4.120   4.637  0.00  0.00    +0.009 A 
ATOM     14  C   UNL     1      10.465  -4.955   5.155  0.00  0.00    +0.016 A 
ATOM     15  C   UNL     1      11.800  -4.745   4.853  0.00  0.00    +0.018 A 
ATOM     16  C   UNL     1      12.171  -3.696   4.029  0.00  0.00    +0.016 A 
ATOM     17  C   UNL     1      11.210  -2.858   3.501  0.00  0.00    +0.009 A 
ATOM     18 BR   UNL     1      13.120  -5.894   5.567  0.00  0.00    -0.050 Br
ENDBRANCH   7  12
BRANCH   1  19
ATOM     19  C   UNL     1       4.047  -3.705   0.558  0.00  0.00    +0.151 C 
BRANCH  19  20
ATOM     20  S   UNL     1       3.175  -2.184   0.092  0.00  0.00    -0.078 S 
BRANCH  20  25
ATOM     21  N   UNL     1       0.738  -1.962  -1.265  0.00  0.00    -0.271 N 
ATOM     22  C   UNL     1      -0.203  -2.761  -1.807  0.00  0.00    +0.345 A 
ATOM     23  N   UNL     1       0.183  -4.038  -1.606  0.00  0.00    -0.226 N 
ATOM     24  N   UNL     1       1.403  -4.005  -0.916  0.00  0.00    -0.145 NA
ATOM     25  C   UNL     1       1.723  -2.758  -0.725  0.00  0.00    +0.192 A 
ATOM     26  O   UNL     1      -1.216  -2.396  -2.375  0.00  0.00    -0.245 OA
ATOM     27  H   UNL     1      -0.296  -4.834  -1.887  0.00  0.00    +0.194 HD
BRANCH  21  28
ATOM     28  C   UNL     1       0.718  -0.497  -1.257  0.00  0.00    +0.129 C 
BRANCH  28  30
ATOM     29  C   UNL     1      -0.019   1.526   0.010  0.00  0.00    +0.005 C 
ATOM     30  C   UNL     1       0.002  -0.004   0.002  0.00  0.00    +0.018 C 
ENDBRANCH  28  30
ENDBRANCH  21  28
ENDBRANCH  20  25
ENDBRANCH  19  20
ENDBRANCH   1  19
TORSDOF 6
