REMARK  Name = ZINC20916189
REMARK  10 active torsions:
REMARK  status: ('A' for Active; 'I' for Inactive)
REMARK    1  A    between atoms: C_1  and  C_2
REMARK    2  A    between atoms: C_4  and  C_31
REMARK    3  A    between atoms: C_5  and  C_9
REMARK    4  A    between atoms: C_6  and  C_8
REMARK    5  A    between atoms: C_9  and  S_10
REMARK    6  A    between atoms: S_10  and  C_11
REMARK    7  A    between atoms: N_15  and  N_16
REMARK    8  A    between atoms: N_17  and  N_18
REMARK    9  A    between atoms: C_19  and  C_20
REMARK   10  A    between atoms: C_29  and  O_30
REMARK                            x       y       z     vdW  Elec       q    Type
REMARK                         _______ _______ _______ _____ _____    ______ ____
ROOT
ATOM      1  C   UNL     1       3.337   2.164  -0.019  0.00  0.00    +0.210 A 
ATOM      2  N   UNL     1       2.666   3.291  -0.007  0.00  0.00    -0.119 NA
ATOM      3  N   UNL     1       1.300   2.981  -0.000  0.00  0.00    -0.109 NA
ATOM      4  C   UNL     1       1.180   1.676  -0.000  0.00  0.00    +0.254 A 
ATOM      5  N   UNL     1       2.437   1.137  -0.015  0.00  0.00    -0.211 N 
ATOM      6  N   UNL     1      -0.011   0.966   0.007  0.00  0.00    -0.204 N 
ATOM      7  H   UNL     1       0.004  -0.134   0.006  0.00  0.00    +0.177 HD
ENDROOT
BRANCH   5   8
ATOM      8  N   UNL     1       2.739  -0.196  -0.025  0.00  0.00    -0.294 N 
ATOM      9  H   UNL     1       1.932  -0.943  -0.020  0.00  0.00    +0.163 HD
ATOM     10  H   UNL     1       3.790  -0.521  -0.037  0.00  0.00    +0.163 HD
ENDBRANCH   5   8
BRANCH   6  11
ATOM     11  N   UNL     1      -1.234   1.650   0.017  0.00  0.00    -0.187 NA
ATOM     12  C   UNL     1      -2.351   0.984   0.018  0.00  0.00    +0.142 C 
BRANCH  12  13
ATOM     13  C   UNL     1      -3.634   1.702   0.029  0.00  0.00    +0.044 A 
ATOM     14  C   UNL     1      -4.899   0.970   0.024  0.00  0.00    -0.006 A 
ATOM     15  C   UNL     1      -4.933  -0.430   0.011  0.00  0.00    +0.009 A 
ATOM     16  C   UNL     1      -6.134  -1.074   0.007  0.00  0.00    +0.001 A 
ATOM     17  C   UNL     1      -7.330  -0.359   0.016  0.00  0.00    +0.001 A 
ATOM     18  C   UNL     1      -7.332   1.002   0.040  0.00  0.00    +0.008 A 
ATOM     19  C   UNL     1      -6.112   1.700   0.039  0.00  0.00    -0.017 A 
ATOM     20  C   UNL     1      -6.076   3.105   0.046  0.00  0.00    +0.012 A 
ATOM     21  C   UNL     1      -4.890   3.770   0.045  0.00  0.00    +0.046 A 
ATOM     22  C   UNL     1      -3.670   3.096   0.036  0.00  0.00    +0.126 A 
BRANCH  22  23
ATOM     23  O   UNL     1      -2.510   3.801   0.035  0.00  0.00    -0.506 OA
ATOM     24  H   UNL     1      -2.534   4.901   0.041  0.00  0.00    +0.292 HD
ENDBRANCH  22  23
ENDBRANCH  12  13
ENDBRANCH   6  11
BRANCH   1  25
ATOM     25  S   UNL     1       5.092   2.003  -0.036  0.00  0.00    -0.080 S 
BRANCH  25  26
ATOM     26  C   UNL     1       5.689   3.716  -0.034  0.00  0.00    +0.113 C 
BRANCH  26  31
ATOM     27  C   UNL     1      11.467   3.740  -0.088  0.00  0.00    +0.044 C 
ATOM     28  C   UNL     1       9.961   3.735  -0.074  0.00  0.00    -0.050 A 
ATOM     29  C   UNL     1       9.258   3.737  -1.265  0.00  0.00    +0.007 A 
ATOM     30  C   UNL     1       7.876   3.731  -1.252  0.00  0.00    -0.046 A 
ATOM     31  C   UNL     1       7.196   3.723  -0.048  0.00  0.00    -0.031 A 
ATOM     32  C   UNL     1       7.898   3.726   1.143  0.00  0.00    -0.046 A 
ATOM     33  C   UNL     1       9.281   3.728   1.130  0.00  0.00    +0.007 A 
ATOM     34  C   UNL     1       7.157   3.724   2.454  0.00  0.00    +0.044 C 
ATOM     35  C   UNL     1       7.110   3.733  -2.550  0.00  0.00    +0.044 C 
ENDBRANCH  26  31
ENDBRANCH  25  26
ENDBRANCH   1  25
TORSDOF 7
