REMARK  Name = ZINC02246948
REMARK  12 active torsions:
REMARK  status: ('A' for Active; 'I' for Inactive)
REMARK    1  A    between atoms: C_1  and  C_2
REMARK    2  A    between atoms: N_8  and  C_9
REMARK    3  A    between atoms: C_9  and  C_10
REMARK    4  A    between atoms: C_15  and  C_23
REMARK    5  A    between atoms: C_17  and  C_21
REMARK    6  A    between atoms: C_18  and  N_20
REMARK    7  A    between atoms: C_25  and  O_33
REMARK    8  A    between atoms: C_26  and  O_31
REMARK    9  A    between atoms: C_28  and  O_29
REMARK   10  A    between atoms: O_29  and  C_30
REMARK   11  A    between atoms: O_31  and  C_32
REMARK   12  A    between atoms: O_33  and  C_34
REMARK                            x       y       z     vdW  Elec       q    Type
REMARK                         _______ _______ _______ _____ _____    ______ ____
ROOT
ATOM      1  C   UNL     1      -2.414   1.238   0.356  0.00  0.00    +0.064 C 
ATOM      2  C   UNL     1      -1.173   2.074   0.179  0.00  0.00    +0.023 A 
ATOM      3  C   UNL     1      -1.288   3.407  -0.007  0.00  0.00    +0.068 A 
ATOM      4  C   UNL     1      -0.130   4.193  -0.179  0.00  0.00    +0.141 A 
ATOM      5  C   UNL     1       1.104   3.579  -0.147  0.00  0.00    +0.072 A 
ATOM      6  C   UNL     1       1.175   2.194   0.054  0.00  0.00    +0.260 A 
ATOM      7  O   UNL     1       2.261   1.637   0.085  0.00  0.00    -0.267 OA
ATOM      8  N   UNL     1       0.047   1.477   0.213  0.00  0.00    -0.305 N 
ATOM      9  C   UNL     1       2.365   4.379  -0.325  0.00  0.00    +0.107 C 
ATOM     10  C   UNL     1       2.046   5.725  -0.913  0.00  0.00    +0.098 C 
ATOM     11  C   UNL     1       0.783   6.213  -0.904  0.00  0.00    +0.199 C 
ATOM     12  O   UNL     1      -0.242   5.524  -0.372  0.00  0.00    -0.441 OA
ENDROOT
BRANCH   9  13
ATOM     13  C   UNL     1       3.032   4.564   1.014  0.00  0.00    +0.011 A 
ATOM     14  C   UNL     1       2.365   5.219   2.033  0.00  0.00    +0.057 A 
ATOM     15  C   UNL     1       2.974   5.386   3.266  0.00  0.00    +0.162 A 
ATOM     16  C   UNL     1       4.262   4.904   3.475  0.00  0.00    +0.165 A 
ATOM     17  C   UNL     1       4.931   4.253   2.452  0.00  0.00    +0.095 A 
ATOM     18  C   UNL     1       4.316   4.083   1.221  0.00  0.00    +0.128 A 
BRANCH  18  19
ATOM     19  O   UNL     1       4.972   3.444   0.216  0.00  0.00    -0.495 OA
ATOM     20  C   UNL     1       6.292   2.974   0.498  0.00  0.00    +0.277 C 
ENDBRANCH  18  19
BRANCH  16  21
ATOM     21  O   UNL     1       4.864   5.072   4.684  0.00  0.00    -0.491 OA
ATOM     22  C   UNL     1       6.187   4.551   4.827  0.00  0.00    +0.277 C 
ENDBRANCH  16  21
BRANCH  15  23
ATOM     23  O   UNL     1       2.314   6.026   4.270  0.00  0.00    -0.491 OA
ATOM     24  C   UNL     1       0.995   6.494   3.984  0.00  0.00    +0.277 C 
ENDBRANCH  15  23
ENDBRANCH   9  13
BRANCH  11  25
ATOM     25  N   UNL     1       0.542   7.448  -1.453  0.00  0.00    -0.328 N 
ATOM     26  H   UNL     1       1.271   7.957  -1.840  0.00  0.00    +0.145 HD
ATOM     27  H   UNL     1      -0.358   7.811  -1.454  0.00  0.00    +0.145 HD
ENDBRANCH  11  25
BRANCH  10  28
ATOM     28  C   UNL     1       3.096   6.505  -1.494  0.00  0.00    +0.101 C 
ATOM     29  N   UNL     1       3.930   7.125  -1.955  0.00  0.00    -0.191 NA
ENDBRANCH  10  28
BRANCH   8  30
ATOM     30  C   UNL     1       0.136   0.030   0.421  0.00  0.00    +0.199 C 
BRANCH  30  31
ATOM     31  C   UNL     1       0.163  -0.669  -0.914  0.00  0.00    +0.125 A 
ATOM     32  C   UNL     1       1.266  -0.963  -1.625  0.00  0.00    +0.046 A 
ATOM     33  C   UNL     1       0.832  -1.615  -2.802  0.00  0.00    +0.041 A 
ATOM     34  C   UNL     1      -0.510  -1.672  -2.744  0.00  0.00    +0.195 A 
ATOM     35  O   UNL     1      -0.910  -1.097  -1.598  0.00  0.00    -0.466 OA
ENDBRANCH  30  31
ENDBRANCH   8  30
TORSDOF 8
