REMARK  Name = ZINC16400353
REMARK  6 active torsions:
REMARK  status: ('A' for Active; 'I' for Inactive)
REMARK    1  A    between atoms: C_3  and  N_30
REMARK    2  A    between atoms: C_6  and  C_7
REMARK    3  A    between atoms: N_8  and  N_9
REMARK    4  A    between atoms: C_10  and  C_12
REMARK    5  A    between atoms: C_16  and  N_29
REMARK    6  A    between atoms: N_20  and  C_22
REMARK                            x       y       z     vdW  Elec       q    Type
REMARK                         _______ _______ _______ _____ _____    ______ ____
ROOT
ATOM      1  C   UNL     1       2.489   0.928   0.317  0.00  0.00    +0.156 A 
ATOM      2  C   UNL     1       3.657   1.667  -0.020  0.00  0.00    +0.028 A 
ATOM      3  C   UNL     1       3.801   3.145  -0.026  0.00  0.00    +0.058 A 
ATOM      4  S   UNL     1       5.436   3.423  -0.507  0.00  0.00    -0.081 S 
ATOM      5  C   UNL     1       5.986   1.744  -0.707  0.00  0.00    +0.076 A 
ATOM      6  C   UNL     1       4.798   0.940  -0.370  0.00  0.00    +0.078 A 
ATOM      7  C   UNL     1       4.695  -0.488  -0.370  0.00  0.00    +0.282 A 
ATOM      8  O   UNL     1       5.658  -1.169  -0.671  0.00  0.00    -0.265 OA
ATOM      9  N   UNL     1       3.534  -1.074  -0.038  0.00  0.00    -0.196 N 
ATOM     10  N   UNL     1       2.496  -0.395   0.286  0.00  0.00    -0.158 NA
ENDROOT
BRANCH   9  11
ATOM     11  C   UNL     1       3.455  -2.461  -0.045  0.00  0.00    +0.069 A 
ATOM     12  C   UNL     1       3.908  -3.181  -1.149  0.00  0.00    +0.029 A 
ATOM     13  C   UNL     1       3.831  -4.558  -1.150  0.00  0.00    +0.022 A 
ATOM     14  C   UNL     1       3.296  -5.225  -0.060  0.00  0.00    +0.041 A 
ATOM     15  C   UNL     1       2.840  -4.513   1.038  0.00  0.00    +0.022 A 
ATOM     16  C   UNL     1       2.917  -3.136   1.049  0.00  0.00    +0.029 A 
ATOM     17 CL   UNL     1       3.196  -6.958  -0.069  0.00  0.00    -0.084 Cl
ENDBRANCH   9  11
BRANCH   1  19
ATOM     18  N   UNL     1       0.140   0.952   1.015  0.00  0.00    -0.202 N 
ATOM     19  C   UNL     1       1.252   1.646   0.700  0.00  0.00    +0.284 C 
ATOM     20  O   UNL     1       1.239   2.861   0.730  0.00  0.00    -0.267 OA
ATOM     21  H   UNL     1       0.151  -0.018   0.991  0.00  0.00    +0.178 HD
BRANCH  18  23
ATOM     22  C   UNL     1      -2.105   0.962   1.671  0.00  0.00    +0.138 C 
ATOM     23  N   UNL     1      -1.032   1.631   1.372  0.00  0.00    -0.187 NA
BRANCH  22  29
ATOM     24  C   UNL     1      -3.355   3.074   2.087  0.00  0.00    +0.012 A 
ATOM     25  C   UNL     1      -4.514   3.736   2.436  0.00  0.00    +0.033 A 
ATOM     26  C   UNL     1      -5.655   3.020   2.753  0.00  0.00    +0.126 A 
ATOM     27  C   UNL     1      -5.644   1.637   2.719  0.00  0.00    +0.033 A 
ATOM     28  C   UNL     1      -4.494   0.961   2.368  0.00  0.00    +0.012 A 
ATOM     29  C   UNL     1      -3.338   1.677   2.046  0.00  0.00    -0.005 A 
BRANCH  26  30
ATOM     30  N   UNL     1      -6.893   3.737   3.131  0.00  0.00    +0.056 N 
ATOM     31  O   UNL     1      -7.981   3.059   3.435  0.00  0.00    -0.126 OA
ATOM     32  O   UNL     1      -6.907   5.054   3.165  0.00  0.00    -0.126 OA
ENDBRANCH  26  30
ENDBRANCH  22  29
ENDBRANCH  18  23
ENDBRANCH   1  19
BRANCH   5  33
ATOM     33  N   UNL     1       7.200   1.311  -1.077  0.00  0.00    -0.352 N 
ATOM     34  H   UNL     1       7.374   0.359  -1.148  0.00  0.00    +0.143 HD
ATOM     35  H   UNL     1       7.904   1.949  -1.272  0.00  0.00    +0.143 HD
ENDBRANCH   5  33
TORSDOF 6
