REMARK  Name = ZINC55910623
REMARK  5 active torsions:
REMARK  status: ('A' for Active; 'I' for Inactive)
REMARK    1  A    between atoms: C_1  and  C_2
REMARK    2  A    between atoms: C_6  and  C_8
REMARK    3  A    between atoms: N_13  and  C_14
REMARK    4  A    between atoms: C_14  and  C_15
REMARK    5  A    between atoms: N_17  and  N_18
REMARK                            x       y       z     vdW  Elec       q    Type
REMARK                         _______ _______ _______ _____ _____    ______ ____
ROOT
ATOM      1  C   UNL     1      -2.815  -5.119   3.240  0.00  0.00    +0.213 C 
ATOM      2  O   UNL     1      -2.649  -5.909   2.335  0.00  0.00    -0.276 OA
ATOM      3  N   UNL     1      -3.857  -5.267   4.082  0.00  0.00    -0.225 N 
ATOM      4  H   UNL     1      -3.990  -4.635   4.806  0.00  0.00    +0.173 HD
ENDROOT
BRANCH   3   5
ATOM      5  N   UNL     1      -4.748  -6.334   3.911  0.00  0.00    -0.137 N 
ATOM      6  C   UNL     1      -5.990  -6.211   3.397  0.00  0.00    +0.263 C 
ATOM      7  O   UNL     1      -6.526  -5.195   3.010  0.00  0.00    -0.271 OA
ATOM      8  C   UNL     1      -6.571  -7.606   3.405  0.00  0.00    +0.114 C 
ATOM      9  C   UNL     1      -6.898  -8.054   1.985  0.00  0.00    +0.035 C 
ATOM     10  C   UNL     1      -7.457  -9.479   2.013  0.00  0.00    +0.003 C 
ATOM     11  C   UNL     1      -8.717  -9.515   2.881  0.00  0.00    +0.000 C 
ATOM     12  C   UNL     1      -8.368  -9.085   4.307  0.00  0.00    +0.003 C 
ATOM     13  C   UNL     1      -7.813  -7.659   4.288  0.00  0.00    +0.035 C 
ATOM     14  N   UNL     1      -5.500  -8.435   3.973  0.00  0.00    -0.284 N 
ATOM     15  C   UNL     1      -4.473  -7.604   4.233  0.00  0.00    +0.326 C 
ATOM     16  O   UNL     1      -3.415  -7.966   4.709  0.00  0.00    -0.251 OA
ATOM     17  H   UNL     1      -5.526  -9.392   4.127  0.00  0.00    +0.151 HD
ENDBRANCH   3   5
BRANCH   1  18
ATOM     18  C   UNL     1      -1.856  -3.971   3.424  0.00  0.00    +0.021 C 
BRANCH  18  23
ATOM     19  C   UNL     1       0.054  -2.845   2.489  0.00  0.00    -0.037 C 
ATOM     20  C   UNL     1       1.483  -3.346   2.785  0.00  0.00    -0.013 C 
ATOM     21  C   UNL     1       1.240  -4.751   3.397  0.00  0.00    -0.020 C 
ATOM     22  C   UNL     1       0.017  -5.240   2.582  0.00  0.00    -0.077 C 
ATOM     23  N   UNL     1      -0.817  -4.030   2.387  0.00  0.00    +0.390 N 
ATOM     24  H   UNL     1      -1.249  -4.058   1.476  0.00  0.00    -0.080 HD
BRANCH  19  30
ATOM     25  C   UNL     1      -0.018   1.503   0.010  0.00  0.00    +0.044 C 
ATOM     26  C   UNL     1       0.002  -0.004   0.002  0.00  0.00    -0.050 A 
ATOM     27  C   UNL     1       0.006  -0.689  -1.199  0.00  0.00    +0.003 A 
ATOM     28  C   UNL     1       0.025  -2.071  -1.207  0.00  0.00    +0.000 A 
ATOM     29  C   UNL     1       0.040  -2.768  -0.013  0.00  0.00    +0.002 A 
ATOM     30  C   UNL     1       0.037  -2.084   1.188  0.00  0.00    -0.061 A 
ATOM     31  C   UNL     1       0.023  -0.702   1.195  0.00  0.00    +0.005 A 
ENDBRANCH  19  30
ENDBRANCH  18  23
ENDBRANCH   1  18
TORSDOF 4
