REMARK  Name = ZINC39993918
REMARK  7 active torsions:
REMARK  status: ('A' for Active; 'I' for Inactive)
REMARK    1  A    between atoms: C_1  and  C_2
REMARK    2  A    between atoms: C_5  and  C_36
REMARK    3  A    between atoms: N_8  and  C_10
REMARK    4  A    between atoms: C_11  and  C_21
REMARK    5  A    between atoms: C_22  and  C_23
REMARK    6  A    between atoms: C_22  and  C_25
REMARK    7  A    between atoms: N_27  and  C_28
REMARK                            x       y       z     vdW  Elec       q    Type
REMARK                         _______ _______ _______ _____ _____    ______ ____
ROOT
ATOM      1  C   UNL     1       2.772   0.573   2.256  0.00  0.00    +0.136 A 
ATOM      2  C   UNL     1       1.988   1.010   3.356  0.00  0.00    +0.081 A 
ATOM      3  C   UNL     1       2.630   1.744   4.387  0.00  0.00    +0.267 A 
ATOM      4  O   UNL     1       1.998   2.139   5.351  0.00  0.00    -0.267 OA
ATOM      5  N   UNL     1       3.952   1.996   4.282  0.00  0.00    -0.268 N 
ATOM      6  C   UNL     1       4.576   2.700   5.269  0.00  0.00    +0.096 A 
ATOM      7  C   UNL     1       5.899   2.970   5.196  0.00  0.00    +0.018 A 
ATOM      8  C   UNL     1       6.647   2.526   4.098  0.00  0.00    +0.005 A 
ATOM      9  C   UNL     1       6.032   1.820   3.106  0.00  0.00    +0.047 A 
ATOM     10  C   UNL     1       4.656   1.548   3.199  0.00  0.00    +0.142 A 
ATOM     11  N   UNL     1       4.065   0.853   2.226  0.00  0.00    -0.214 NA
ENDROOT
BRANCH   1  17
ATOM     12  C   UNL     1       1.839   1.616  -1.101  0.00  0.00    +0.009 C 
ATOM     13  C   UNL     1       0.946   0.413  -0.789  0.00  0.00    +0.004 C 
ATOM     14  C   UNL     1       1.541  -0.844  -1.428  0.00  0.00    +0.009 C 
ATOM     15  C   UNL     1       2.955  -1.070  -0.890  0.00  0.00    +0.004 C 
ATOM     16  C   UNL     1       2.894  -1.281   0.626  0.00  0.00    +0.109 C 
ATOM     17  N   UNL     1       2.193  -0.142   1.233  0.00  0.00    -0.314 N 
ATOM     18  C   UNL     1       0.861   0.220   0.728  0.00  0.00    +0.109 C 
ATOM     19  C   UNL     1       3.562  -2.308  -1.554  0.00  0.00    +0.009 C 
ENDBRANCH   1  17
BRANCH   2  20
ATOM     20  C   UNL     1       0.614   0.724   3.421  0.00  0.00    +0.040 C 
ATOM     21  C   UNL     1      -0.313   1.758   3.390  0.00  0.00    +0.114 C 
BRANCH  21  22
ATOM     22  C   UNL     1      -1.738   1.471   3.579  0.00  0.00    +0.259 C 
ATOM     23  O   UNL     1      -2.109   0.327   3.763  0.00  0.00    -0.269 OA
ATOM     24  N   UNL     1      -2.637   2.475   3.548  0.00  0.00    -0.280 N 
ATOM     25  H   UNL     1      -2.336   3.393   3.470  0.00  0.00    +0.155 HD
BRANCH  24  26
ATOM     26  C   UNL     1      -4.005   2.191   3.630  0.00  0.00    +0.054 A 
ATOM     27  C   UNL     1      -4.450   1.126   4.401  0.00  0.00    +0.025 A 
ATOM     28  C   UNL     1      -5.801   0.848   4.480  0.00  0.00    +0.003 A 
ATOM     29  C   UNL     1      -6.711   1.629   3.791  0.00  0.00    +0.021 A 
ATOM     30  C   UNL     1      -6.272   2.692   3.021  0.00  0.00    +0.061 A 
ATOM     31  C   UNL     1      -4.921   2.978   2.943  0.00  0.00    +0.080 A 
ATOM     32 CL   UNL     1      -4.370   4.316   1.983  0.00  0.00    -0.080 Cl
ATOM     33 CL   UNL     1      -7.418   3.669   2.158  0.00  0.00    -0.082 Cl
ENDBRANCH  24  26
ENDBRANCH  21  22
BRANCH  21  34
ATOM     34  C   UNL     1       0.124   3.104   3.172  0.00  0.00    +0.104 C 
ATOM     35  N   UNL     1       0.471   4.173   3.000  0.00  0.00    -0.191 NA
ENDBRANCH  21  34
ENDBRANCH   2  20
TORSDOF 5
