REMARK  Name = ZINC58670044
REMARK  4 active torsions:
REMARK  status: ('A' for Active; 'I' for Inactive)
REMARK    1  A    between atoms: C_6  and  N_7
REMARK    2  A    between atoms: C_10  and  C_15
REMARK    3  A    between atoms: C_15  and  S_16
REMARK    4  A    between atoms: S_16  and  C_17
REMARK                            x       y       z     vdW  Elec       q    Type
REMARK                         _______ _______ _______ _____ _____    ______ ____
ROOT
ATOM      1  N   UNL     1      -1.200  -0.721   0.010  0.00  0.00    -0.284 N 
ATOM      2  C   UNL     1      -1.183  -2.098  -0.102  0.00  0.00    +0.224 A 
ATOM      3  N   UNL     1      -2.327  -2.772  -0.200  0.00  0.00    -0.198 NA
ATOM      4  C   UNL     1      -2.312  -4.089  -0.307  0.00  0.00    +0.146 A 
ATOM      5  N   UNL     1      -1.163  -4.742  -0.317  0.00  0.00    -0.199 NA
ATOM      6  C   UNL     1      -0.015  -4.075  -0.219  0.00  0.00    +0.217 A 
ATOM      7  N   UNL     1      -0.026  -2.750  -0.117  0.00  0.00    -0.181 NA
ATOM      8  N   UNL     1       1.184  -4.757  -0.230  0.00  0.00    -0.327 N 
ATOM      9  H   UNL     1      -2.044  -0.252   0.102  0.00  0.00    +0.155 HD
ATOM     10  H   UNL     1       1.191  -5.724  -0.308  0.00  0.00    +0.145 HD
ATOM     11  H   UNL     1       2.020  -4.270  -0.159  0.00  0.00    +0.145 HD
ENDROOT
BRANCH   1  17
ATOM     12  C   UNL     1       1.069  -0.453  -0.775  0.00  0.00    +0.026 A 
ATOM     13  C   UNL     1       2.253   0.257  -0.793  0.00  0.00    +0.040 A 
ATOM     14  C   UNL     1       2.377   1.417  -0.047  0.00  0.00    +0.124 A 
ATOM     15  C   UNL     1       1.314   1.867   0.719  0.00  0.00    +0.040 A 
ATOM     16  C   UNL     1       0.128   1.160   0.739  0.00  0.00    +0.026 A 
ATOM     17  C   UNL     1       0.001  -0.003  -0.009  0.00  0.00    +0.034 A 
ATOM     18  F   UNL     1       3.536   2.111  -0.065  0.00  0.00    -0.205 F 
ENDBRANCH   1  17
BRANCH   4  19
ATOM     19  C   UNL     1      -3.609  -4.849  -0.417  0.00  0.00    +0.152 C 
BRANCH  19  20
ATOM     20  S   UNL     1      -4.066  -5.014  -2.165  0.00  0.00    -0.097 S 
BRANCH  20  21
ATOM     21  C   UNL     1      -5.582  -5.912  -2.126  0.00  0.00    +0.116 A 
ATOM     22  C   UNL     1      -6.227  -6.229  -3.319  0.00  0.00    +0.074 A 
ATOM     23  C   UNL     1      -7.416  -6.934  -3.273  0.00  0.00    +0.044 A 
ATOM     24  C   UNL     1      -7.923  -7.301  -2.032  0.00  0.00    +0.060 A 
ATOM     25  C   UNL     1      -7.230  -6.953  -0.889  0.00  0.00    +0.132 A 
ATOM     26  N   UNL     1      -6.094  -6.284  -0.963  0.00  0.00    -0.246 NA
ATOM     27 CL   UNL     1      -9.412  -8.186  -1.919  0.00  0.00    -0.082 Cl
ATOM     28 CL   UNL     1      -5.548  -5.745  -4.842  0.00  0.00    -0.081 Cl
ENDBRANCH  20  21
ENDBRANCH  19  20
ENDBRANCH   4  19
TORSDOF 4
