REMARK  Name = ZINC38596245
REMARK  13 active torsions:
REMARK  status: ('A' for Active; 'I' for Inactive)
REMARK    1  A    between atoms: C_1  and  C_2
REMARK    2  A    between atoms: C_4  and  C_37
REMARK    3  A    between atoms: C_5  and  C_36
REMARK    4  A    between atoms: C_6  and  S_9
REMARK    5  A    between atoms: C_7  and  C_8
REMARK    6  A    between atoms: S_9  and  N_12
REMARK    7  A    between atoms: N_12  and  C_13
REMARK    8  A    between atoms: C_13  and  C_15
REMARK    9  A    between atoms: C_13  and  C_16
REMARK   10  A    between atoms: C_16  and  C_18
REMARK   11  A    between atoms: C_16  and  N_23
REMARK   12  A    between atoms: N_26  and  C_29
REMARK   13  A    between atoms: C_29  and  C_30
REMARK                            x       y       z     vdW  Elec       q    Type
REMARK                         _______ _______ _______ _____ _____    ______ ____
ROOT
ATOM      1  C   UNL     1       2.872  -2.351   3.025  0.00  0.00    +0.112 C 
ENDROOT
BRANCH   1   2
ATOM      2  N   UNL     1       3.839  -1.246   3.091  0.00  0.00    -0.297 NA
ATOM      3  C   UNL     1       4.337  -1.063   4.462  0.00  0.00    +0.066 C 
ATOM      4  C   UNL     1       5.293   0.131   4.498  0.00  0.00    -0.063 C 
ATOM      5  N   UNL     1       6.413  -0.110   3.579  0.00  0.00    +0.384 N 
ATOM      6  C   UNL     1       5.902  -0.266   2.211  0.00  0.00    -0.063 C 
ATOM      7  C   UNL     1       4.951  -1.464   2.156  0.00  0.00    +0.066 C 
ATOM      8  H   UNL     1       6.899  -0.951   3.855  0.00  0.00    -0.081 HD
BRANCH   5   9
ATOM      9  C   UNL     1       7.340   1.029   3.629  0.00  0.00    -0.043 C 
BRANCH   9  10
ATOM     10  C   UNL     1       8.550   0.729   2.781  0.00  0.00    -0.064 A 
ATOM     11  C   UNL     1       9.647   0.102   3.340  0.00  0.00    +0.002 A 
ATOM     12  C   UNL     1      10.757  -0.173   2.562  0.00  0.00    +0.000 A 
ATOM     13  C   UNL     1      10.768   0.179   1.226  0.00  0.00    +0.000 A 
ATOM     14  C   UNL     1       9.670   0.805   0.666  0.00  0.00    +0.000 A 
ATOM     15  C   UNL     1       8.559   1.076   1.443  0.00  0.00    +0.002 A 
ENDBRANCH   9  10
ENDBRANCH   5   9
ENDBRANCH   1   2
BRANCH   1  16
ATOM     16  C   UNL     1       2.486  -2.595   1.589  0.00  0.00    +0.008 A 
ATOM     17  C   UNL     1       2.281  -3.773   0.949  0.00  0.00    +0.013 A 
ATOM     18  C   UNL     1       1.929  -3.757  -0.387  0.00  0.00    +0.008 A 
ATOM     19  C   UNL     1       1.798  -2.564  -1.018  0.00  0.00    +0.045 A 
ATOM     20  S   UNL     1       2.172  -1.410   0.292  0.00  0.00    -0.100 S 
ENDBRANCH   1  16
BRANCH   1  21
ATOM     21  C   UNL     1       1.625  -1.986   3.833  0.00  0.00    +0.095 C 
ATOM     22  C   UNL     1       0.644  -3.160   3.816  0.00  0.00    +0.027 C 
BRANCH  21  23
ATOM     23  N   UNL     1       0.987  -0.807   3.242  0.00  0.00    -0.185 NA
ATOM     24  H   UNL     1       0.998  -0.681   2.280  0.00  0.00    +0.148 HD
BRANCH  23  25
ATOM     25  S   UNL     1       0.247   0.310   4.214  0.00  0.00    +0.059 S 
ATOM     26  O   UNL     1      -0.598  -0.416   5.097  0.00  0.00    -0.153 OA
ATOM     27  O   UNL     1      -0.245   1.332   3.358  0.00  0.00    -0.153 OA
BRANCH  25  33
ATOM     28  C   UNL     1       4.108   3.761   4.920  0.00  0.00    +0.044 C 
ATOM     29  C   UNL     1       3.261   2.646   5.478  0.00  0.00    -0.045 A 
ATOM     30  C   UNL     1       3.468   2.201   6.771  0.00  0.00    +0.007 A 
ATOM     31  C   UNL     1       2.692   1.179   7.282  0.00  0.00    -0.045 A 
ATOM     32  C   UNL     1       1.708   0.601   6.502  0.00  0.00    -0.021 A 
ATOM     33  C   UNL     1       1.500   1.046   5.210  0.00  0.00    +0.112 A 
ATOM     34  C   UNL     1       2.274   2.072   4.699  0.00  0.00    -0.021 A 
ATOM     35  C   UNL     1       2.044   2.561   3.292  0.00  0.00    +0.046 C 
ATOM     36  C   UNL     1       0.862  -0.515   7.059  0.00  0.00    +0.046 C 
ATOM     37  C   UNL     1       2.918   0.693   8.691  0.00  0.00    +0.044 C 
ENDBRANCH  25  33
ENDBRANCH  23  25
ENDBRANCH  21  23
ENDBRANCH   1  21
TORSDOF 8
