REMARK  Name = ZINC36738600
REMARK  7 active torsions:
REMARK  status: ('A' for Active; 'I' for Inactive)
REMARK    1  A    between atoms: C_1  and  C_2
REMARK    2  A    between atoms: C_2  and  C_3
REMARK    3  A    between atoms: C_3  and  C_4
REMARK    4  A    between atoms: C_4  and  C_6
REMARK    5  A    between atoms: C_4  and  C_7
REMARK    6  A    between atoms: N_9  and  C_10
REMARK    7  A    between atoms: C_15  and  N_16
REMARK                            x       y       z     vdW  Elec       q    Type
REMARK                         _______ _______ _______ _____ _____    ______ ____
ROOT
ATOM      1  C   UNL     1       1.909  -4.292  -4.039  0.00  0.00    +0.056 A 
ATOM      2  C   UNL     1       1.749  -3.502  -5.168  0.00  0.00    +0.052 A 
ATOM      3  C   UNL     1       2.200  -3.954  -6.397  0.00  0.00    +0.078 A 
ATOM      4  C   UNL     1       2.814  -5.202  -6.501  0.00  0.00    +0.144 A 
ATOM      5  C   UNL     1       2.975  -5.991  -5.376  0.00  0.00    +0.072 A 
ATOM      6  C   UNL     1       2.529  -5.537  -4.143  0.00  0.00    +0.050 A 
ATOM      7  O   UNL     1       3.249  -5.633  -7.716  0.00  0.00    -0.481 OA
ATOM      8  C   UNL     1       2.489  -5.220  -8.855  0.00  0.00    +0.325 C 
ATOM      9  C   UNL     1       2.197  -3.744  -8.761  0.00  0.00    +0.255 C 
ATOM     10  O   UNL     1       2.098  -3.078  -9.770  0.00  0.00    -0.272 OA
ATOM     11  N   UNL     1       2.046  -3.167  -7.550  0.00  0.00    -0.280 N 
ATOM     12  H   UNL     1       1.834  -2.223  -7.477  0.00  0.00    +0.155 HD
ENDROOT
BRANCH   1  15
ATOM     13  C   UNL     1       1.331  -2.515  -2.562  0.00  0.00    +0.220 C 
ATOM     14  O   UNL     1       1.707  -1.716  -3.394  0.00  0.00    -0.275 OA
ATOM     15  N   UNL     1       1.454  -3.837  -2.793  0.00  0.00    -0.284 N 
ATOM     16  H   UNL     1       1.228  -4.473  -2.097  0.00  0.00    +0.155 HD
BRANCH  13  17
ATOM     17  C   UNL     1       0.725  -2.028  -1.271  0.00  0.00    +0.072 C 
ATOM     18  C   UNL     1       1.562  -2.532  -0.094  0.00  0.00    +0.017 C 
BRANCH  17  19
ATOM     19  C   UNL     1       0.702  -0.498  -1.263  0.00  0.00    +0.012 C 
BRANCH  19  21
ATOM     20  C   UNL     1      -0.047   1.525  -0.002  0.00  0.00    +0.004 C 
ATOM     21  C   UNL     1      -0.024  -0.005  -0.010  0.00  0.00    -0.003 C 
ENDBRANCH  19  21
ENDBRANCH  17  19
ENDBRANCH  13  17
ENDBRANCH   1  15
BRANCH   6  22
ATOM     22  N   UNL     1       2.696  -6.332  -3.002  0.00  0.00    -0.356 N 
ATOM     23  H   UNL     1       2.381  -6.017  -2.140  0.00  0.00    +0.142 HD
ATOM     24  H   UNL     1       3.127  -7.198  -3.073  0.00  0.00    +0.142 HD
ENDBRANCH   6  22
TORSDOF 5
