REMARK  Name = ZINC02922995
REMARK  10 active torsions:
REMARK  status: ('A' for Active; 'I' for Inactive)
REMARK    1  A    between atoms: C_1  and  C_2
REMARK    2  A    between atoms: C_2  and  C_3
REMARK    3  A    between atoms: C_7  and  C_32
REMARK    4  A    between atoms: C_8  and  N_9
REMARK    5  A    between atoms: N_9  and  C_10
REMARK    6  A    between atoms: C_10  and  N_12
REMARK    7  A    between atoms: N_12  and  N_13
REMARK    8  A    between atoms: N_21  and  C_24
REMARK    9  A    between atoms: C_24  and  N_25
REMARK   10  A    between atoms: C_32  and  C_33
REMARK                            x       y       z     vdW  Elec       q    Type
REMARK                         _______ _______ _______ _____ _____    ______ ____
ROOT
ATOM      1  N   UNL     1       1.827  12.131  -5.049  0.00  0.00    -0.175 NA
ATOM      2  C   UNL     1       1.298  12.519  -6.185  0.00  0.00    +0.153 C 
ATOM      3  C   UNL     1       1.493  13.815  -6.875  0.00  0.00    +0.028 A 
ATOM      4  C   UNL     1       2.235  14.952  -6.575  0.00  0.00    +0.012 A 
ATOM      5  C   UNL     1       2.215  16.030  -7.437  0.00  0.00    +0.001 A 
ATOM      6  C   UNL     1       1.458  15.978  -8.596  0.00  0.00    +0.002 A 
ATOM      7  C   UNL     1       0.714  14.856  -8.900  0.00  0.00    +0.024 A 
ATOM      8  C   UNL     1       0.726  13.758  -8.046  0.00  0.00    +0.044 A 
ATOM      9  N   UNL     1       0.084  12.527  -8.116  0.00  0.00    -0.282 N 
ATOM     10  C   UNL     1       0.380  11.758  -7.054  0.00  0.00    +0.270 C 
ATOM     11  O   UNL     1      -0.036  10.633  -6.846  0.00  0.00    -0.268 OA
ENDROOT
BRANCH   1  12
ATOM     12  N   UNL     1       1.534  10.861  -4.536  0.00  0.00    -0.217 N 
ATOM     13  H   UNL     1       0.859  10.189  -5.086  0.00  0.00    +0.176 HD
BRANCH  12  14
ATOM     14  C   UNL     1       2.077  10.463  -3.369  0.00  0.00    +0.154 C 
ATOM     15  S   UNL     1       1.718   8.911  -2.742  0.00  0.00    -0.017 S 
BRANCH  14  16
ATOM     16  N   UNL     1       2.904  11.287  -2.695  0.00  0.00    -0.295 N 
ATOM     17  H   UNL     1       3.215  12.242  -3.144  0.00  0.00    +0.154 HD
BRANCH  16  23
ATOM     18  C   UNL     1       4.706  10.616  -1.234  0.00  0.00    -0.026 A 
ATOM     19  C   UNL     1       5.161  10.267   0.022  0.00  0.00    +0.005 A 
ATOM     20  C   UNL     1       4.282  10.218   1.088  0.00  0.00    +0.001 A 
ATOM     21  C   UNL     1       2.946  10.524   0.901  0.00  0.00    +0.005 A 
ATOM     22  C   UNL     1       2.486  10.878  -0.352  0.00  0.00    -0.026 A 
ATOM     23  C   UNL     1       3.366  10.928  -1.425  0.00  0.00    +0.039 A 
BRANCH  18  25
ATOM     24  C   UNL     1       6.179  12.093  -2.576  0.00  0.00    +0.009 C 
ATOM     25  C   UNL     1       5.664  10.663  -2.397  0.00  0.00    +0.033 C 
ENDBRANCH  18  25
BRANCH  22  26
ATOM     26  C   UNL     1       1.030  11.210  -0.555  0.00  0.00    +0.033 C 
ATOM     27  C   UNL     1       0.383  11.517   0.798  0.00  0.00    +0.009 C 
ENDBRANCH  22  26
ENDBRANCH  16  23
ENDBRANCH  14  16
ENDBRANCH  12  14
ENDBRANCH   1  12
BRANCH   9  28
ATOM     28  C   UNL     1      -0.803  12.119  -9.208  0.00  0.00    +0.039 C 
BRANCH  28  29
ATOM     29  N   UNL     1      -0.016  11.456 -10.256  0.00  0.00    +0.390 N 
ATOM     30  C   UNL     1       0.737  12.445 -11.059  0.00  0.00    -0.077 C 
ATOM     31  C   UNL     1       1.338  11.850 -12.304  0.00  0.00    -0.019 C 
ATOM     32  C   UNL     1       0.354  12.065 -13.473  0.00  0.00    -0.002 C 
ATOM     33  C   UNL     1      -0.746  11.108 -13.450  0.00  0.00    -0.002 C 
ATOM     34  C   UNL     1      -1.592  11.223 -12.165  0.00  0.00    -0.019 C 
ATOM     35  C   UNL     1      -0.859  10.532 -11.048  0.00  0.00    -0.077 C 
ATOM     36  H   UNL     1       0.747  10.823  -9.780  0.00  0.00    -0.080 HD
ENDBRANCH  28  29
ENDBRANCH   9  28
TORSDOF 8
