REMARK  Name = ZINC40735075
REMARK  7 active torsions:
REMARK  status: ('A' for Active; 'I' for Inactive)
REMARK    1  A    between atoms: C_1  and  C_2
REMARK    2  A    between atoms: C_7  and  C_9
REMARK    3  A    between atoms: C_7  and  C_10
REMARK    4  A    between atoms: C_14  and  N_31
REMARK    5  A    between atoms: C_15  and  N_19
REMARK    6  A    between atoms: C_25  and  O_29
REMARK    7  A    between atoms: O_29  and  C_30
REMARK                            x       y       z     vdW  Elec       q    Type
REMARK                         _______ _______ _______ _____ _____    ______ ____
ROOT
ATOM      1  C   UNL     1      -1.166   2.279  -2.020  0.00  0.00    +0.013 C 
ATOM      2  C   UNL     1      -1.296   0.793  -1.651  0.00  0.00    -0.014 C 
ATOM      3  C   UNL     1      -2.598   0.157  -2.212  0.00  0.00    +0.030 C 
ATOM      4  C   UNL     1      -2.211  -1.341  -2.125  0.00  0.00    +0.076 C 
ATOM      5  C   UNL     1      -2.308  -1.749  -0.657  0.00  0.00    +0.029 C 
ATOM      6  C   UNL     1      -1.479  -0.887   0.278  0.00  0.00    -0.033 C 
ATOM      7  C   UNL     1      -1.290   0.558  -0.141  0.00  0.00    +0.014 C 
ATOM      8  C   UNL     1      -0.114  -1.548   0.518  0.00  0.00    +0.011 C 
ATOM      9  C   UNL     1      -2.204  -0.875   1.647  0.00  0.00    +0.011 C 
ATOM     10  N   UNL     1      -0.798  -1.393  -2.550  0.00  0.00    -0.310 N 
ATOM     11  C   UNL     1      -0.198  -0.073  -2.306  0.00  0.00    +0.113 C 
ATOM     12  C   UNL     1      -0.149  -2.494  -3.096  0.00  0.00    +0.147 A 
ATOM     13  C   UNL     1       1.157  -2.381  -3.578  0.00  0.00    +0.106 A 
ATOM     14  C   UNL     1       1.762  -3.517  -4.115  0.00  0.00    +0.150 A 
ATOM     15  N   UNL     1       1.077  -4.658  -4.148  0.00  0.00    -0.219 NA
ATOM     16  C   UNL     1      -0.154  -4.723  -3.683  0.00  0.00    +0.225 A 
ATOM     17  N   UNL     1      -0.760  -3.674  -3.163  0.00  0.00    -0.219 NA
ENDROOT
BRANCH  14  18
ATOM     18  N   UNL     1       3.062  -3.459  -4.610  0.00  0.00    -0.277 N 
ATOM     19  C   UNL     1       3.651  -4.592  -5.140  0.00  0.00    +0.165 A 
ATOM     20  N   UNL     1       3.149  -5.798  -5.268  0.00  0.00    -0.225 NA
ATOM     21  C   UNL     1       3.846  -6.821  -5.812  0.00  0.00    +0.081 A 
ATOM     22  C   UNL     1       3.426  -8.157  -6.005  0.00  0.00    +0.032 A 
ATOM     23  C   UNL     1       4.262  -9.080  -6.576  0.00  0.00    +0.048 A 
ATOM     24  C   UNL     1       5.549  -8.740  -6.983  0.00  0.00    +0.121 A 
ATOM     25  C   UNL     1       5.992  -7.438  -6.807  0.00  0.00    +0.063 A 
ATOM     26  C   UNL     1       5.158  -6.510  -6.236  0.00  0.00    +0.044 A 
ATOM     27  S   UNL     1       5.287  -4.784  -5.833  0.00  0.00    -0.052 S 
ATOM     28  H   UNL     1       3.554  -2.624  -4.582  0.00  0.00    +0.156 HD
BRANCH  24  29
ATOM     29  O   UNL     1       6.362  -9.674  -7.545  0.00  0.00    -0.495 OA
ATOM     30  C   UNL     1       5.831 -10.993  -7.691  0.00  0.00    +0.277 C 
ENDBRANCH  24  29
ENDBRANCH  14  18
BRANCH  13  31
ATOM     31  N   UNL     1       1.842  -1.156  -3.523  0.00  0.00    -0.353 N 
ATOM     32  H   UNL     1       1.720  -0.566  -2.763  0.00  0.00    +0.143 HD
ATOM     33  H   UNL     1       2.437  -0.901  -4.246  0.00  0.00    +0.143 HD
ENDBRANCH  13  31
TORSDOF 3
