REMARK  Name = ZINC33326852
REMARK  10 active torsions:
REMARK  status: ('A' for Active; 'I' for Inactive)
REMARK    1  A    between atoms: C_1  and  C_2
REMARK    2  A    between atoms: C_3  and  S_8
REMARK    3  A    between atoms: C_4  and  C_7
REMARK    4  A    between atoms: S_8  and  N_11
REMARK    5  A    between atoms: N_11  and  C_12
REMARK    6  A    between atoms: C_15  and  N_18
REMARK    7  A    between atoms: C_21  and  N_26
REMARK    8  A    between atoms: C_23  and  C_25
REMARK    9  A    between atoms: N_26  and  C_27
REMARK   10  A    between atoms: N_26  and  C_28
REMARK                            x       y       z     vdW  Elec       q    Type
REMARK                         _______ _______ _______ _____ _____    ______ ____
ROOT
ATOM      1  C   UNL     1       1.683   0.227  -4.670  0.00  0.00    +0.074 A 
ATOM      2  C   UNL     1       0.721   0.786  -5.501  0.00  0.00    +0.028 A 
ATOM      3  C   UNL     1       1.077   1.255  -6.750  0.00  0.00    +0.025 A 
ATOM      4  C   UNL     1       2.396   1.167  -7.176  0.00  0.00    +0.032 A 
ATOM      5  C   UNL     1       3.357   0.608  -6.345  0.00  0.00    +0.025 A 
ATOM      6  C   UNL     1       3.003   0.143  -5.094  0.00  0.00    +0.028 A 
ENDROOT
BRANCH   4   7
ATOM      7  N   UNL     1       2.756   1.642  -8.443  0.00  0.00    -0.301 N 
ATOM      8  C   UNL     1       2.223   2.833  -8.915  0.00  0.00    +0.105 A 
ATOM      9  C   UNL     1       1.481   3.657  -8.073  0.00  0.00    +0.085 A 
ATOM     10  C   UNL     1       0.968   4.840  -8.594  0.00  0.00    +0.126 A 
ATOM     11  N   UNL     1       1.204   5.141  -9.870  0.00  0.00    -0.219 NA
ATOM     12  C   UNL     1       1.911   4.334 -10.635  0.00  0.00    +0.107 A 
ATOM     13  N   UNL     1       2.418   3.208 -10.178  0.00  0.00    -0.332 N 
ATOM     14  C   UNL     1       2.152   4.714 -12.073  0.00  0.00    +0.086 C 
ATOM     15  H   UNL     1       3.378   1.139  -8.991  0.00  0.00    +0.154 HD
ATOM     16  H   UNL     1       2.938   2.642 -10.770  0.00  0.00    +0.168 HD
BRANCH  10  17
ATOM     17  N   UNL     1       0.222   5.695  -7.797  0.00  0.00    -0.321 N 
ATOM     18  C   UNL     1       0.061   5.410  -6.369  0.00  0.00    +0.130 C 
ATOM     19  C   UNL     1      -0.405   6.883  -8.382  0.00  0.00    +0.130 C 
ENDBRANCH  10  17
ENDBRANCH   4   7
BRANCH   1  20
ATOM     20  N   UNL     1       1.323  -0.248  -3.404  0.00  0.00    -0.098 NA
BRANCH  20  21
ATOM     21  S   UNL     1      -0.251  -0.149  -2.899  0.00  0.00    +0.097 S 
ATOM     22  O   UNL     1      -1.002  -1.014  -3.740  0.00  0.00    -0.148 OA
ATOM     23  O   UNL     1      -0.549   1.234  -2.768  0.00  0.00    -0.148 OA
BRANCH  21  26
ATOM     24  C   UNL     1       0.132   1.346   0.054  0.00  0.00    +0.071 C 
ATOM     25  C   UNL     1      -0.148  -0.129  -0.074  0.00  0.00    +0.107 A 
ATOM     26  C   UNL     1      -0.322  -0.835  -1.278  0.00  0.00    +0.174 A 
ATOM     27  C   UNL     1      -0.553  -2.127  -0.976  0.00  0.00    +0.161 A 
ATOM     28  O   UNL     1      -0.530  -2.252   0.360  0.00  0.00    -0.358 OA
ATOM     29  N   UNL     1      -0.266  -0.974   0.911  0.00  0.00    -0.081 NA
ATOM     30  C   UNL     1      -0.796  -3.239  -1.965  0.00  0.00    +0.091 C 
ENDBRANCH  21  26
ENDBRANCH  20  21
ENDBRANCH   1  20
TORSDOF 5
