REMARK  Name = ZINC20837974
REMARK  10 active torsions:
REMARK  status: ('A' for Active; 'I' for Inactive)
REMARK    1  A    between atoms: C_1  and  C_2
REMARK    2  A    between atoms: C_2  and  C_25
REMARK    3  A    between atoms: N_3  and  N_4
REMARK    4  A    between atoms: C_7  and  S_10
REMARK    5  A    between atoms: S_10  and  C_11
REMARK    6  A    between atoms: C_11  and  C_12
REMARK    7  A    between atoms: N_14  and  C_15
REMARK    8  A    between atoms: C_18  and  S_21
REMARK    9  A    between atoms: S_21  and  N_24
REMARK   10  A    between atoms: C_28  and  N_31
REMARK                            x       y       z     vdW  Elec       q    Type
REMARK                         _______ _______ _______ _____ _____    ______ ____
ROOT
ATOM      1  N   UNL     1      -2.394   1.374  -0.009  0.00  0.00    -0.205 N 
ATOM      2  C   UNL     1      -1.120   1.776  -0.008  0.00  0.00    +0.232 A 
ATOM      3  N   UNL     1      -0.011   0.967  -0.007  0.00  0.00    -0.186 NA
ATOM      4  C   UNL     1       1.070   1.802  -0.011  0.00  0.00    +0.211 A 
ATOM      5  N   UNL     1       0.601   3.069  -0.009  0.00  0.00    -0.144 NA
ATOM      6  N   UNL     1      -0.685   3.053  -0.004  0.00  0.00    -0.245 N 
ATOM      7  H   UNL     1      -2.632   0.300  -0.009  0.00  0.00    +0.177 HD
ATOM      8  H   UNL     1      -1.409   3.881   0.003  0.00  0.00    +0.192 HD
ENDROOT
BRANCH   1  11
ATOM      9  C   UNL     1      -4.925   0.378  -0.012  0.00  0.00    +0.068 C 
ATOM     10  C   UNL     1      -4.599   1.850  -0.011  0.00  0.00    +0.063 C 
ATOM     11  N   UNL     1      -3.345   2.245  -0.010  0.00  0.00    -0.184 NA
BRANCH  10  12
ATOM     12  C   UNL     1      -5.679   2.839  -0.013  0.00  0.00    -0.002 A 
ATOM     13  C   UNL     1      -7.019   2.421  -0.020  0.00  0.00    +0.012 A 
ATOM     14  C   UNL     1      -8.028   3.359  -0.015  0.00  0.00    +0.033 A 
ATOM     15  C   UNL     1      -7.723   4.711  -0.015  0.00  0.00    +0.126 A 
ATOM     16  C   UNL     1      -6.403   5.133  -0.014  0.00  0.00    +0.033 A 
ATOM     17  C   UNL     1      -5.381   4.211  -0.012  0.00  0.00    +0.012 A 
BRANCH  15  18
ATOM     18  N   UNL     1      -8.815   5.711  -0.016  0.00  0.00    +0.056 N 
ATOM     19  O   UNL     1      -8.530   6.997  -0.016  0.00  0.00    -0.126 OA
ATOM     20  O   UNL     1     -10.071   5.314  -0.018  0.00  0.00    -0.126 OA
ENDBRANCH  15  18
ENDBRANCH  10  12
ENDBRANCH   1  11
BRANCH   4  21
ATOM     21  S   UNL     1       2.716   1.331  -0.018  0.00  0.00    -0.075 S 
BRANCH  21  22
ATOM     22  C   UNL     1       3.509   2.957  -0.022  0.00  0.00    +0.173 C 
BRANCH  22  23
ATOM     23  C   UNL     1       5.006   2.786  -0.028  0.00  0.00    +0.227 C 
ATOM     24  O   UNL     1       5.489   1.674  -0.030  0.00  0.00    -0.275 OA
ATOM     25  N   UNL     1       5.809   3.869  -0.032  0.00  0.00    -0.285 N 
ATOM     26  H   UNL     1       5.372   4.876  -0.107  0.00  0.00    +0.155 HD
BRANCH  25  27
ATOM     27  C   UNL     1       7.196   3.712   0.060  0.00  0.00    +0.034 A 
ATOM     28  C   UNL     1       7.958   4.647   0.749  0.00  0.00    +0.025 A 
ATOM     29  C   UNL     1       9.326   4.486   0.843  0.00  0.00    +0.030 A 
ATOM     30  C   UNL     1       9.939   3.402   0.242  0.00  0.00    +0.105 A 
ATOM     31  C   UNL     1       9.184   2.473  -0.450  0.00  0.00    +0.030 A 
ATOM     32  C   UNL     1       7.815   2.625  -0.543  0.00  0.00    +0.025 A 
BRANCH  30  33
ATOM     33  S   UNL     1      11.686   3.205   0.358  0.00  0.00    +0.056 S 
ATOM     34  O   UNL     1      12.099   3.913   1.519  0.00  0.00    -0.153 OA
ATOM     35  O   UNL     1      11.952   1.821   0.175  0.00  0.00    -0.153 OA
BRANCH  33  36
ATOM     36  N   UNL     1      12.355   3.990  -0.937  0.00  0.00    -0.204 NA
ATOM     37  H   UNL     1      13.450   3.890  -0.901  0.00  0.00    +0.144 HD
ATOM     38  H   UNL     1      12.083   5.055  -0.901  0.00  0.00    +0.144 HD
ENDBRANCH  33  36
ENDBRANCH  30  33
ENDBRANCH  25  27
ENDBRANCH  22  23
ENDBRANCH  21  22
ENDBRANCH   4  21
TORSDOF 9
