REMARK  Name = ZINC20355323
REMARK  11 active torsions:
REMARK  status: ('A' for Active; 'I' for Inactive)
REMARK    1  A    between atoms: C_1  and  C_2
REMARK    2  A    between atoms: C_6  and  C_8
REMARK    3  A    between atoms: C_8  and  N_9
REMARK    4  A    between atoms: C_18  and  C_19
REMARK    5  A    between atoms: C_22  and  C_25
REMARK    6  A    between atoms: N_27  and  C_28
REMARK    7  A    between atoms: C_28  and  C_29
REMARK    8  A    between atoms: C_29  and  C_30
REMARK    9  A    between atoms: C_30  and  N_31
REMARK   10  A    between atoms: C_33  and  C_40
REMARK   11  A    between atoms: C_36  and  C_39
REMARK                            x       y       z     vdW  Elec       q    Type
REMARK                         _______ _______ _______ _____ _____    ______ ____
ROOT
ATOM      1  C   UNL     1       5.346  -6.926  -6.820  0.00  0.00    -0.021 A 
ATOM      2  C   UNL     1       4.471  -7.707  -6.055  0.00  0.00    +0.009 A 
ATOM      3  C   UNL     1       3.864  -7.171  -4.955  0.00  0.00    +0.013 A 
ATOM      4  C   UNL     1       4.115  -5.845  -4.593  0.00  0.00    +0.037 A 
ATOM      5  C   UNL     1       4.985  -5.063  -5.360  0.00  0.00    +0.013 A 
ATOM      6  C   UNL     1       5.598  -5.598  -6.457  0.00  0.00    +0.009 A 
ENDROOT
BRANCH   1  16
ATOM      7  N   UNL     1       6.193  -4.514 -10.058  0.00  0.00    -0.257 N 
ATOM      8  C   UNL     1       7.359  -4.908 -10.726  0.00  0.00    +0.079 A 
ATOM      9  C   UNL     1       8.156  -3.958 -11.349  0.00  0.00    +0.027 A 
ATOM     10  C   UNL     1       9.308  -4.349 -12.006  0.00  0.00    +0.002 A 
ATOM     11  C   UNL     1       9.669  -5.683 -12.045  0.00  0.00    +0.004 A 
ATOM     12  C   UNL     1       8.879  -6.636 -11.428  0.00  0.00    +0.048 A 
ATOM     13  C   UNL     1       7.723  -6.253 -10.768  0.00  0.00    +0.150 A 
ATOM     14  O   UNL     1       6.942  -7.188 -10.159  0.00  0.00    -0.449 OA
ATOM     15  C   UNL     1       6.187  -6.745  -9.109  0.00  0.00    +0.191 C 
ATOM     16  C   UNL     1       6.001  -7.502  -8.004  0.00  0.00    +0.059 C 
ATOM     17  C   UNL     1       5.576  -5.402  -9.238  0.00  0.00    +0.287 C 
ATOM     18  O   UNL     1       4.565  -5.107  -8.629  0.00  0.00    -0.266 OA
BRANCH   7  19
ATOM     19  C   UNL     1       5.645  -3.168 -10.245  0.00  0.00    +0.149 C 
BRANCH  19  25
ATOM     20  C   UNL     1       4.718  -2.648 -15.135  0.00  0.00    +0.044 C 
ATOM     21  C   UNL     1       4.231  -2.928 -13.737  0.00  0.00    -0.050 A 
ATOM     22  C   UNL     1       2.893  -3.192 -13.512  0.00  0.00    +0.003 A 
ATOM     23  C   UNL     1       2.445  -3.448 -12.229  0.00  0.00    +0.001 A 
ATOM     24  C   UNL     1       3.336  -3.440 -11.172  0.00  0.00    +0.005 A 
ATOM     25  C   UNL     1       4.674  -3.177 -11.397  0.00  0.00    -0.029 A 
ATOM     26  C   UNL     1       5.121  -2.916 -12.680  0.00  0.00    +0.008 A 
ENDBRANCH  19  25
ENDBRANCH   7  19
ENDBRANCH   1  16
BRANCH   4  27
ATOM     27  C   UNL     1       3.458  -5.267  -3.404  0.00  0.00    +0.244 C 
ATOM     28  O   UNL     1       2.697  -5.945  -2.740  0.00  0.00    -0.270 OA
ATOM     29  N   UNL     1       3.700  -3.988  -3.055  0.00  0.00    -0.311 N 
ATOM     30  H   UNL     1       4.388  -3.374  -3.655  0.00  0.00    +0.149 HD
BRANCH  29  31
ATOM     31  C   UNL     1       3.047  -3.414  -1.875  0.00  0.00    +0.102 C 
BRANCH  31  32
ATOM     32  C   UNL     1       3.490  -1.960  -1.703  0.00  0.00    +0.000 C 
BRANCH  32  33
ATOM     33  C   UNL     1       2.809  -1.361  -0.471  0.00  0.00    -0.077 C 
BRANCH  33  34
ATOM     34  N   UNL     1       3.235   0.035  -0.306  0.00  0.00    +0.380 N 
ATOM     35  C   UNL     1       2.793   0.570   0.988  0.00  0.00    -0.076 C 
ATOM     36  C   UNL     1       3.125   2.062   1.064  0.00  0.00    -0.031 C 
ATOM     37  C   UNL     1       4.635   2.253   0.900  0.00  0.00    +0.003 C 
ATOM     38  C   UNL     1       5.077   1.644  -0.434  0.00  0.00    -0.031 C 
ATOM     39  C   UNL     1       4.689   0.164  -0.467  0.00  0.00    -0.076 C 
ATOM     40  C   UNL     1       6.594   1.778  -0.579  0.00  0.00    +0.005 C 
ATOM     41  C   UNL     1       2.684   2.615   2.421  0.00  0.00    +0.005 C 
ATOM     42  H   UNL     1       2.756   0.631  -1.097  0.00  0.00    -0.082 HD
ENDBRANCH  33  34
ENDBRANCH  32  33
ENDBRANCH  31  32
ENDBRANCH  29  31
ENDBRANCH   4  27
TORSDOF 8
