REMARK  Name = ZINC13959784
REMARK  6 active torsions:
REMARK  status: ('A' for Active; 'I' for Inactive)
REMARK    1  A    between atoms: C_4  and  C_7
REMARK    2  A    between atoms: C_8  and  C_13
REMARK    3  A    between atoms: C_16  and  C_32
REMARK    4  A    between atoms: N_18  and  C_26
REMARK    5  A    between atoms: C_21  and  N_25
REMARK    6  A    between atoms: C_22  and  C_23
REMARK                            x       y       z     vdW  Elec       q    Type
REMARK                         _______ _______ _______ _____ _____    ______ ____
ROOT
ATOM      1  C   UNL     1      -0.360   4.182   1.521  0.00  0.00    +0.105 C 
ATOM      2  C   UNL     1      -1.363   3.433   0.682  0.00  0.00    +0.058 A 
ATOM      3  C   UNL     1      -1.225   2.206   0.020  0.00  0.00    +0.136 A 
ATOM      4  N   UNL     1      -2.368   1.941  -0.588  0.00  0.00    -0.160 NA
ATOM      5  N   UNL     1      -3.259   2.996  -0.333  0.00  0.00    -0.199 N 
ATOM      6  C   UNL     1      -2.622   3.901   0.445  0.00  0.00    +0.230 A 
ATOM      7  O   UNL     1      -3.073   5.077   0.948  0.00  0.00    -0.423 OA
ATOM      8  C   UNL     1      -2.348   5.654   1.930  0.00  0.00    +0.200 C 
ATOM      9  C   UNL     1      -1.085   5.289   2.245  0.00  0.00    +0.098 C 
ENDROOT
BRANCH   1  11
ATOM     10  C   UNL     1       2.087   4.488   0.701  0.00  0.00    +0.097 A 
ATOM     11  C   UNL     1       0.708   4.768   0.634  0.00  0.00    +0.010 A 
ATOM     12  C   UNL     1       0.512   5.651  -0.369  0.00  0.00    +0.110 A 
ATOM     13  N   UNL     1       1.714   5.933  -0.917  0.00  0.00    -0.284 N 
ATOM     14  H   UNL     1       1.880   6.561  -1.677  0.00  0.00    +0.188 HD
ATOM     15  N   UNL     1       2.688   5.192  -0.235  0.00  0.00    -0.174 NA
BRANCH  10  19
ATOM     16  C   UNL     1       3.973   1.838   3.440  0.00  0.00    +0.000 A 
ATOM     17  C   UNL     1       4.456   1.953   2.149  0.00  0.00    +0.001 A 
ATOM     18  C   UNL     1       3.847   2.812   1.256  0.00  0.00    +0.010 A 
ATOM     19  C   UNL     1       2.745   3.563   1.657  0.00  0.00    +0.002 A 
ATOM     20  C   UNL     1       2.266   3.447   2.960  0.00  0.00    +0.010 A 
ATOM     21  C   UNL     1       2.879   2.582   3.843  0.00  0.00    +0.001 A 
ENDBRANCH  10  19
ENDBRANCH   1  11
BRANCH   5  22
ATOM     22  C   UNL     1      -4.575   3.094  -0.802  0.00  0.00    +0.069 A 
ATOM     23  C   UNL     1      -5.555   3.675  -0.009  0.00  0.00    +0.028 A 
ATOM     24  C   UNL     1      -6.851   3.775  -0.476  0.00  0.00    +0.002 A 
ATOM     25  C   UNL     1      -7.175   3.286  -1.728  0.00  0.00    +0.000 A 
ATOM     26  C   UNL     1      -6.203   2.701  -2.519  0.00  0.00    +0.002 A 
ATOM     27  C   UNL     1      -4.904   2.604  -2.060  0.00  0.00    +0.028 A 
ENDBRANCH   5  22
BRANCH   3  28
ATOM     28  C   UNL     1      -0.016   1.355   0.009  0.00  0.00    +0.155 A 
ATOM     29  C   UNL     1       0.002  -0.004   0.002  0.00  0.00    +0.051 A 
ATOM     30  C   UNL     1       1.357  -0.392  -0.013  0.00  0.00    +0.042 A 
ATOM     31  C   UNL     1       2.091   0.738  -0.014  0.00  0.00    +0.196 A 
ATOM     32  O   UNL     1       1.258   1.792  -0.000  0.00  0.00    -0.461 OA
ENDBRANCH   3  28
BRANCH   8  33
ATOM     33  N   UNL     1      -2.922   6.677   2.643  0.00  0.00    -0.328 N 
ATOM     34  H   UNL     1      -2.423   7.114   3.351  0.00  0.00    +0.145 HD
ATOM     35  H   UNL     1      -3.827   6.962   2.441  0.00  0.00    +0.145 HD
ENDBRANCH   8  33
BRANCH   9  36
ATOM     36  C   UNL     1      -0.412   5.977   3.305  0.00  0.00    +0.101 C 
ATOM     37  N   UNL     1       0.122   6.522   4.146  0.00  0.00    -0.191 NA
ENDBRANCH   9  36
TORSDOF 6
