REMARK  Name = ZINC39666227
REMARK  8 active torsions:
REMARK  status: ('A' for Active; 'I' for Inactive)
REMARK    1  A    between atoms: C_1  and  C_2
REMARK    2  A    between atoms: C_5  and  O_8
REMARK    3  A    between atoms: O_8  and  C_9
REMARK    4  A    between atoms: C_9  and  C_11
REMARK    5  A    between atoms: C_9  and  C_12
REMARK    6  A    between atoms: C_12  and  N_13
REMARK    7  A    between atoms: C_14  and  C_16
REMARK    8  A    between atoms: C_27  and  C_29
REMARK                            x       y       z     vdW  Elec       q    Type
REMARK                         _______ _______ _______ _____ _____    ______ ____
ROOT
ATOM      1  C   UNL     1      -3.867  -6.911  -0.092  0.00  0.00    +0.100 C 
ATOM      2  C   UNL     1      -3.852  -6.408  -1.553  0.00  0.00    +0.121 C 
ATOM      3  N   UNL     1      -3.902  -7.640  -2.374  0.00  0.00    -0.296 N 
ATOM      4  C   UNL     1      -4.844  -8.527  -1.651  0.00  0.00    +0.115 C 
ATOM      5  C   UNL     1      -4.522  -8.301  -0.161  0.00  0.00    -0.004 C 
ATOM      6  C   UNL     1      -3.552  -9.368   0.336  0.00  0.00    -0.010 C 
ATOM      7  C   UNL     1      -4.245 -10.733   0.313  0.00  0.00    -0.082 C 
ATOM      8  N   UNL     1      -5.438 -10.693   1.167  0.00  0.00    +0.379 N 
ATOM      9  C   UNL     1      -6.407  -9.730   0.629  0.00  0.00    -0.082 C 
ATOM     10  C   UNL     1      -5.805  -8.322   0.666  0.00  0.00    -0.010 C 
ATOM     11  C   UNL     1      -3.240  -7.897  -3.520  0.00  0.00    +0.248 C 
ATOM     12  O   UNL     1      -2.552  -7.034  -4.032  0.00  0.00    -0.270 OA
ATOM     13  H   UNL     1      -5.859 -11.609   1.198  0.00  0.00    -0.086 HD
ATOM     14  H   UNL     1      -5.173 -10.415   2.100  0.00  0.00    -0.086 HD
ENDROOT
BRANCH  11  15
ATOM     15  C   UNL     1      -3.351  -9.218  -4.152  0.00  0.00    +0.052 A 
ATOM     16  C   UNL     1      -4.515  -9.917  -4.115  0.00  0.00    +0.059 A 
ATOM     17  S   UNL     1      -4.205 -11.343  -4.941  0.00  0.00    -0.096 S 
ATOM     18  C   UNL     1      -2.509 -11.089  -5.381  0.00  0.00    +0.020 A 
ATOM     19  C   UNL     1      -2.211  -9.821  -4.847  0.00  0.00    +0.001 A 
ATOM     20  C   UNL     1      -0.907  -9.328  -5.042  0.00  0.00    +0.010 A 
ATOM     21  C   UNL     1       0.019 -10.068  -5.734  0.00  0.00    +0.001 A 
ATOM     22  C   UNL     1      -0.301 -11.313  -6.256  0.00  0.00    +0.001 A 
ATOM     23  C   UNL     1      -1.570 -11.827  -6.070  0.00  0.00    +0.015 A 
ENDBRANCH  11  15
BRANCH   1  25
ATOM     24  N   UNL     1      -2.244  -7.027   1.770  0.00  0.00    -0.312 N 
ATOM     25  C   UNL     1      -2.462  -7.019   0.440  0.00  0.00    +0.218 C 
ATOM     26  O   UNL     1      -1.527  -7.099  -0.328  0.00  0.00    -0.275 OA
ATOM     27  H   UNL     1      -2.992  -6.964   2.385  0.00  0.00    +0.149 HD
BRANCH  24  28
ATOM     28  C   UNL     1      -0.878  -7.133   2.288  0.00  0.00    +0.148 C 
BRANCH  28  29
ATOM     29  C   UNL     1      -0.909  -7.119   3.818  0.00  0.00    +0.187 C 
ATOM     30  C   UNL     1       0.518  -7.229   4.359  0.00  0.00    +0.053 C 
BRANCH  29  31
ATOM     31  O   UNL     1      -1.498  -5.899   4.271  0.00  0.00    -0.488 OA
BRANCH  31  36
ATOM     32  C   UNL     1      -3.855  -5.944   9.387  0.00  0.00    +0.044 C 
ATOM     33  C   UNL     1      -3.225  -5.932   8.018  0.00  0.00    -0.050 A 
ATOM     34  C   UNL     1      -2.724  -7.103   7.479  0.00  0.00    +0.007 A 
ATOM     35  C   UNL     1      -2.145  -7.094   6.224  0.00  0.00    +0.046 A 
ATOM     36  C   UNL     1      -2.067  -5.910   5.505  0.00  0.00    +0.121 A 
ATOM     37  C   UNL     1      -2.571  -4.737   6.049  0.00  0.00    +0.046 A 
ATOM     38  C   UNL     1      -3.154  -4.752   7.301  0.00  0.00    +0.007 A 
ENDBRANCH  31  36
ENDBRANCH  29  31
ENDBRANCH  28  29
ENDBRANCH  24  28
ENDBRANCH   1  25
TORSDOF 6
