REMARK  Name = ZINC59170579
REMARK  6 active torsions:
REMARK  status: ('A' for Active; 'I' for Inactive)
REMARK    1  A    between atoms: C_1  and  C_2
REMARK    2  A    between atoms: C_9  and  C_23
REMARK    3  A    between atoms: N_11  and  C_12
REMARK    4  A    between atoms: C_15  and  S_18
REMARK    5  A    between atoms: S_18  and  N_21
REMARK    6  A    between atoms: N_25  and  C_26
REMARK                            x       y       z     vdW  Elec       q    Type
REMARK                         _______ _______ _______ _____ _____    ______ ____
ROOT
ATOM      1  C   UNL     1      -1.189   1.317  -0.003  0.00  0.00    +0.044 C 
ATOM      2  C   UNL     1      -0.662  -0.093  -0.062  0.00  0.00    -0.050 A 
ATOM      3  C   UNL     1       0.213  -0.459  -1.075  0.00  0.00    +0.007 A 
ATOM      4  C   UNL     1       0.706  -1.746  -1.149  0.00  0.00    +0.047 A 
ATOM      5  C   UNL     1       0.326  -2.686  -0.203  0.00  0.00    +0.137 A 
ATOM      6  C   UNL     1      -0.559  -2.312   0.827  0.00  0.00    +0.018 A 
ATOM      7  C   UNL     1      -1.045  -1.001   0.885  0.00  0.00    +0.015 A 
ATOM      8  C   UNL     1      -0.952  -3.303   1.832  0.00  0.00    +0.030 A 
ATOM      9  C   UNL     1      -0.225  -4.486   1.879  0.00  0.00    +0.098 A 
ATOM     10  C   UNL     1       0.879  -4.636   0.910  0.00  0.00    +0.212 A 
ATOM     11  N   UNL     1       1.912  -5.406   1.175  0.00  0.00    -0.325 N 
ATOM     12  O   UNL     1       0.796  -3.955  -0.261  0.00  0.00    -0.439 OA
ATOM     13  H   UNL     1       2.049  -5.743   2.074  0.00  0.00    +0.169 HD
ENDROOT
BRANCH  11  14
ATOM     14  C   UNL     1       2.794  -5.733   0.181  0.00  0.00    +0.042 A 
ATOM     15  C   UNL     1       2.322  -6.125  -1.074  0.00  0.00    +0.027 A 
ATOM     16  C   UNL     1       3.217  -6.452  -2.072  0.00  0.00    +0.030 A 
ATOM     17  C   UNL     1       4.578  -6.393  -1.832  0.00  0.00    +0.105 A 
ATOM     18  C   UNL     1       5.052  -6.005  -0.591  0.00  0.00    +0.030 A 
ATOM     19  C   UNL     1       4.170  -5.669   0.414  0.00  0.00    +0.027 A 
BRANCH  17  20
ATOM     20  S   UNL     1       5.713  -6.814  -3.112  0.00  0.00    +0.056 S 
ATOM     21  O   UNL     1       6.921  -7.203  -2.472  0.00  0.00    -0.153 OA
ATOM     22  O   UNL     1       5.016  -7.668  -4.008  0.00  0.00    -0.153 OA
BRANCH  20  23
ATOM     23  N   UNL     1       6.048  -5.423  -3.946  0.00  0.00    -0.204 NA
ATOM     24  H   UNL     1       6.912  -5.309  -4.372  0.00  0.00    +0.144 HD
ATOM     25  H   UNL     1       5.379  -4.723  -4.010  0.00  0.00    +0.144 HD
ENDBRANCH  20  23
ENDBRANCH  17  20
ENDBRANCH  11  14
BRANCH   9  26
ATOM     26  C   UNL     1      -0.541  -5.543   2.854  0.00  0.00    +0.253 C 
ATOM     27  O   UNL     1      -1.377  -5.346   3.716  0.00  0.00    -0.270 OA
ATOM     28  N   UNL     1       0.096  -6.729   2.792  0.00  0.00    -0.281 N 
ATOM     29  H   UNL     1       0.786  -6.875   2.126  0.00  0.00    +0.155 HD
BRANCH  28  30
ATOM     30  C   UNL     1      -0.238  -7.750   3.688  0.00  0.00    +0.035 A 
ATOM     31  C   UNL     1      -0.690  -7.436   4.963  0.00  0.00    +0.023 A 
ATOM     32  C   UNL     1      -1.020  -8.446   5.846  0.00  0.00    +0.003 A 
ATOM     33  C   UNL     1      -0.899  -9.769   5.461  0.00  0.00    +0.015 A 
ATOM     34  C   UNL     1      -0.449 -10.085   4.192  0.00  0.00    +0.020 A 
ATOM     35  C   UNL     1      -0.124  -9.079   3.302  0.00  0.00    +0.038 A 
ATOM     36 BR   UNL     1      -0.285 -11.896   3.671  0.00  0.00    -0.050 Br
ENDBRANCH  28  30
ENDBRANCH   9  26
TORSDOF 5
