REMARK  Name = ZINC50633647
REMARK  3 active torsions:
REMARK  status: ('A' for Active; 'I' for Inactive)
REMARK    1  A    between atoms: C_3  and  N_9
REMARK    2  A    between atoms: N_9  and  S_10
REMARK    3  A    between atoms: S_10  and  C_13
REMARK                            x       y       z     vdW  Elec       q    Type
REMARK                         _______ _______ _______ _____ _____    ______ ____
ROOT
ATOM      1  S   UNL     1       5.028   1.319  -0.039  0.00  0.00    +0.095 S 
ATOM      2  O   UNL     1       5.126   0.634   1.202  0.00  0.00    -0.148 OA
ATOM      3  O   UNL     1       5.101   0.646  -1.289  0.00  0.00    -0.148 OA
ENDROOT
BRANCH   1   4
ATOM      4  C   UNL     1       6.305   2.534  -0.046  0.00  0.00    +0.146 A 
ATOM      5  C   UNL     1       6.802   3.032  -1.240  0.00  0.00    +0.144 A 
ATOM      6  N   UNL     1       7.761   3.943  -1.209  0.00  0.00    -0.221 NA
ATOM      7  C   UNL     1       8.244   4.379  -0.055  0.00  0.00    +0.213 A 
ATOM      8  N   UNL     1       7.791   3.923   1.103  0.00  0.00    -0.221 NA
ATOM      9  C   UNL     1       6.829   3.016   1.143  0.00  0.00    +0.144 A 
ATOM     10  N   UNL     1       9.247   5.333  -0.060  0.00  0.00    -0.327 N 
ATOM     11  H   UNL     1       9.588   5.674  -0.902  0.00  0.00    +0.145 HD
ATOM     12  H   UNL     1       9.610   5.660   0.778  0.00  0.00    +0.145 HD
ENDBRANCH   1   4
BRANCH   1  13
ATOM     13  N   UNL     1       3.583   2.128  -0.021  0.00  0.00    -0.095 NA
BRANCH  13  16
ATOM     14  C   UNL     1      -0.017   1.379   0.010  0.00  0.00    +0.017 A 
ATOM     15  C   UNL     1       1.169   2.088   0.002  0.00  0.00    +0.030 A 
ATOM     16  C   UNL     1       2.381   1.412  -0.013  0.00  0.00    +0.109 A 
ATOM     17  C   UNL     1       2.398   0.021  -0.021  0.00  0.00    +0.149 A 
ATOM     18  C   UNL     1       1.208  -0.683  -0.013  0.00  0.00    +0.055 A 
ATOM     19  C   UNL     1       0.002  -0.004   0.002  0.00  0.00    +0.021 A 
ATOM     20 BR   UNL     1      -1.624  -0.970   0.013  0.00  0.00    -0.050 Br
ATOM     21  F   UNL     1       3.576  -0.641  -0.036  0.00  0.00    -0.203 F 
ENDBRANCH  13  16
ENDBRANCH   1  13
TORSDOF 3
