REMARK  Name = ZINC09593328
REMARK  8 active torsions:
REMARK  status: ('A' for Active; 'I' for Inactive)
REMARK    1  A    between atoms: C_1  and  C_2
REMARK    2  A    between atoms: C_2  and  C_4
REMARK    3  A    between atoms: C_2  and  S_18
REMARK    4  A    between atoms: N_6  and  C_7
REMARK    5  A    between atoms: C_8  and  C_15
REMARK    6  A    between atoms: S_18  and  C_19
REMARK    7  A    between atoms: C_22  and  C_30
REMARK    8  A    between atoms: N_23  and  C_24
REMARK                            x       y       z     vdW  Elec       q    Type
REMARK                         _______ _______ _______ _____ _____    ______ ____
ROOT
ATOM      1  C   UNL     1       2.832   0.569  -1.459  0.00  0.00    +0.029 C 
ATOM      2  C   UNL     1       2.462   0.920  -0.017  0.00  0.00    +0.137 C 
ENDROOT
BRANCH   2   3
ATOM      3  C   UNL     1       1.147   1.655   0.000  0.00  0.00    +0.231 C 
ATOM      4  O   UNL     1       1.130   2.868   0.007  0.00  0.00    -0.274 OA
ATOM      5  N   UNL     1      -0.011   0.966   0.007  0.00  0.00    -0.278 N 
ATOM      6  H   UNL     1       0.002  -0.004   0.002  0.00  0.00    +0.155 HD
BRANCH   5   7
ATOM      7  C   UNL     1      -1.221   1.643   0.017  0.00  0.00    +0.084 A 
ATOM      8  C   UNL     1      -2.502   1.116   0.014  0.00  0.00    +0.068 A 
ATOM      9  C   UNL     1      -3.621   2.057   0.030  0.00  0.00    -0.023 A 
ATOM     10  C   UNL     1      -3.274   3.357   0.036  0.00  0.00    -0.004 A 
ATOM     11  S   UNL     1      -1.498   3.351   0.027  0.00  0.00    -0.077 S 
ATOM     12  C   UNL     1      -4.476   4.262   0.050  0.00  0.00    +0.043 C 
ATOM     13  C   UNL     1      -5.644   3.350   0.488  0.00  0.00    +0.010 C 
ATOM     14  C   UNL     1      -5.147   1.963   0.035  0.00  0.00    +0.037 C 
BRANCH   8  15
ATOM     15  C   UNL     1      -2.727  -0.332   0.001  0.00  0.00    +0.244 C 
ATOM     16  O   UNL     1      -2.819  -0.944   1.049  0.00  0.00    -0.270 OA
ATOM     17  N   UNL     1      -2.833  -0.987  -1.172  0.00  0.00    -0.325 N 
ATOM     18  H   UNL     1      -2.760  -0.500  -2.008  0.00  0.00    +0.145 HD
ATOM     19  H   UNL     1      -2.982  -1.946  -1.181  0.00  0.00    +0.145 HD
ENDBRANCH   8  15
ENDBRANCH   5   7
ENDBRANCH   2   3
BRANCH   2  20
ATOM     20  S   UNL     1       3.750   1.971   0.698  0.00  0.00    -0.073 S 
BRANCH  20  21
ATOM     21  C   UNL     1       5.103   0.842   0.695  0.00  0.00    +0.193 A 
ATOM     22  N   UNL     1       5.080  -0.400   0.268  0.00  0.00    -0.122 NA
ATOM     23  N   UNL     1       6.238  -0.939   0.410  0.00  0.00    -0.125 NA
ATOM     24  C   UNL     1       7.075  -0.071   0.936  0.00  0.00    +0.201 A 
ATOM     25  N   UNL     1       6.373   1.099   1.129  0.00  0.00    -0.297 N 
BRANCH  25  26
ATOM     26  C   UNL     1       6.882   2.354   1.688  0.00  0.00    +0.091 C 
ATOM     27  C   UNL     1       6.093   2.708   2.950  0.00  0.00    +0.025 C 
ATOM     28  C   UNL     1       6.624   4.019   3.533  0.00  0.00    +0.002 C 
ATOM     29  C   UNL     1       6.464   5.137   2.501  0.00  0.00    +0.000 C 
ATOM     30  C   UNL     1       7.254   4.783   1.239  0.00  0.00    +0.002 C 
ATOM     31  C   UNL     1       6.723   3.472   0.656  0.00  0.00    +0.025 C 
ENDBRANCH  25  26
BRANCH  24  32
ATOM     32  C   UNL     1       8.492  -0.305   1.254  0.00  0.00    +0.172 A 
ATOM     33  C   UNL     1       9.253  -1.342   0.804  0.00  0.00    +0.053 A 
ATOM     34  C   UNL     1      10.538  -1.169   1.352  0.00  0.00    +0.042 A 
ATOM     35  C   UNL     1      10.502  -0.049   2.100  0.00  0.00    +0.196 A 
ATOM     36  O   UNL     1       9.267   0.474   2.035  0.00  0.00    -0.460 OA
ENDBRANCH  24  32
ENDBRANCH  20  21
ENDBRANCH   2  20
TORSDOF 7
