REMARK  Name = ZINC39976470
REMARK  6 active torsions:
REMARK  status: ('A' for Active; 'I' for Inactive)
REMARK    1  A    between atoms: C_1  and  C_2
REMARK    2  A    between atoms: N_4  and  C_5
REMARK    3  A    between atoms: C_8  and  S_11
REMARK    4  A    between atoms: S_11  and  N_14
REMARK    5  A    between atoms: C_16  and  N_26
REMARK    6  A    between atoms: N_26  and  C_27
REMARK                            x       y       z     vdW  Elec       q    Type
REMARK                         _______ _______ _______ _____ _____    ______ ____
ROOT
ATOM      1  N   UNL     1      -0.946  -6.903   2.037  0.00  0.00    -0.110 NA
ATOM      2  C   UNL     1      -0.865  -8.165   2.337  0.00  0.00    +0.192 C 
ATOM      3  C   UNL     1      -0.868  -8.611   3.782  0.00  0.00    +0.237 C 
ATOM      4  N   UNL     1      -0.774 -10.054   4.056  0.00  0.00    -0.359 N 
ATOM      5  C   UNL     1      -0.693 -10.875   3.046  0.00  0.00    +0.063 A 
ATOM      6  C   UNL     1      -0.597 -12.325   3.266  0.00  0.00    +0.027 A 
ATOM      7  C   UNL     1      -0.514 -13.144   2.194  0.00  0.00    +0.002 A 
ATOM      8  C   UNL     1      -0.518 -12.645   0.881  0.00  0.00    +0.002 A 
ATOM      9  C   UNL     1      -0.603 -11.327   0.601  0.00  0.00    +0.030 A 
ATOM     10  C   UNL     1      -0.695 -10.376   1.649  0.00  0.00    +0.089 A 
ATOM     11  N   UNL     1      -0.782  -9.092   1.370  0.00  0.00    -0.226 NA
ATOM     12  H   UNL     1      -0.772 -10.387   4.967  0.00  0.00    +0.162 HD
ENDROOT
BRANCH   1  13
ATOM     13  S   UNL     1      -0.948  -6.428   0.450  0.00  0.00    +0.100 S 
ATOM     14  O   UNL     1      -2.151  -6.924  -0.120  0.00  0.00    -0.146 OA
ATOM     15  O   UNL     1       0.333  -6.752  -0.072  0.00  0.00    -0.146 OA
BRANCH  13  19
ATOM     16  C   UNL     1      -1.259  -1.910   0.405  0.00  0.00    +0.033 A 
ATOM     17  C   UNL     1      -0.013  -2.521   0.435  0.00  0.00    +0.025 A 
ATOM     18  C   UNL     1       0.079  -3.899   0.449  0.00  0.00    +0.031 A 
ATOM     19  C   UNL     1      -1.069  -4.670   0.432  0.00  0.00    +0.113 A 
ATOM     20  C   UNL     1      -2.312  -4.064   0.402  0.00  0.00    +0.031 A 
ATOM     21  C   UNL     1      -2.410  -2.687   0.394  0.00  0.00    +0.025 A 
BRANCH  16  25
ATOM     22  C   UNL     1      -2.407   1.603   1.118  0.00  0.00    +0.109 C 
ATOM     23  C   UNL     1      -2.362   0.099   1.044  0.00  0.00    +0.214 C 
ATOM     24  O   UNL     1      -3.233  -0.561   1.571  0.00  0.00    -0.276 OA
ATOM     25  N   UNL     1      -1.355  -0.514   0.391  0.00  0.00    -0.286 N 
ATOM     26  H   UNL     1      -0.697   0.013  -0.089  0.00  0.00    +0.155 HD
ENDBRANCH  16  25
ENDBRANCH  13  19
ENDBRANCH   1  13
BRANCH   3  27
ATOM     27  N   UNL     1       0.255  -7.955   4.455  0.00  0.00    -0.318 N 
ATOM     28  H   UNL     1       1.120  -7.906   4.019  0.00  0.00    +0.148 HD
BRANCH  27  29
ATOM     29  C   UNL     1       0.081  -7.400   5.725  0.00  0.00    +0.029 A 
ATOM     30  C   UNL     1      -1.190  -7.402   6.313  0.00  0.00    +0.023 A 
ATOM     31  C   UNL     1      -1.389  -6.868   7.547  0.00  0.00    +0.010 A 
ATOM     32  C   UNL     1      -0.309  -6.306   8.250  0.00  0.00    -0.018 A 
ATOM     33  C   UNL     1      -0.485  -5.748   9.528  0.00  0.00    +0.008 A 
ATOM     34  C   UNL     1       0.581  -5.212  10.182  0.00  0.00    +0.001 A 
ATOM     35  C   UNL     1       1.850  -5.207   9.604  0.00  0.00    +0.001 A 
ATOM     36  C   UNL     1       2.058  -5.737   8.369  0.00  0.00    +0.008 A 
ATOM     37  C   UNL     1       0.981  -6.301   7.662  0.00  0.00    -0.016 A 
ATOM     38  C   UNL     1       1.161  -6.862   6.388  0.00  0.00    +0.031 A 
ENDBRANCH  27  29
ENDBRANCH   3  27
TORSDOF 5
