REMARK  Name = ZINC67260702
REMARK  9 active torsions:
REMARK  status: ('A' for Active; 'I' for Inactive)
REMARK    1  A    between atoms: C_1  and  C_2
REMARK    2  A    between atoms: C_2  and  C_3
REMARK    3  A    between atoms: N_5  and  C_6
REMARK    4  A    between atoms: C_9  and  N_13
REMARK    5  A    between atoms: C_11  and  C_12
REMARK    6  A    between atoms: N_16  and  C_17
REMARK    7  A    between atoms: C_17  and  C_18
REMARK    8  A    between atoms: C_18  and  C_19
REMARK    9  A    between atoms: C_19  and  C_20
REMARK                            x       y       z     vdW  Elec       q    Type
REMARK                         _______ _______ _______ _____ _____    ______ ____
ROOT
ATOM      1  N   UNL     1       3.813  -3.593  -5.826  0.00  0.00    -0.269 N 
ATOM      2  C   UNL     1       4.478  -2.708  -6.596  0.00  0.00    +0.304 C 
ATOM      3  O   UNL     1       4.357  -1.516  -6.393  0.00  0.00    -0.253 OA
ATOM      4  N   UNL     1       5.276  -3.146  -7.590  0.00  0.00    -0.299 N 
ATOM      5  H   UNL     1       3.854  -4.540  -6.031  0.00  0.00    +0.156 HD
ATOM      6  H   UNL     1       5.372  -4.097  -7.752  0.00  0.00    +0.150 HD
ENDROOT
BRANCH   1  10
ATOM      7  C   UNL     1       1.582  -2.258  -2.566  0.00  0.00    +0.036 A 
ATOM      8  C   UNL     1       2.252  -3.473  -2.498  0.00  0.00    +0.025 A 
ATOM      9  C   UNL     1       2.991  -3.915  -3.577  0.00  0.00    +0.025 A 
ATOM     10  C   UNL     1       3.063  -3.145  -4.731  0.00  0.00    +0.035 A 
ATOM     11  C   UNL     1       2.393  -1.931  -4.798  0.00  0.00    +0.028 A 
ATOM     12  C   UNL     1       1.649  -1.492  -3.721  0.00  0.00    -0.027 A 
ATOM     13  C   UNL     1       0.916  -0.177  -3.798  0.00  0.00    +0.046 C 
BRANCH   7  16
ATOM     14  C   UNL     1       0.339  -2.696  -0.583  0.00  0.00    +0.217 C 
ATOM     15  O   UNL     1       0.458  -3.886  -0.785  0.00  0.00    -0.275 OA
ATOM     16  N   UNL     1       0.832  -1.810  -1.470  0.00  0.00    -0.285 N 
ATOM     17  H   UNL     1       0.668  -0.861  -1.351  0.00  0.00    +0.155 HD
BRANCH  14  19
ATOM     18  C   UNL     1      -0.818  -3.409   1.491  0.00  0.00    +0.013 C 
ATOM     19  C   UNL     1      -0.359  -2.209   0.661  0.00  0.00    +0.093 C 
ENDBRANCH  14  19
ENDBRANCH   7  16
ENDBRANCH   1  10
BRANCH   4  20
ATOM     20  C   UNL     1       5.998  -2.184  -8.426  0.00  0.00    +0.106 C 
BRANCH  20  21
ATOM     21  C   UNL     1       6.825  -2.936  -9.471  0.00  0.00    +0.026 C 
BRANCH  21  22
ATOM     22  C   UNL     1       7.579  -1.931 -10.344  0.00  0.00    +0.078 C 
BRANCH  22  23
ATOM     23  C   UNL     1       8.393  -2.672 -11.373  0.00  0.00    +0.134 A 
ATOM     24  N   UNL     1       9.624  -3.090 -11.235  0.00  0.00    -0.134 NA
ATOM     25  N   UNL     1      10.002  -3.691 -12.309  0.00  0.00    -0.134 NA
ATOM     26  C   UNL     1       9.030  -3.686 -13.176  0.00  0.00    +0.133 A 
ATOM     27  N   UNL     1       7.987  -3.035 -12.610  0.00  0.00    -0.315 N 
ATOM     28  C   UNL     1       6.688  -2.766 -13.228  0.00  0.00    +0.125 C 
ATOM     29  C   UNL     1       6.382  -3.855 -14.260  0.00  0.00    +0.022 C 
ATOM     30  C   UNL     1       6.943  -3.447 -15.622  0.00  0.00    +0.002 C 
ATOM     31  C   UNL     1       8.459  -3.289 -15.550  0.00  0.00    +0.008 C 
ATOM     32  C   UNL     1       9.035  -4.294 -14.554  0.00  0.00    +0.076 C 
ENDBRANCH  22  23
ENDBRANCH  21  22
ENDBRANCH  20  21
ENDBRANCH   4  20
TORSDOF 7
