REMARK  Name = ZINC02247484
REMARK  7 active torsions:
REMARK  status: ('A' for Active; 'I' for Inactive)
REMARK    1  A    between atoms: C_1  and  C_2
REMARK    2  A    between atoms: C_5  and  C_41
REMARK    3  A    between atoms: C_6  and  N_8
REMARK    4  A    between atoms: C_22  and  C_31
REMARK    5  A    between atoms: N_24  and  C_25
REMARK    6  A    between atoms: C_32  and  C_34
REMARK    7  A    between atoms: C_38  and  O_40
REMARK                            x       y       z     vdW  Elec       q    Type
REMARK                         _______ _______ _______ _____ _____    ______ ____
ROOT
ATOM      1  N   UNL     1      -1.121   7.277   0.049  0.00  0.00    -0.296 N 
ATOM      2  C   UNL     1      -1.158   5.895   0.046  0.00  0.00    +0.164 C 
ATOM      3  N   UNL     1      -0.042   5.211   0.018  0.00  0.00    -0.227 NA
ATOM      4  C   UNL     1      -0.037   3.854   0.015  0.00  0.00    +0.087 A 
ATOM      5  C   UNL     1       1.177   3.157  -0.015  0.00  0.00    +0.030 A 
ATOM      6  C   UNL     1       1.180   1.781  -0.019  0.00  0.00    +0.002 A 
ATOM      7  C   UNL     1      -0.014   1.075   0.007  0.00  0.00    +0.002 A 
ATOM      8  C   UNL     1      -1.220   1.745   0.032  0.00  0.00    +0.025 A 
ATOM      9  C   UNL     1      -1.245   3.134   0.041  0.00  0.00    +0.062 A 
ATOM     10  N   UNL     1      -2.447   3.815   0.071  0.00  0.00    -0.269 N 
ATOM     11  C   UNL     1      -2.455   5.192   0.075  0.00  0.00    +0.169 C 
ATOM     12  N   UNL     1      -3.570   5.879   0.103  0.00  0.00    -0.209 NA
ATOM     13  C   UNL     1      -4.805   5.333   0.131  0.00  0.00    +0.164 A 
ATOM     14  C   UNL     1      -4.972   3.958   0.131  0.00  0.00    +0.044 A 
ATOM     15  C   UNL     1      -6.331   3.686   0.163  0.00  0.00    +0.068 A 
ATOM     16  N   UNL     1      -6.984   4.824   0.182  0.00  0.00    -0.169 NA
ATOM     17  N   UNL     1      -6.061   5.877   0.162  0.00  0.00    -0.214 N 
ATOM     18  C   UNL     1      -6.954   2.314   0.173  0.00  0.00    +0.068 C 
ATOM     19  C   UNL     1      -3.729   3.096   0.099  0.00  0.00    +0.146 C 
ATOM     20  H   UNL     1      -1.946   7.785  -0.016  0.00  0.00    +0.154 HD
ENDROOT
BRANCH   1  26
ATOM     21  C   UNL     1       3.585   7.293   1.465  0.00  0.00    +0.044 C 
ATOM     22  C   UNL     1       2.402   7.975   0.828  0.00  0.00    -0.049 A 
ATOM     23  C   UNL     1       2.528   9.263   0.339  0.00  0.00    +0.004 A 
ATOM     24  C   UNL     1       1.444   9.892  -0.247  0.00  0.00    +0.005 A 
ATOM     25  C   UNL     1       0.233   9.236  -0.345  0.00  0.00    -0.029 A 
ATOM     26  C   UNL     1       0.103   7.943   0.146  0.00  0.00    +0.036 A 
ATOM     27  C   UNL     1       1.192   7.316   0.738  0.00  0.00    +0.027 A 
ATOM     28  C   UNL     1      -0.947   9.923  -0.984  0.00  0.00    +0.045 C 
ENDBRANCH   1  26
BRANCH  17  29
ATOM     29  C   UNL     1      -6.368   7.243   0.174  0.00  0.00    +0.068 A 
ATOM     30  C   UNL     1      -5.547   8.135   0.851  0.00  0.00    +0.028 A 
ATOM     31  C   UNL     1      -5.849   9.483   0.856  0.00  0.00    +0.002 A 
ATOM     32  C   UNL     1      -6.975   9.943   0.197  0.00  0.00    +0.000 A 
ATOM     33  C   UNL     1      -7.797   9.056  -0.474  0.00  0.00    +0.002 A 
ATOM     34  C   UNL     1      -7.497   7.708  -0.487  0.00  0.00    +0.028 A 
ENDBRANCH  17  29
BRANCH  19  35
ATOM     35  C   UNL     1      -3.803   2.217  -1.123  0.00  0.00    -0.019 A 
ATOM     36  C   UNL     1      -3.345   2.687  -2.340  0.00  0.00    +0.006 A 
ATOM     37  C   UNL     1      -3.406   1.881  -3.462  0.00  0.00    +0.004 A 
ATOM     38  C   UNL     1      -3.935   0.609  -3.372  0.00  0.00    +0.045 A 
ATOM     39  C   UNL     1      -4.401   0.137  -2.153  0.00  0.00    +0.117 A 
ATOM     40  C   UNL     1      -4.333   0.945  -1.027  0.00  0.00    +0.051 A 
BRANCH  39  41
ATOM     41  O   UNL     1      -4.921  -1.115  -2.061  0.00  0.00    -0.507 OA
ATOM     42  H   UNL     1      -5.875  -1.157  -2.217  0.00  0.00    +0.292 HD
ENDBRANCH  39  41
ENDBRANCH  19  35
TORSDOF 4
