REMARK  Name = ZINC05492718
REMARK  10 active torsions:
REMARK  status: ('A' for Active; 'I' for Inactive)
REMARK    1  A    between atoms: C_1  and  C_2
REMARK    2  A    between atoms: C_4  and  O_40
REMARK    3  A    between atoms: C_6  and  N_65
REMARK    4  A    between atoms: C_9  and  O_12
REMARK    5  A    between atoms: O_12  and  C_13
REMARK    6  A    between atoms: C_16  and  C_36
REMARK    7  A    between atoms: C_16  and  C_37
REMARK    8  A    between atoms: C_20  and  O_35
REMARK    9  A    between atoms: C_23  and  O_24
REMARK   10  A    between atoms: C_37  and  C_39
REMARK                            x       y       z     vdW  Elec       q    Type
REMARK                         _______ _______ _______ _____ _____    ______ ____
ROOT
ATOM      1  C   UNL     1       3.930   2.613  -3.047  0.00  0.00    +0.156 C 
ATOM      2  C   UNL     1       2.833   2.597  -4.109  0.00  0.00    +0.051 C 
ATOM      3  C   UNL     1       1.959   1.359  -3.880  0.00  0.00    +0.033 C 
ATOM      4  C   UNL     1       1.162   1.565  -2.594  0.00  0.00    +0.053 C 
ATOM      5  C   UNL     1       2.074   1.965  -1.462  0.00  0.00    +0.005 A 
ATOM      6  C   UNL     1       3.339   2.451  -1.670  0.00  0.00    +0.030 A 
ATOM      7  C   UNL     1       4.139   2.817  -0.579  0.00  0.00    +0.134 A 
ATOM      8  C   UNL     1       3.663   2.688   0.724  0.00  0.00    +0.078 A 
ATOM      9  C   UNL     1       2.361   2.191   0.938  0.00  0.00    +0.078 A 
ATOM     10  C   UNL     1       1.579   1.829  -0.157  0.00  0.00    +0.132 A 
ATOM     11  C   UNL     1       1.844   2.043   2.309  0.00  0.00    +0.198 C 
ATOM     12  O   UNL     1       0.724   1.608   2.494  0.00  0.00    -0.286 OA
ATOM     13  C   UNL     1       2.688   2.427   3.460  0.00  0.00    +0.033 A 
ATOM     14  C   UNL     1       2.206   2.296   4.760  0.00  0.00    +0.012 A 
ATOM     15  C   UNL     1       3.003   2.658   5.831  0.00  0.00    +0.001 A 
ATOM     16  C   UNL     1       4.279   3.151   5.620  0.00  0.00    +0.001 A 
ATOM     17  C   UNL     1       4.773   3.288   4.335  0.00  0.00    +0.012 A 
ATOM     18  C   UNL     1       3.984   2.929   3.246  0.00  0.00    +0.033 A 
ATOM     19  C   UNL     1       4.504   3.072   1.870  0.00  0.00    +0.198 C 
ATOM     20  O   UNL     1       5.625   3.506   1.685  0.00  0.00    -0.286 OA
ATOM     21  C   UNL     1       0.999   1.180  -5.058  0.00  0.00    +0.019 C 
ENDROOT
BRANCH   3  22
ATOM     22  C   UNL     1       2.832   0.137  -3.747  0.00  0.00    +0.137 C 
ATOM     23  O   UNL     1       2.759  -0.551  -2.757  0.00  0.00    -0.297 OA
ATOM     24  C   UNL     1       3.795  -0.225  -4.848  0.00  0.00    +0.086 C 
ENDBRANCH   3  22
BRANCH  10  25
ATOM     25  O   UNL     1       0.328   1.346   0.040  0.00  0.00    -0.506 OA
ATOM     26  H   UNL     1       0.287   0.384   0.134  0.00  0.00    +0.292 HD
ENDBRANCH  10  25
BRANCH   7  27
ATOM     27  O   UNL     1       5.388   3.301  -0.793  0.00  0.00    -0.506 OA
ATOM     28  H   UNL     1       5.438   4.266  -0.814  0.00  0.00    +0.292 HD
ENDBRANCH   7  27
BRANCH   1  29
ATOM     29  O   UNL     1       4.633   3.855  -3.114  0.00  0.00    -0.343 OA
BRANCH  29  35
ATOM     30  C   UNL     1       7.405   2.421  -5.851  0.00  0.00    +0.040 C 
ATOM     31  C   UNL     1       7.876   2.970  -4.503  0.00  0.00    +0.145 C 
ATOM     32  C   UNL     1       8.467   4.369  -4.700  0.00  0.00    +0.129 C 
ATOM     33  C   UNL     1       7.377   5.306  -5.229  0.00  0.00    -0.039 C 
ATOM     34  C   UNL     1       6.200   5.305  -4.249  0.00  0.00    +0.048 C 
ATOM     35  C   UNL     1       5.696   3.871  -4.070  0.00  0.00    +0.250 C 
ATOM     36  O   UNL     1       6.766   3.046  -3.605  0.00  0.00    -0.346 OA
BRANCH  33  39
ATOM     37  H   UNL     1       7.213   7.305  -5.690  0.00  0.00    -0.090 HD
ATOM     38  H   UNL     1       8.297   6.984  -4.471  0.00  0.00    -0.090 HD
ATOM     39  N   UNL     1       7.934   6.663  -5.367  0.00  0.00    +0.382 N 
ATOM     40  H   UNL     1       8.699   6.646  -6.051  0.00  0.00    -0.090 HD
ENDBRANCH  33  39
BRANCH  32  41
ATOM     41  O   UNL     1       9.541   4.306  -5.640  0.00  0.00    -0.391 OA
ATOM     42  H   UNL     1      10.268   3.729  -5.369  0.00  0.00    +0.210 HD
ENDBRANCH  32  41
ENDBRANCH  29  35
ENDBRANCH   1  29
TORSDOF 7
