REMARK  Name = ZINC39598946
REMARK  10 active torsions:
REMARK  status: ('A' for Active; 'I' for Inactive)
REMARK    1  A    between atoms: C_1  and  C_2
REMARK    2  A    between atoms: C_2  and  C_3
REMARK    3  A    between atoms: C_3  and  C_4
REMARK    4  A    between atoms: C_4  and  C_5
REMARK    5  A    between atoms: C_9  and  C_18
REMARK    6  A    between atoms: N_20  and  C_21
REMARK    7  A    between atoms: C_21  and  C_22
REMARK    8  A    between atoms: C_22  and  C_23
REMARK    9  A    between atoms: C_26  and  O_32
REMARK   10  A    between atoms: O_32  and  C_33
REMARK                            x       y       z     vdW  Elec       q    Type
REMARK                         _______ _______ _______ _____ _____    ______ ____
ROOT
ATOM      1  C   UNL     1      -2.987  -2.606  -0.018  0.00  0.00    +0.216 C 
ATOM      2  O   UNL     1      -3.937  -1.856   0.050  0.00  0.00    -0.276 OA
ATOM      3  N   UNL     1      -3.178  -3.940   0.011  0.00  0.00    -0.300 N 
ATOM      4  C   UNL     1      -2.152  -5.007  -0.052  0.00  0.00    +0.121 C 
ATOM      5  C   UNL     1      -2.641  -6.080   0.946  0.00  0.00    +0.100 C 
ATOM      6  C   UNL     1      -4.159  -5.856   1.051  0.00  0.00    -0.004 C 
ATOM      7  C   UNL     1      -4.463  -4.671   0.122  0.00  0.00    +0.115 C 
ATOM      8  C   UNL     1      -4.543  -5.506   2.485  0.00  0.00    -0.010 C 
ATOM      9  C   UNL     1      -6.064  -5.344   2.575  0.00  0.00    -0.082 C 
ATOM     10  N   UNL     1      -6.716  -6.592   2.163  0.00  0.00    +0.379 N 
ATOM     11  C   UNL     1      -6.415  -6.873   0.754  0.00  0.00    -0.082 C 
ATOM     12  C   UNL     1      -4.910  -7.099   0.586  0.00  0.00    -0.010 C 
ATOM     13  H   UNL     1      -6.378  -7.352   2.735  0.00  0.00    -0.086 HD
ATOM     14  H   UNL     1      -7.714  -6.504   2.281  0.00  0.00    -0.086 HD
ENDROOT
BRANCH   5  15
ATOM     15  C   UNL     1      -2.347  -7.460   0.418  0.00  0.00    +0.218 C 
ATOM     16  O   UNL     1      -2.335  -7.663  -0.777  0.00  0.00    -0.275 OA
ATOM     17  N   UNL     1      -2.098  -8.471   1.275  0.00  0.00    -0.315 N 
ATOM     18  H   UNL     1      -2.108  -8.309   2.232  0.00  0.00    +0.149 HD
BRANCH  17  19
ATOM     19  C   UNL     1      -1.813  -9.813   0.762  0.00  0.00    +0.109 C 
BRANCH  19  20
ATOM     20  C   UNL     1      -1.568 -10.765   1.934  0.00  0.00    +0.056 C 
BRANCH  20  21
ATOM     21  C   UNL     1      -1.274 -12.146   1.407  0.00  0.00    -0.021 A 
ATOM     22  C   UNL     1       0.030 -12.654   0.974  0.00  0.00    +0.006 A 
ATOM     23  C   UNL     1       1.311 -12.103   0.907  0.00  0.00    +0.056 A 
ATOM     24  C   UNL     1       2.360 -12.869   0.438  0.00  0.00    +0.121 A 
ATOM     25  C   UNL     1       2.143 -14.184   0.035  0.00  0.00    +0.047 A 
ATOM     26  C   UNL     1       0.883 -14.738   0.096  0.00  0.00    +0.030 A 
ATOM     27  C   UNL     1      -0.186 -13.983   0.566  0.00  0.00    +0.047 A 
ATOM     28  N   UNL     1      -1.528 -14.249   0.743  0.00  0.00    -0.360 N 
ATOM     29  C   UNL     1      -2.157 -13.145   1.249  0.00  0.00    +0.087 A 
ATOM     30  H   UNL     1      -1.960 -15.094   0.541  0.00  0.00    +0.165 HD
BRANCH  24  31
ATOM     31  O   UNL     1       3.609 -12.337   0.370  0.00  0.00    -0.495 OA
ATOM     32  C   UNL     1       4.649 -13.184  -0.124  0.00  0.00    +0.277 C 
ENDBRANCH  24  31
ENDBRANCH  20  21
ENDBRANCH  19  20
ENDBRANCH  17  19
ENDBRANCH   5  15
BRANCH   1  33
ATOM     33  C   UNL     1      -1.592  -2.048  -0.136  0.00  0.00    +0.096 C 
BRANCH  33  34
ATOM     34  C   UNL     1      -1.654  -0.519  -0.147  0.00  0.00    +0.009 C 
BRANCH  34  36
ATOM     35  C   UNL     1      -0.300   1.576  -0.278  0.00  0.00    +0.004 C 
ATOM     36  C   UNL     1      -0.238   0.048  -0.267  0.00  0.00    -0.003 C 
ENDBRANCH  34  36
ENDBRANCH  33  34
ENDBRANCH   1  33
TORSDOF 8
