REMARK  Name = ZINC36308407
REMARK  19 active torsions:
REMARK  status: ('A' for Active; 'I' for Inactive)
REMARK    1  A    between atoms: C_1  and  C_2
REMARK    2  A    between atoms: C_2  and  C_3
REMARK    3  A    between atoms: C_3  and  C_5
REMARK    4  A    between atoms: C_3  and  N_6
REMARK    5  A    between atoms: N_6  and  C_7
REMARK    6  A    between atoms: N_6  and  C_27
REMARK    7  A    between atoms: C_7  and  C_8
REMARK    8  A    between atoms: C_9  and  C_26
REMARK    9  A    between atoms: N_11  and  C_20
REMARK   10  A    between atoms: C_12  and  O_13
REMARK   11  A    between atoms: O_13  and  C_14
REMARK   12  A    between atoms: C_27  and  C_28
REMARK   13  A    between atoms: C_28  and  C_30
REMARK   14  A    between atoms: C_28  and  O_36
REMARK   15  A    between atoms: C_30  and  O_31
REMARK   16  A    between atoms: O_31  and  C_32
REMARK   17  A    between atoms: C_32  and  C_33
REMARK   18  A    between atoms: C_32  and  C_34
REMARK   19  A    between atoms: C_32  and  C_35
REMARK                            x       y       z     vdW  Elec       q    Type
REMARK                         _______ _______ _______ _____ _____    ______ ____
ROOT
ATOM      1  C   UNL     1      -3.402  -1.990  -2.026  0.00  0.00    +0.021 A 
ATOM      2  C   UNL     1      -3.101  -2.468  -3.305  0.00  0.00    +0.065 A 
ATOM      3  N   UNL     1      -2.859  -3.751  -3.222  0.00  0.00    -0.168 NA
ATOM      4  N   UNL     1      -2.998  -4.141  -1.883  0.00  0.00    -0.200 N 
ATOM      5  C   UNL     1      -3.329  -3.037  -1.161  0.00  0.00    +0.225 A 
ATOM      6  C   UNL     1      -3.061  -1.644  -4.566  0.00  0.00    +0.068 C 
ENDROOT
BRANCH   4   7
ATOM      7  C   UNL     1      -2.822  -5.437  -1.378  0.00  0.00    +0.069 A 
ATOM      8  C   UNL     1      -2.138  -5.631  -0.185  0.00  0.00    +0.028 A 
ATOM      9  C   UNL     1      -1.966  -6.909   0.310  0.00  0.00    +0.002 A 
ATOM     10  C   UNL     1      -2.474  -7.994  -0.381  0.00  0.00    +0.000 A 
ATOM     11  C   UNL     1      -3.155  -7.803  -1.569  0.00  0.00    +0.002 A 
ATOM     12  C   UNL     1      -3.335  -6.527  -2.066  0.00  0.00    +0.028 A 
ENDBRANCH   4   7
BRANCH   1  13
ATOM     13  C   UNL     1      -3.742  -0.567  -1.668  0.00  0.00    -0.035 C 
BRANCH  13  14
ATOM     14  N   UNL     1      -2.583   0.295  -1.933  0.00  0.00    +0.386 N 
ATOM     15  H   UNL     1      -2.210   0.086  -2.847  0.00  0.00    -0.081 HD
BRANCH  14  16
ATOM     16  C   UNL     1      -1.550   0.054  -0.917  0.00  0.00    -0.071 C 
ATOM     17  C   UNL     1      -2.204  -0.028   0.464  0.00  0.00    -0.013 C 
BRANCH  16  19
ATOM     18  C   UNL     1      -0.134  -1.161  -2.578  0.00  0.00    +0.002 C 
ATOM     19  C   UNL     1      -0.833  -1.263  -1.220  0.00  0.00    -0.019 C 
ENDBRANCH  16  19
ENDBRANCH  14  16
BRANCH  14  20
ATOM     20  C   UNL     1      -2.998   1.704  -1.885  0.00  0.00    -0.044 C 
BRANCH  20  21
ATOM     21  C   UNL     1      -1.877   2.586  -2.438  0.00  0.00    +0.124 C 
BRANCH  21  22
ATOM     22  O   UNL     1      -0.761   2.553  -1.546  0.00  0.00    -0.391 OA
ATOM     23  H   UNL     1      -0.936   2.953  -0.683  0.00  0.00    +0.210 HD
ENDBRANCH  21  22
BRANCH  21  24
ATOM     24  C   UNL     1      -2.380   4.024  -2.574  0.00  0.00    +0.189 C 
BRANCH  24  25
ATOM     25  O   UNL     1      -1.373   4.823  -3.199  0.00  0.00    -0.372 OA
BRANCH  25  26
ATOM     26  C   UNL     1      -1.744   6.192  -3.374  0.00  0.00    +0.061 C 
ATOM     27  C   UNL     1      -2.037   6.820  -2.010  0.00  0.00    +0.041 C 
ATOM     28  C   UNL     1      -0.597   6.949  -4.048  0.00  0.00    +0.041 C 
ATOM     29  C   UNL     1      -2.994   6.274  -4.252  0.00  0.00    +0.041 C 
ENDBRANCH  25  26
ENDBRANCH  24  25
ENDBRANCH  21  24
ENDBRANCH  20  21
ENDBRANCH  14  20
ENDBRANCH  13  14
ENDBRANCH   1  13
BRANCH   5  30
ATOM     30  O   UNL     1      -3.548  -2.990   0.178  0.00  0.00    -0.438 OA
BRANCH  30  31
ATOM     31  C   UNL     1      -4.800  -3.263   0.629  0.00  0.00    +0.130 A 
ATOM     32  C   UNL     1      -5.781  -3.687  -0.257  0.00  0.00    +0.046 A 
ATOM     33  C   UNL     1      -7.053  -3.963   0.205  0.00  0.00    +0.004 A 
ATOM     34  C   UNL     1      -7.350  -3.818   1.547  0.00  0.00    +0.000 A 
ATOM     35  C   UNL     1      -6.375  -3.395   2.432  0.00  0.00    +0.004 A 
ATOM     36  C   UNL     1      -5.099  -3.123   1.977  0.00  0.00    +0.046 A 
ENDBRANCH  30  31
ENDBRANCH   5  30
TORSDOF 13
