REMARK  Name = ZINC09636267
REMARK  6 active torsions:
REMARK  status: ('A' for Active; 'I' for Inactive)
REMARK    1  A    between atoms: C_6  and  C_12
REMARK    2  A    between atoms: C_7  and  O_11
REMARK    3  A    between atoms: C_12  and  C_14
REMARK    4  A    between atoms: C_12  and  N_21
REMARK    5  A    between atoms: N_21  and  C_22
REMARK    6  A    between atoms: C_23  and  O_27
REMARK                            x       y       z     vdW  Elec       q    Type
REMARK                         _______ _______ _______ _____ _____    ______ ____
ROOT
ATOM      1  C   UNL     1      -1.529   5.845   0.049  0.00  0.00    +0.136 C 
ENDROOT
BRANCH   1   7
ATOM      2  C   UNL     1      -2.180  11.298   3.404  0.00  0.00    +0.020 A 
ATOM      3  C   UNL     1      -1.078  10.835   2.742  0.00  0.00    +0.011 A 
ATOM      4  C   UNL     1      -1.176   9.602   2.071  0.00  0.00    +0.004 A 
ATOM      5  C   UNL     1      -0.085   9.063   1.369  0.00  0.00    +0.010 A 
ATOM      6  C   UNL     1      -0.217   7.867   0.732  0.00  0.00    +0.010 A 
ATOM      7  C   UNL     1      -1.419   7.166   0.766  0.00  0.00    +0.021 A 
ATOM      8  C   UNL     1      -2.503   7.660   1.434  0.00  0.00    +0.148 A 
ATOM      9  C   UNL     1      -2.402   8.894   2.110  0.00  0.00    +0.113 A 
ATOM     10  N   UNL     1      -3.442   9.402   2.777  0.00  0.00    -0.251 NA
ATOM     11  C   UNL     1      -3.356  10.551   3.403  0.00  0.00    +0.111 A 
BRANCH   8  12
ATOM     12  O   UNL     1      -3.670   6.965   1.452  0.00  0.00    -0.504 OA
ATOM     13  H   UNL     1      -3.747   6.344   2.189  0.00  0.00    +0.292 HD
ENDBRANCH   8  12
ENDBRANCH   1   7
BRANCH   1  14
ATOM     14  C   UNL     1      -2.053   6.072  -1.346  0.00  0.00    -0.023 A 
ATOM     15  C   UNL     1      -1.200   6.509  -2.342  0.00  0.00    +0.007 A 
ATOM     16  C   UNL     1      -1.679   6.713  -3.622  0.00  0.00    +0.015 A 
ATOM     17  C   UNL     1      -3.015   6.490  -3.904  0.00  0.00    +0.018 A 
ATOM     18  C   UNL     1      -3.869   6.058  -2.906  0.00  0.00    +0.015 A 
ATOM     19  C   UNL     1      -3.388   5.849  -1.627  0.00  0.00    +0.007 A 
ATOM     20 BR   UNL     1      -3.673   6.775  -5.654  0.00  0.00    -0.050 Br
ENDBRANCH   1  14
BRANCH   1  21
ATOM     21  N   UNL     1      -0.207   5.217  -0.023  0.00  0.00    -0.317 N 
ATOM     22  H   UNL     1       0.592   5.767  -0.015  0.00  0.00    +0.148 HD
BRANCH  21  23
ATOM     23  C   UNL     1      -0.098   3.831  -0.102  0.00  0.00    +0.139 A 
ATOM     24  C   UNL     1       1.165   3.239  -0.170  0.00  0.00    +0.155 A 
ATOM     25  C   UNL     1       1.256   1.858  -0.247  0.00  0.00    +0.050 A 
ATOM     26  C   UNL     1       0.081   1.116  -0.254  0.00  0.00    +0.021 A 
ATOM     27  C   UNL     1      -1.132   1.770  -0.190  0.00  0.00    +0.084 A 
ATOM     28  N   UNL     1      -1.262   3.122  -0.107  0.00  0.00    -0.347 N 
ATOM     29  H   UNL     1      -2.179   3.579  -0.051  0.00  0.00    +0.167 HD
BRANCH  24  30
ATOM     30  O   UNL     1       2.288   4.006  -0.159  0.00  0.00    -0.503 OA
ATOM     31  H   UNL     1       2.588   4.275  -1.038  0.00  0.00    +0.292 HD
ENDBRANCH  24  30
ENDBRANCH  21  23
ENDBRANCH   1  21
TORSDOF 6
