REMARK  Name = ZINC36000163
REMARK  10 active torsions:
REMARK  status: ('A' for Active; 'I' for Inactive)
REMARK    1  A    between atoms: C_1  and  C_2
REMARK    2  A    between atoms: C_2  and  N_3
REMARK    3  A    between atoms: N_10  and  C_13
REMARK    4  A    between atoms: C_13  and  C_14
REMARK    5  A    between atoms: C_15  and  C_30
REMARK    6  A    between atoms: C_16  and  C_23
REMARK    7  A    between atoms: N_21  and  C_22
REMARK    8  A    between atoms: C_30  and  O_32
REMARK    9  A    between atoms: O_32  and  C_33
REMARK   10  A    between atoms: C_33  and  C_34
REMARK                            x       y       z     vdW  Elec       q    Type
REMARK                         _______ _______ _______ _____ _____    ______ ____
ROOT
ATOM      1  C   UNL     1      -4.212  -5.961  -3.113  0.00  0.00    +0.010 C 
ATOM      2  C   UNL     1      -5.427  -6.425  -3.474  0.00  0.00    +0.076 C 
ATOM      3  C   UNL     1      -5.605  -7.926  -3.584  0.00  0.00    +0.143 C 
ATOM      4  N   UNL     1      -4.429  -8.761  -3.285  0.00  0.00    -0.288 N 
ATOM      5  C   UNL     1      -3.280  -8.149  -2.936  0.00  0.00    +0.307 C 
ATOM      6  O   UNL     1      -2.304  -8.829  -2.687  0.00  0.00    -0.252 OA
ATOM      7  N   UNL     1      -3.177  -6.816  -2.860  0.00  0.00    -0.264 N 
ATOM      8  C   UNL     1      -1.884  -6.244  -2.478  0.00  0.00    +0.139 C 
ATOM      9  H   UNL     1      -4.481  -9.728  -3.337  0.00  0.00    +0.151 HD
ENDROOT
BRANCH   3  10
ATOM     10  C   UNL     1      -6.051  -8.240  -4.989  0.00  0.00    -0.022 A 
ATOM     11  C   UNL     1      -5.124  -8.296  -6.012  0.00  0.00    +0.007 A 
ATOM     12  C   UNL     1      -5.532  -8.583  -7.301  0.00  0.00    +0.020 A 
ATOM     13  C   UNL     1      -6.870  -8.815  -7.567  0.00  0.00    +0.041 A 
ATOM     14  C   UNL     1      -7.798  -8.759  -6.542  0.00  0.00    +0.020 A 
ATOM     15  C   UNL     1      -7.387  -8.477  -5.253  0.00  0.00    +0.007 A 
ATOM     16 CL   UNL     1      -7.384  -9.176  -9.185  0.00  0.00    -0.084 Cl
ENDBRANCH   3  10
BRANCH   2  17
ATOM     17  C   UNL     1      -6.498  -5.540  -3.742  0.00  0.00    +0.339 C 
ATOM     18  O   UNL     1      -6.320  -4.338  -3.694  0.00  0.00    -0.245 OA
BRANCH  17  19
ATOM     19  O   UNL     1      -7.717  -6.030  -4.049  0.00  0.00    -0.462 OA
BRANCH  19  20
ATOM     20  C   UNL     1      -8.752  -5.079  -4.307  0.00  0.00    +0.229 C 
ATOM     21  C   UNL     1     -10.052  -5.816  -4.635  0.00  0.00    +0.048 C 
ENDBRANCH  19  20
ENDBRANCH  17  19
ENDBRANCH   2  17
BRANCH   1  22
ATOM     22  C   UNL     1      -3.991  -4.475  -2.992  0.00  0.00    -0.026 C 
BRANCH  22  30
ATOM     23  N   UNL     1      -2.120  -3.657   2.006  0.00  0.00    -0.300 N 
ATOM     24  C   UNL     1      -2.984  -2.664   1.717  0.00  0.00    +0.302 C 
ATOM     25  O   UNL     1      -2.744  -1.526   2.073  0.00  0.00    -0.253 OA
ATOM     26  N   UNL     1      -4.114  -2.932   1.032  0.00  0.00    -0.287 N 
ATOM     27  C   UNL     1      -4.992  -1.810   0.641  0.00  0.00    +0.107 C 
ATOM     28  C   UNL     1      -5.523  -1.997  -0.792  0.00  0.00    +0.000 C 
ATOM     29  C   UNL     1      -4.421  -2.548  -1.669  0.00  0.00    -0.077 C 
ATOM     30  N   UNL     1      -4.514  -4.006  -1.702  0.00  0.00    +0.384 N 
ATOM     31  C   UNL     1      -3.816  -4.671  -0.669  0.00  0.00    -0.059 C 
ATOM     32  C   UNL     1      -4.420  -4.308   0.702  0.00  0.00    +0.091 C 
ATOM     33  H   UNL     1      -2.345  -4.575   1.788  0.00  0.00    +0.150 HD
ATOM     34  H   UNL     1      -5.488  -4.264  -1.645  0.00  0.00    -0.081 HD
BRANCH  23  36
ATOM     35  C   UNL     1      -0.056  -4.646   2.868  0.00  0.00    +0.024 C 
ATOM     36  C   UNL     1      -0.841  -3.351   2.652  0.00  0.00    +0.102 C 
ENDBRANCH  23  36
ENDBRANCH  22  30
ENDBRANCH   1  22
TORSDOF 7
