REMARK  Name = ZINC15079628
REMARK  5 active torsions:
REMARK  status: ('A' for Active; 'I' for Inactive)
REMARK    1  A    between atoms: C_6  and  C_11
REMARK    2  A    between atoms: C_11  and  N_60
REMARK    3  A    between atoms: C_17  and  C_19
REMARK    4  A    between atoms: C_19  and  C_20
REMARK    5  A    between atoms: N_22  and  C_23
REMARK                            x       y       z     vdW  Elec       q    Type
REMARK                         _______ _______ _______ _____ _____    ______ ____
ROOT
ATOM      1  C   UNL     1      -0.104   6.295   5.816  0.00  0.00    -0.058 C 
ATOM      2  C   UNL     1       1.194   6.611   6.561  0.00  0.00    +0.085 C 
ATOM      3  N   UNL     1       1.849   5.372   6.971  0.00  0.00    -0.318 N 
ATOM      4  C   UNL     1       1.562   4.184   6.429  0.00  0.00    +0.200 C 
ATOM      5  O   UNL     1       2.176   3.209   6.807  0.00  0.00    -0.278 OA
ATOM      6  C   UNL     1       0.510   4.006   5.371  0.00  0.00    +0.028 C 
ATOM      7  H   UNL     1       2.522   5.412   7.669  0.00  0.00    +0.149 HD
ATOM      8  N   UNL     1       0.204   5.312   4.758  0.00  0.00    +0.391 N 
ATOM      9  H   UNL     1       1.022   5.634   4.228  0.00  0.00    -0.080 HD
ENDROOT
BRANCH   8  10
ATOM     10  C   UNL     1      -0.947   5.181   3.835  0.00  0.00    -0.042 C 
BRANCH  10  16
ATOM     11  C   UNL     1      -1.775  10.794   0.750  0.00  0.00    +0.001 A 
ATOM     12  C   UNL     1      -0.832  10.028   0.068  0.00  0.00    +0.001 A 
ATOM     13  C   UNL     1      -0.475   8.793   0.516  0.00  0.00    +0.008 A 
ATOM     14  C   UNL     1      -1.065   8.280   1.683  0.00  0.00    -0.018 A 
ATOM     15  C   UNL     1      -0.724   7.009   2.176  0.00  0.00    +0.010 A 
ATOM     16  C   UNL     1      -1.316   6.545   3.310  0.00  0.00    -0.063 A 
ATOM     17  C   UNL     1      -2.263   7.309   3.989  0.00  0.00    +0.002 A 
ATOM     18  C   UNL     1      -2.615   8.546   3.545  0.00  0.00    +0.009 A 
ATOM     19  C   UNL     1      -2.025   9.059   2.377  0.00  0.00    -0.018 A 
ATOM     20  C   UNL     1      -2.367  10.330   1.884  0.00  0.00    +0.008 A 
ENDBRANCH  10  16
ENDBRANCH   8  10
BRANCH   6  21
ATOM     21  C   UNL     1       1.033   3.059   4.289  0.00  0.00    +0.089 C 
BRANCH  21  22
ATOM     22  C   UNL     1       2.249   3.665   3.636  0.00  0.00    +0.212 C 
ATOM     23  O   UNL     1       2.596   4.790   3.927  0.00  0.00    -0.276 OA
ATOM     24  N   UNL     1       2.950   2.957   2.728  0.00  0.00    -0.312 N 
ATOM     25  H   UNL     1       2.672   2.057   2.495  0.00  0.00    +0.149 HD
BRANCH  24  26
ATOM     26  C   UNL     1       4.131   3.546   2.094  0.00  0.00    +0.073 C 
ATOM     27  C   UNL     1       5.045   2.438   1.642  0.00  0.00    +0.022 C 
ATOM     28  C   UNL     1       6.506   2.903   1.811  0.00  0.00    +0.002 C 
ATOM     29  C   UNL     1       6.943   3.764   0.723  0.00  0.00    +0.000 C 
ATOM     30  C   UNL     1       6.122   5.066   0.637  0.00  0.00    +0.000 C 
ATOM     31  C   UNL     1       4.822   4.766  -0.060  0.00  0.00    +0.002 C 
ATOM     32  C   UNL     1       3.683   4.450   0.927  0.00  0.00    +0.022 C 
ENDBRANCH  24  26
ENDBRANCH  21  22
ENDBRANCH   6  21
TORSDOF 5
