REMARK  Name = ZINC22319397
REMARK  15 active torsions:
REMARK  status: ('A' for Active; 'I' for Inactive)
REMARK    1  A    between atoms: C_1  and  C_2
REMARK    2  A    between atoms: C_2  and  C_3
REMARK    3  A    between atoms: N_9  and  C_10
REMARK    4  A    between atoms: C_10  and  C_11
REMARK    5  A    between atoms: C_11  and  C_12
REMARK    6  A    between atoms: C_12  and  N_13
REMARK    7  A    between atoms: C_14  and  C_16
REMARK    8  A    between atoms: C_16  and  N_17
REMARK    9  A    between atoms: N_17  and  C_18
REMARK   10  A    between atoms: N_17  and  S_27
REMARK   11  A    between atoms: C_21  and  C_24
REMARK   12  A    between atoms: C_24  and  C_25
REMARK   13  A    between atoms: C_24  and  C_26
REMARK   14  A    between atoms: S_27  and  C_30
REMARK   15  A    between atoms: C_33  and  C_36
REMARK                            x       y       z     vdW  Elec       q    Type
REMARK                         _______ _______ _______ _____ _____    ______ ____
ROOT
ATOM      1  N   UNL     1      -9.571   1.037   3.953  0.00  0.00    -0.194 N 
ENDROOT
BRANCH   1   2
ATOM      2  C   UNL     1     -10.327   2.067   3.388  0.00  0.00    +0.052 A 
ATOM      3  C   UNL     1     -11.706   1.939   3.278  0.00  0.00    +0.025 A 
ATOM      4  C   UNL     1     -12.450   2.961   2.723  0.00  0.00    +0.006 A 
ATOM      5  C   UNL     1     -11.824   4.106   2.267  0.00  0.00    -0.045 A 
ATOM      6  C   UNL     1     -10.451   4.235   2.370  0.00  0.00    +0.006 A 
ATOM      7  C   UNL     1      -9.700   3.219   2.929  0.00  0.00    +0.025 A 
BRANCH   5   8
ATOM      8  C   UNL     1     -12.639   5.217   1.657  0.00  0.00    +0.013 C 
ATOM      9  C   UNL     1     -13.383   4.688   0.429  0.00  0.00    +0.012 C 
ATOM     10  C   UNL     1     -13.650   5.731   2.684  0.00  0.00    +0.012 C 
ENDBRANCH   5   8
ENDBRANCH   1   2
BRANCH   1  11
ATOM     11  S   UNL     1     -10.133  -0.520   3.915  0.00  0.00    +0.075 S 
ATOM     12  O   UNL     1     -11.054  -0.593   2.836  0.00  0.00    -0.150 OA
ATOM     13  O   UNL     1      -8.995  -1.365   4.004  0.00  0.00    -0.150 OA
BRANCH  11  14
ATOM     14  C   UNL     1     -11.065  -0.773   5.389  0.00  0.00    +0.109 A 
ATOM     15  C   UNL     1     -10.422  -1.127   6.561  0.00  0.00    +0.029 A 
ATOM     16  C   UNL     1     -11.152  -1.321   7.719  0.00  0.00    +0.005 A 
ATOM     17  C   UNL     1     -12.526  -1.172   7.702  0.00  0.00    -0.050 A 
ATOM     18  C   UNL     1     -13.169  -0.823   6.530  0.00  0.00    +0.005 A 
ATOM     19  C   UNL     1     -12.439  -0.624   5.373  0.00  0.00    +0.029 A 
ATOM     20  C   UNL     1     -13.322  -1.389   8.963  0.00  0.00    +0.044 C 
ENDBRANCH  11  14
ENDBRANCH   1  11
BRANCH   1  21
ATOM     21  C   UNL     1      -8.280   1.335   4.580  0.00  0.00    +0.227 C 
BRANCH  21  23
ATOM     22  N   UNL     1      -5.926   1.607   3.873  0.00  0.00    -0.314 N 
ATOM     23  C   UNL     1      -7.203   1.352   3.527  0.00  0.00    +0.232 C 
ATOM     24  O   UNL     1      -7.485   1.137   2.367  0.00  0.00    -0.274 OA
ATOM     25  H   UNL     1      -5.670   1.802   4.925  0.00  0.00    +0.149 HD
BRANCH  22  26
ATOM     26  C   UNL     1      -4.878   1.624   2.850  0.00  0.00    +0.102 C 
BRANCH  26  27
ATOM     27  C   UNL     1      -3.530   1.935   3.504  0.00  0.00    +0.000 C 
BRANCH  27  28
ATOM     28  C   UNL     1      -2.436   1.952   2.435  0.00  0.00    -0.077 C 
BRANCH  28  34
ATOM     29  C   UNL     1      -0.051   2.176   2.083  0.00  0.00    -0.069 C 
ATOM     30  C   UNL     1       1.255   2.633   2.736  0.00  0.00    -0.015 C 
ATOM     31  C   UNL     1       1.561   1.734   3.937  0.00  0.00    -0.003 C 
ATOM     32  C   UNL     1       0.389   1.792   4.920  0.00  0.00    -0.019 C 
ATOM     33  C   UNL     1      -0.893   1.359   4.203  0.00  0.00    -0.078 C 
ATOM     34  N   UNL     1      -1.142   2.251   3.063  0.00  0.00    +0.382 N 
ATOM     35  H   UNL     1      -1.180   3.281   3.445  0.00  0.00    -0.081 HD
BRANCH  29  37
ATOM     36  C   UNL     1       0.698   2.909  -0.185  0.00  0.00    +0.002 C 
ATOM     37  C   UNL     1      -0.372   3.084   0.894  0.00  0.00    -0.019 C 
ENDBRANCH  29  37
ENDBRANCH  28  34
ENDBRANCH  27  28
ENDBRANCH  26  27
ENDBRANCH  22  26
ENDBRANCH  21  23
ENDBRANCH   1  21
TORSDOF 11
