REMARK  Name = ZINC25408685
REMARK  6 active torsions:
REMARK  status: ('A' for Active; 'I' for Inactive)
REMARK    1  A    between atoms: C_2  and  C_3
REMARK    2  A    between atoms: C_3  and  N_4
REMARK    3  A    between atoms: C_8  and  C_10
REMARK    4  A    between atoms: C_10  and  N_11
REMARK    5  A    between atoms: N_14  and  S_17
REMARK    6  A    between atoms: S_17  and  C_20
REMARK                            x       y       z     vdW  Elec       q    Type
REMARK                         _______ _______ _______ _____ _____    ______ ____
ROOT
ATOM      1  N   UNL     1      -1.007   3.270  -1.025  0.00  0.00    +0.387 N 
ATOM      2  C   UNL     1      -0.898   1.815  -0.852  0.00  0.00    -0.061 C 
ATOM      3  C   UNL     1      -0.242   1.512   0.499  0.00  0.00    +0.091 C 
ATOM      4  N   UNL     1      -0.993   2.209   1.554  0.00  0.00    -0.180 NA
ATOM      5  C   UNL     1      -1.266   3.645   1.381  0.00  0.00    +0.091 C 
ATOM      6  C   UNL     1      -1.882   3.863  -0.005  0.00  0.00    -0.061 C 
ATOM      7  H   UNL     1      -0.002   3.699  -0.895  0.00  0.00    -0.081 HD
ENDROOT
BRANCH   4   8
ATOM      8  S   UNL     1      -1.523   1.398   2.897  0.00  0.00    +0.062 S 
ATOM      9  O   UNL     1      -2.628   2.132   3.406  0.00  0.00    -0.153 OA
ATOM     10  O   UNL     1      -1.622   0.028   2.532  0.00  0.00    -0.153 OA
BRANCH   8  11
ATOM     11  C   UNL     1      -0.247   1.505   4.108  0.00  0.00    +0.124 A 
ATOM     12  C   UNL     1      -0.466   2.200   5.283  0.00  0.00    +0.030 A 
ATOM     13  C   UNL     1       0.533   2.281   6.234  0.00  0.00    +0.002 A 
ATOM     14  C   UNL     1       1.755   1.675   6.008  0.00  0.00    +0.002 A 
ATOM     15  C   UNL     1       1.977   0.985   4.831  0.00  0.00    +0.022 A 
ATOM     16  C   UNL     1       0.975   0.900   3.880  0.00  0.00    +0.067 A 
ATOM     17 CL   UNL     1       1.253   0.033   2.402  0.00  0.00    -0.082 Cl
ENDBRANCH   8  11
ENDBRANCH   4   8
BRANCH   1  18
ATOM     18  C   UNL     1      -1.472   3.606  -2.377  0.00  0.00    +0.019 C 
BRANCH  18  23
ATOM     19  N   UNL     1      -5.484   3.212  -4.997  0.00  0.00    -0.296 N 
ATOM     20  C   UNL     1      -4.806   2.920  -3.869  0.00  0.00    +0.306 C 
ATOM     21  O   UNL     1      -5.326   2.239  -3.007  0.00  0.00    -0.252 OA
ATOM     22  N   UNL     1      -3.552   3.382  -3.697  0.00  0.00    -0.242 N 
ATOM     23  C   UNL     1      -2.874   3.090  -2.569  0.00  0.00    +0.204 C 
ATOM     24  O   UNL     1      -3.393   2.411  -1.709  0.00  0.00    -0.277 OA
ATOM     25  H   UNL     1      -5.013   3.828  -5.777  0.00  0.00    +0.151 HD
ATOM     26  H   UNL     1      -3.081   3.998  -4.477  0.00  0.00    +0.159 HD
BRANCH  19  27
ATOM     27  C   UNL     1      -6.847   2.710  -5.183  0.00  0.00    +0.132 C 
BRANCH  27  29
ATOM     28  C   UNL     1      -7.829   2.303  -7.381  0.00  0.00    +0.005 C 
ATOM     29  C   UNL     1      -7.376   3.175  -6.516  0.00  0.00    -0.016 C 
ENDBRANCH  27  29
ENDBRANCH  19  27
ENDBRANCH  18  23
ENDBRANCH   1  18
TORSDOF 6
