REMARK  Name = ZINC39684250
REMARK  8 active torsions:
REMARK  status: ('A' for Active; 'I' for Inactive)
REMARK    1  A    between atoms: C_1  and  C_2
REMARK    2  A    between atoms: C_5  and  C_8
REMARK    3  A    between atoms: C_8  and  C_9
REMARK    4  A    between atoms: C_13  and  C_22
REMARK    5  A    between atoms: N_24  and  C_25
REMARK    6  A    between atoms: C_25  and  C_26
REMARK    7  A    between atoms: C_26  and  C_27
REMARK    8  A    between atoms: C_32  and  C_36
REMARK                            x       y       z     vdW  Elec       q    Type
REMARK                         _______ _______ _______ _____ _____    ______ ____
ROOT
ATOM      1  C   UNL     1       1.195  -4.798   0.082  0.00  0.00    +0.220 C 
ATOM      2  O   UNL     1       2.038  -3.927   0.117  0.00  0.00    -0.275 OA
ATOM      3  N   UNL     1       1.565  -6.093   0.033  0.00  0.00    -0.300 N 
ATOM      4  C   UNL     1       0.688  -7.286  -0.021  0.00  0.00    +0.121 C 
ATOM      5  C   UNL     1       1.397  -8.247  -1.002  0.00  0.00    +0.100 C 
ATOM      6  C   UNL     1       2.875  -7.822  -0.969  0.00  0.00    -0.004 C 
ATOM      7  C   UNL     1       2.941  -6.645   0.015  0.00  0.00    +0.115 C 
ATOM      8  C   UNL     1       3.326  -7.371  -2.354  0.00  0.00    -0.010 C 
ATOM      9  C   UNL     1       4.813  -7.008  -2.308  0.00  0.00    -0.082 C 
ATOM     10  N   UNL     1       5.590  -8.175  -1.874  0.00  0.00    +0.379 N 
ATOM     11  C   UNL     1       5.215  -8.546  -0.505  0.00  0.00    -0.082 C 
ATOM     12  C   UNL     1       3.745  -8.974  -0.474  0.00  0.00    -0.010 C 
ATOM     13  H   UNL     1       5.406  -8.950  -2.494  0.00  0.00    -0.086 HD
ATOM     14  H   UNL     1       6.574  -7.952  -1.903  0.00  0.00    -0.086 HD
ENDROOT
BRANCH   5  15
ATOM     15  C   UNL     1       0.834  -8.088  -2.391  0.00  0.00    +0.218 C 
ATOM     16  O   UNL     1       0.396  -7.015  -2.748  0.00  0.00    -0.275 OA
ATOM     17  N   UNL     1       0.818  -9.138  -3.236  0.00  0.00    -0.315 N 
ATOM     18  H   UNL     1       1.169  -9.996  -2.950  0.00  0.00    +0.149 HD
BRANCH  17  19
ATOM     19  C   UNL     1       0.271  -8.984  -4.586  0.00  0.00    +0.109 C 
BRANCH  19  20
ATOM     20  C   UNL     1       0.371 -10.315  -5.332  0.00  0.00    +0.056 C 
BRANCH  20  21
ATOM     21  C   UNL     1      -0.191 -10.156  -6.721  0.00  0.00    -0.021 A 
ATOM     22  C   UNL     1       0.525  -9.664  -7.900  0.00  0.00    +0.003 A 
ATOM     23  C   UNL     1       1.828  -9.220  -8.129  0.00  0.00    +0.010 A 
ATOM     24  C   UNL     1       2.197  -8.815  -9.381  0.00  0.00    +0.001 A 
ATOM     25  C   UNL     1       1.286  -8.840 -10.427  0.00  0.00    +0.005 A 
ATOM     26  C   UNL     1      -0.005  -9.275 -10.224  0.00  0.00    -0.027 A 
ATOM     27  C   UNL     1      -0.403  -9.692  -8.958  0.00  0.00    +0.050 A 
ATOM     28  N   UNL     1      -1.589 -10.168  -8.446  0.00  0.00    -0.360 N 
ATOM     29  C   UNL     1      -1.442 -10.445  -7.114  0.00  0.00    +0.087 A 
ATOM     30  C   UNL     1      -0.985  -9.297 -11.369  0.00  0.00    +0.046 C 
ATOM     31  H   UNL     1      -2.405 -10.293  -8.954  0.00  0.00    +0.165 HD
ENDBRANCH  20  21
ENDBRANCH  19  20
ENDBRANCH  17  19
ENDBRANCH   5  15
BRANCH   1  32
ATOM     32  C   UNL     1      -0.267  -4.431   0.093  0.00  0.00    +0.131 C 
BRANCH  32  37
ATOM     33  C   UNL     1      -0.814   1.317   0.312  0.00  0.00    +0.044 C 
ATOM     34  C   UNL     1      -0.671  -0.182   0.255  0.00  0.00    -0.050 A 
ATOM     35  C   UNL     1      -0.603  -0.824  -0.968  0.00  0.00    +0.003 A 
ATOM     36  C   UNL     1      -0.471  -2.199  -1.020  0.00  0.00    +0.004 A 
ATOM     37  C   UNL     1      -0.409  -2.932   0.150  0.00  0.00    -0.039 A 
ATOM     38  C   UNL     1      -0.477  -2.291   1.372  0.00  0.00    +0.004 A 
ATOM     39  C   UNL     1      -0.604  -0.915   1.425  0.00  0.00    +0.003 A 
ENDBRANCH  32  37
ENDBRANCH   1  32
TORSDOF 6
