REMARK  Name = ZINC03046675
REMARK  12 active torsions:
REMARK  status: ('A' for Active; 'I' for Inactive)
REMARK    1  A    between atoms: C_1  and  C_2
REMARK    2  A    between atoms: C_5  and  C_8
REMARK    3  A    between atoms: N_12  and  C_20
REMARK    4  A    between atoms: C_20  and  C_21
REMARK    5  A    between atoms: N_23  and  C_24
REMARK    6  A    between atoms: C_24  and  C_25
REMARK    7  A    between atoms: C_25  and  N_26
REMARK    8  A    between atoms: N_26  and  C_27
REMARK    9  A    between atoms: N_26  and  C_34
REMARK   10  A    between atoms: C_27  and  C_28
REMARK   11  A    between atoms: C_34  and  C_35
REMARK   12  A    between atoms: C_34  and  C_36
REMARK                            x       y       z     vdW  Elec       q    Type
REMARK                         _______ _______ _______ _____ _____    ______ ____
ROOT
ATOM      1  C   UNL     1       8.395  -5.141  -7.865  0.00  0.00    +0.028 C 
ATOM      2  C   UNL     1       7.840  -5.701  -6.763  0.00  0.00    +0.076 C 
ATOM      3  C   UNL     1       7.974  -5.090  -5.422  0.00  0.00    +0.258 C 
ATOM      4  O   UNL     1       8.941  -4.398  -5.168  0.00  0.00    -0.269 OA
ATOM      5  N   UNL     1       7.040  -5.292  -4.488  0.00  0.00    -0.257 N 
ATOM      6  C   UNL     1       5.843  -5.977  -4.648  0.00  0.00    +0.051 A 
ATOM      7  C   UNL     1       4.814  -5.741  -3.736  0.00  0.00    +0.024 A 
ATOM      8  C   UNL     1       3.607  -6.397  -3.857  0.00  0.00    +0.002 A 
ATOM      9  C   UNL     1       3.399  -7.300  -4.885  0.00  0.00    +0.001 A 
ATOM     10  C   UNL     1       4.401  -7.538  -5.800  0.00  0.00    +0.017 A 
ATOM     11  C   UNL     1       5.618  -6.886  -5.681  0.00  0.00    +0.034 A 
ATOM     12  S   UNL     1       6.909  -7.209  -6.845  0.00  0.00    -0.082 S 
ENDROOT
BRANCH   1  17
ATOM     13  C   UNL     1       8.322  -7.963 -12.872  0.00  0.00    +0.044 C 
ATOM     14  C   UNL     1       8.340  -7.223 -11.559  0.00  0.00    -0.050 A 
ATOM     15  C   UNL     1       8.234  -5.843 -11.545  0.00  0.00    +0.004 A 
ATOM     16  C   UNL     1       8.251  -5.159 -10.348  0.00  0.00    +0.008 A 
ATOM     17  C   UNL     1       8.375  -5.863  -9.146  0.00  0.00    -0.024 A 
ATOM     18  C   UNL     1       8.487  -7.258  -9.169  0.00  0.00    +0.008 A 
ATOM     19  C   UNL     1       8.464  -7.927 -10.374  0.00  0.00    +0.004 A 
ENDBRANCH   1  17
BRANCH   5  20
ATOM     20  C   UNL     1       7.310  -4.739  -3.158  0.00  0.00    +0.209 C 
BRANCH  20  21
ATOM     21  C   UNL     1       6.765  -3.337  -3.077  0.00  0.00    +0.231 C 
ATOM     22  O   UNL     1       6.206  -2.847  -4.036  0.00  0.00    -0.274 OA
ATOM     23  N   UNL     1       6.898  -2.627  -1.940  0.00  0.00    -0.316 N 
ATOM     24  H   UNL     1       7.405  -3.071  -1.070  0.00  0.00    +0.149 HD
BRANCH  23  25
ATOM     25  C   UNL     1       6.368  -1.263  -1.861  0.00  0.00    +0.086 C 
BRANCH  25  26
ATOM     26  C   UNL     1       6.650  -0.686  -0.472  0.00  0.00    -0.059 C 
BRANCH  26  27
ATOM     27  N   UNL     1       5.972   0.610  -0.334  0.00  0.00    +0.385 N 
ATOM     28  H   UNL     1       4.940   0.492  -0.695  0.00  0.00    -0.081 HD
BRANCH  27  29
ATOM     29  C   UNL     1       6.625   1.636  -1.159  0.00  0.00    -0.074 C 
ATOM     30  C   UNL     1       8.118   1.325  -1.272  0.00  0.00    -0.014 C 
ATOM     31  C   UNL     1       5.998   1.642  -2.554  0.00  0.00    -0.014 C 
ENDBRANCH  27  29
BRANCH  27  32
ATOM     32  C   UNL     1       5.913   1.026   1.074  0.00  0.00    -0.043 C 
BRANCH  32  33
ATOM     33  C   UNL     1       4.870   2.101   1.237  0.00  0.00    -0.064 A 
ATOM     34  C   UNL     1       3.541   1.756   1.395  0.00  0.00    +0.002 A 
ATOM     35  C   UNL     1       2.584   2.742   1.545  0.00  0.00    +0.000 A 
ATOM     36  C   UNL     1       2.956   4.073   1.537  0.00  0.00    +0.000 A 
ATOM     37  C   UNL     1       4.285   4.418   1.379  0.00  0.00    +0.000 A 
ATOM     38  C   UNL     1       5.242   3.432   1.228  0.00  0.00    +0.002 A 
ENDBRANCH  32  33
ENDBRANCH  27  32
ENDBRANCH  26  27
ENDBRANCH  25  26
ENDBRANCH  23  25
ENDBRANCH  20  21
ENDBRANCH   5  20
TORSDOF 9
