REMARK  Name = ZINC40727539
REMARK  7 active torsions:
REMARK  status: ('A' for Active; 'I' for Inactive)
REMARK    1  A    between atoms: C_1  and  C_2
REMARK    2  A    between atoms: C_2  and  C_3
REMARK    3  A    between atoms: C_2  and  C_4
REMARK    4  A    between atoms: C_7  and  O_10
REMARK    5  A    between atoms: O_10  and  C_11
REMARK    6  A    between atoms: C_12  and  N_29
REMARK    7  A    between atoms: C_13  and  N_17
REMARK                            x       y       z     vdW  Elec       q    Type
REMARK                         _______ _______ _______ _____ _____    ______ ____
ROOT
ATOM      1  C   UNL     1      -5.704  -2.714  -1.012  0.00  0.00    +0.246 A 
ATOM      2  C   UNL     1      -7.031  -3.128  -1.110  0.00  0.00    +0.128 A 
ATOM      3  C   UNL     1      -7.427  -3.806  -2.266  0.00  0.00    +0.149 A 
ATOM      4  N   UNL     1      -6.529  -4.028  -3.223  0.00  0.00    -0.219 NA
ATOM      5  C   UNL     1      -5.284  -3.618  -3.089  0.00  0.00    +0.227 A 
ATOM      6  N   UNL     1      -4.872  -2.972  -2.017  0.00  0.00    -0.199 NA
ENDROOT
BRANCH   3   7
ATOM      7  N   UNL     1      -8.738  -4.241  -2.415  0.00  0.00    -0.311 N 
ATOM      8  C   UNL     1      -9.771  -3.339  -2.943  0.00  0.00    +0.125 C 
ATOM      9  C   UNL     1     -10.432  -4.006  -4.155  0.00  0.00    +0.125 C 
ATOM     10  N   UNL     1     -10.810  -5.378  -3.788  0.00  0.00    -0.314 N 
ATOM     11  C   UNL     1      -9.778  -6.280  -3.260  0.00  0.00    +0.125 C 
ATOM     12  C   UNL     1      -9.116  -5.615  -2.053  0.00  0.00    +0.125 C 
ATOM     13  C   UNL     1     -12.122  -5.814  -3.937  0.00  0.00    +0.099 A 
ATOM     14  C   UNL     1     -13.052  -4.997  -4.572  0.00  0.00    +0.042 A 
ATOM     15  C   UNL     1     -14.354  -5.443  -4.713  0.00  0.00    +0.005 A 
ATOM     16  C   UNL     1     -14.683  -6.696  -4.212  0.00  0.00    +0.018 A 
ATOM     17  C   UNL     1     -13.709  -7.454  -3.593  0.00  0.00    +0.084 A 
ATOM     18  N   UNL     1     -12.474  -7.005  -3.478  0.00  0.00    -0.350 N 
ATOM     19  H   UNL     1     -11.808  -7.559  -3.042  0.00  0.00    +0.166 HD
ENDBRANCH   3   7
BRANCH   2  20
ATOM     20  N   UNL     1      -7.944  -2.873  -0.076  0.00  0.00    -0.351 N 
ATOM     21  H   UNL     1      -7.675  -2.339   0.688  0.00  0.00    +0.143 HD
ATOM     22  H   UNL     1      -8.845  -3.230  -0.125  0.00  0.00    +0.143 HD
ENDBRANCH   2  20
BRANCH   1  23
ATOM     23  O   UNL     1      -5.269  -2.052   0.089  0.00  0.00    -0.436 OA
BRANCH  23  27
ATOM     24  C   UNL     1      -1.404  -0.609   0.082  0.00  0.00    -0.045 A 
ATOM     25  C   UNL     1      -2.341  -0.075  -0.782  0.00  0.00    +0.007 A 
ATOM     26  C   UNL     1      -3.636  -0.557  -0.782  0.00  0.00    +0.046 A 
ATOM     27  C   UNL     1      -3.995  -1.577   0.087  0.00  0.00    +0.130 A 
ATOM     28  C   UNL     1      -3.053  -2.111   0.953  0.00  0.00    +0.046 A 
ATOM     29  C   UNL     1      -1.758  -1.630   0.946  0.00  0.00    +0.007 A 
BRANCH  24  31
ATOM     30  C   UNL     1       0.623  -0.278  -1.308  0.00  0.00    +0.012 C 
ATOM     31  C   UNL     1       0.008  -0.082   0.080  0.00  0.00    +0.013 C 
ATOM     32  C   UNL     1      -0.003   1.408   0.427  0.00  0.00    +0.012 C 
ENDBRANCH  24  31
ENDBRANCH  23  27
ENDBRANCH   1  23
TORSDOF 5
