REMARK  Name = ZINC19328654
REMARK  17 active torsions:
REMARK  status: ('A' for Active; 'I' for Inactive)
REMARK    1  A    between atoms: C_1  and  C_2
REMARK    2  A    between atoms: C_2  and  C_34
REMARK    3  A    between atoms: C_4  and  C_8
REMARK    4  A    between atoms: C_4  and  C_15
REMARK    5  A    between atoms: C_8  and  C_9
REMARK    6  A    between atoms: C_15  and  C_17
REMARK    7  A    between atoms: C_15  and  C_32
REMARK    8  A    between atoms: C_17  and  N_18
REMARK    9  A    between atoms: N_18  and  C_19
REMARK   10  A    between atoms: C_19  and  N_20
REMARK   11  A    between atoms: N_20  and  C_21
REMARK   12  A    between atoms: C_21  and  C_22
REMARK   13  A    between atoms: C_25  and  O_30
REMARK   14  A    between atoms: C_26  and  O_28
REMARK   15  A    between atoms: O_28  and  C_29
REMARK   16  A    between atoms: O_30  and  C_31
REMARK   17  A    between atoms: C_32  and  O_33
REMARK                            x       y       z     vdW  Elec       q    Type
REMARK                         _______ _______ _______ _____ _____    ______ ____
ROOT
ATOM      1  C   UNL     1       0.094   1.911  -1.167  0.00  0.00    +0.004 C 
ENDROOT
BRANCH   1   5
ATOM      2  C   UNL     1       1.754  -2.250  -3.385  0.00  0.00    +0.041 C 
ATOM      3  C   UNL     1       1.361  -1.615  -2.049  0.00  0.00    +0.064 C 
ATOM      4  C   UNL     1       0.991  -0.146  -2.271  0.00  0.00    +0.042 C 
ATOM      5  C   UNL     1       0.541   0.466  -0.941  0.00  0.00    -0.017 C 
ATOM      6  C   UNL     1      -0.629  -0.352  -0.385  0.00  0.00    +0.035 C 
ATOM      7  C   UNL     1      -0.196  -1.812  -0.236  0.00  0.00    +0.161 C 
ATOM      8  O   UNL     1       0.239  -2.311  -1.503  0.00  0.00    -0.374 OA
ATOM      9  C   UNL     1       2.539  -1.703  -1.077  0.00  0.00    +0.041 C 
BRANCH   5  10
ATOM     10  C   UNL     1       1.704   0.439   0.054  0.00  0.00    +0.042 C 
BRANCH  10  11
ATOM     11  C   UNL     1       1.322   1.206   1.293  0.00  0.00    -0.047 A 
ATOM     12  C   UNL     1       1.768   2.503   1.468  0.00  0.00    +0.003 A 
ATOM     13  C   UNL     1       1.415   3.208   2.604  0.00  0.00    +0.000 A 
ATOM     14  C   UNL     1       0.623   2.613   3.568  0.00  0.00    +0.000 A 
ATOM     15  C   UNL     1       0.181   1.315   3.395  0.00  0.00    +0.000 A 
ATOM     16  C   UNL     1       0.531   0.611   2.258  0.00  0.00    +0.003 A 
ENDBRANCH  10  11
ENDBRANCH   5  10
ENDBRANCH   1   5
BRANCH   1  17
ATOM     17  C   UNL     1      -0.919   2.306  -0.090  0.00  0.00    -0.075 C 
BRANCH  17  18
ATOM     18  N   UNL     1      -1.298   3.714  -0.268  0.00  0.00    +0.387 N 
ATOM     19  H   UNL     1      -0.394   4.341  -0.260  0.00  0.00    -0.084 HD
ATOM     20  H   UNL     1      -1.819   3.835  -1.230  0.00  0.00    -0.084 HD
BRANCH  18  21
ATOM     21  C   UNL     1      -2.190   4.160   0.810  0.00  0.00    +0.001 C 
BRANCH  21  22
ATOM     22  N   UNL     1      -1.396   4.780   1.879  0.00  0.00    -0.329 NA
ATOM     23  H   UNL     1      -1.864   4.572   2.852  0.00  0.00    +0.120 HD
BRANCH  22  24
ATOM     24  C   UNL     1      -1.315   6.236   1.697  0.00  0.00    +0.114 C 
BRANCH  24  25
ATOM     25  C   UNL     1      -0.494   6.836   2.809  0.00  0.00    -0.030 A 
ATOM     26  C   UNL     1      -1.111   7.253   3.973  0.00  0.00    +0.009 A 
ATOM     27  C   UNL     1      -0.361   7.800   4.999  0.00  0.00    +0.050 A 
ATOM     28  C   UNL     1       1.010   7.940   4.856  0.00  0.00    +0.162 A 
ATOM     29  C   UNL     1       1.630   7.525   3.681  0.00  0.00    +0.162 A 
ATOM     30  C   UNL     1       0.874   6.973   2.660  0.00  0.00    +0.054 A 
BRANCH  29  31
ATOM     31  O   UNL     1       2.975   7.660   3.537  0.00  0.00    -0.491 OA
ATOM     32  C   UNL     1       3.544   7.213   2.304  0.00  0.00    +0.277 C 
ENDBRANCH  29  31
BRANCH  28  33
ATOM     33  O   UNL     1       1.748   8.483   5.861  0.00  0.00    -0.491 OA
ATOM     34  C   UNL     1       1.044   8.886   7.038  0.00  0.00    +0.277 C 
ENDBRANCH  28  33
ENDBRANCH  24  25
ENDBRANCH  22  24
ENDBRANCH  21  22
ENDBRANCH  18  21
ENDBRANCH  17  18
ENDBRANCH   1  17
BRANCH   1  35
ATOM     35  C   UNL     1      -0.554   2.034  -2.547  0.00  0.00    +0.158 C 
BRANCH  35  36
ATOM     36  O   UNL     1      -0.866   3.404  -2.807  0.00  0.00    -0.395 OA
ATOM     37  H   UNL     1      -1.341   3.690  -3.757  0.00  0.00    +0.209 HD
ENDBRANCH  35  36
ENDBRANCH   1  35
TORSDOF 13
