REMARK  Name = ZINC09415494
REMARK  7 active torsions:
REMARK  status: ('A' for Active; 'I' for Inactive)
REMARK    1  A    between atoms: C_1  and  C_2
REMARK    2  A    between atoms: C_5  and  O_33
REMARK    3  A    between atoms: C_6  and  N_8
REMARK    4  A    between atoms: C_18  and  S_19
REMARK    5  A    between atoms: S_19  and  C_20
REMARK    6  A    between atoms: C_20  and  C_21
REMARK    7  A    between atoms: O_33  and  C_34
REMARK                            x       y       z     vdW  Elec       q    Type
REMARK                         _______ _______ _______ _____ _____    ______ ____
ROOT
ATOM      1  N   UNL     1       1.121   2.067   0.003  0.00  0.00    -0.252 N 
ATOM      2  C   UNL     1       2.340   1.480  -0.012  0.00  0.00    +0.267 A 
ATOM      3  O   UNL     1       3.360   2.146  -0.019  0.00  0.00    -0.267 OA
ATOM      4  C   UNL     1       2.389   0.013  -0.021  0.00  0.00    +0.065 A 
ATOM      5  C   UNL     1       3.598  -0.682  -0.035  0.00  0.00    +0.017 A 
ATOM      6  C   UNL     1       3.592  -2.049  -0.042  0.00  0.00    +0.021 A 
ATOM      7  C   UNL     1       2.394  -2.755  -0.035  0.00  0.00    +0.043 A 
ATOM      8  C   UNL     1       1.186  -2.093  -0.020  0.00  0.00    +0.048 A 
ATOM      9  C   UNL     1       1.165  -0.696  -0.013  0.00  0.00    +0.080 A 
ATOM     10  N   UNL     1       0.002  -0.004   0.002  0.00  0.00    -0.223 NA
ATOM     11  C   UNL     1      -0.016   1.306   0.009  0.00  0.00    +0.177 A 
ATOM     12 CL   UNL     1       2.421  -4.491  -0.044  0.00  0.00    -0.083 Cl
ENDROOT
BRANCH   1  18
ATOM     13  C   UNL     1       0.845   6.276   2.530  0.00  0.00    +0.044 C 
ATOM     14  C   UNL     1       0.886   5.531   1.221  0.00  0.00    -0.048 A 
ATOM     15  C   UNL     1       0.825   6.229   0.029  0.00  0.00    +0.007 A 
ATOM     16  C   UNL     1       0.863   5.551  -1.175  0.00  0.00    +0.048 A 
ATOM     17  C   UNL     1       0.966   4.169  -1.190  0.00  0.00    +0.144 A 
ATOM     18  C   UNL     1       1.021   3.465   0.011  0.00  0.00    +0.094 A 
ATOM     19  C   UNL     1       0.984   4.153   1.215  0.00  0.00    +0.033 A 
BRANCH  17  20
ATOM     20  O   UNL     1       1.008   3.501  -2.373  0.00  0.00    -0.493 OA
ATOM     21  C   UNL     1       0.947   4.288  -3.565  0.00  0.00    +0.277 C 
ENDBRANCH  17  20
ENDBRANCH   1  18
BRANCH  11  22
ATOM     22  S   UNL     1      -1.575   2.126   0.021  0.00  0.00    -0.079 S 
BRANCH  22  23
ATOM     23  C   UNL     1      -2.683   0.694   0.018  0.00  0.00    +0.151 C 
BRANCH  23  24
ATOM     24  C   UNL     1      -4.114   1.165   0.028  0.00  0.00    +0.121 A 
ATOM     25  N   UNL     1      -5.102   0.232   0.027  0.00  0.00    -0.309 N 
ATOM     26  H   UNL     1      -4.883  -0.713   0.020  0.00  0.00    +0.170 HD
ATOM     27  C   UNL     1      -6.396   0.634   0.036  0.00  0.00    +0.266 A 
ATOM     28  O   UNL     1      -7.305  -0.178   0.035  0.00  0.00    -0.267 OA
ATOM     29  C   UNL     1      -6.658   2.005   0.045  0.00  0.00    +0.102 A 
ATOM     30  C   UNL     1      -5.617   2.950   0.045  0.00  0.00    +0.085 A 
ATOM     31  N   UNL     1      -4.342   2.439   0.041  0.00  0.00    -0.232 NA
ATOM     32  C   UNL     1      -6.021   4.292   0.055  0.00  0.00    +0.036 A 
ATOM     33  C   UNL     1      -7.334   4.606   0.063  0.00  0.00    +0.048 A 
ATOM     34  S   UNL     1      -8.122   3.005   0.058  0.00  0.00    -0.090 S 
ENDBRANCH  23  24
ENDBRANCH  22  23
ENDBRANCH  11  22
TORSDOF 5
