REMARK  Name = ZINC39675254
REMARK  9 active torsions:
REMARK  status: ('A' for Active; 'I' for Inactive)
REMARK    1  A    between atoms: C_1  and  C_2
REMARK    2  A    between atoms: C_2  and  C_4
REMARK    3  A    between atoms: C_2  and  N_14
REMARK    4  A    between atoms: C_4  and  C_5
REMARK    5  A    between atoms: C_5  and  C_6
REMARK    6  A    between atoms: C_9  and  O_12
REMARK    7  A    between atoms: O_12  and  C_13
REMARK    8  A    between atoms: C_15  and  C_17
REMARK    9  A    between atoms: C_28  and  C_30
REMARK                            x       y       z     vdW  Elec       q    Type
REMARK                         _______ _______ _______ _____ _____    ______ ____
ROOT
ATOM      1  C   UNL     1      -2.981  -1.547  -1.335  0.00  0.00    +0.100 C 
ATOM      2  C   UNL     1      -3.287  -2.939  -0.738  0.00  0.00    +0.121 C 
ATOM      3  N   UNL     1      -4.375  -3.479  -1.587  0.00  0.00    -0.296 N 
ATOM      4  C   UNL     1      -4.014  -3.058  -2.961  0.00  0.00    +0.115 C 
ATOM      5  C   UNL     1      -3.458  -1.629  -2.794  0.00  0.00    -0.004 C 
ATOM      6  C   UNL     1      -2.288  -1.405  -3.747  0.00  0.00    -0.010 C 
ATOM      7  C   UNL     1      -2.799  -1.433  -5.191  0.00  0.00    -0.082 C 
ATOM      8  N   UNL     1      -3.812  -0.387  -5.373  0.00  0.00    +0.379 N 
ATOM      9  C   UNL     1      -4.975  -0.663  -4.521  0.00  0.00    -0.082 C 
ATOM     10  C   UNL     1      -4.557  -0.602  -3.049  0.00  0.00    -0.010 C 
ATOM     11  C   UNL     1      -5.451  -4.192  -1.196  0.00  0.00    +0.247 C 
ATOM     12  O   UNL     1      -5.669  -4.365  -0.013  0.00  0.00    -0.270 OA
ATOM     13  H   UNL     1      -3.419   0.508  -5.125  0.00  0.00    -0.086 HD
ATOM     14  H   UNL     1      -4.103  -0.368  -6.340  0.00  0.00    -0.086 HD
ENDROOT
BRANCH  11  15
ATOM     15  C   UNL     1      -6.366  -4.762  -2.207  0.00  0.00    +0.037 A 
ATOM     16  C   UNL     1      -5.923  -4.969  -3.515  0.00  0.00    +0.014 A 
ATOM     17  C   UNL     1      -6.781  -5.502  -4.454  0.00  0.00    +0.021 A 
ATOM     18  C   UNL     1      -8.079  -5.832  -4.102  0.00  0.00    +0.041 A 
ATOM     19  C   UNL     1      -8.524  -5.628  -2.806  0.00  0.00    +0.021 A 
ATOM     20  C   UNL     1      -7.674  -5.101  -1.857  0.00  0.00    +0.014 A 
ATOM     21 CL   UNL     1      -9.154  -6.501  -5.290  0.00  0.00    -0.084 Cl
ENDBRANCH  11  15
BRANCH   1  23
ATOM     22  N   UNL     1      -1.057   0.001  -1.189  0.00  0.00    -0.312 N 
ATOM     23  C   UNL     1      -1.500  -1.268  -1.282  0.00  0.00    +0.218 C 
ATOM     24  O   UNL     1      -0.709  -2.186  -1.324  0.00  0.00    -0.275 OA
ATOM     25  H   UNL     1      -1.690   0.735  -1.155  0.00  0.00    +0.149 HD
BRANCH  22  27
ATOM     26  C   UNL     1       0.939   0.337  -2.561  0.00  0.00    +0.028 C 
ATOM     27  C   UNL     1       0.382   0.272  -1.137  0.00  0.00    +0.070 C 
BRANCH  27  28
ATOM     28  C   UNL     1       0.624   1.608  -0.433  0.00  0.00    +0.026 C 
BRANCH  28  29
ATOM     29  C   UNL     1       0.180   1.503   1.027  0.00  0.00    +0.037 C 
BRANCH  29  30
ATOM     30  C   UNL     1       0.419   2.819   1.721  0.00  0.00    -0.047 A 
ATOM     31  C   UNL     1       1.630   3.062   2.342  0.00  0.00    +0.007 A 
ATOM     32  C   UNL     1       1.851   4.268   2.979  0.00  0.00    +0.046 A 
ATOM     33  C   UNL     1       0.857   5.236   2.995  0.00  0.00    +0.120 A 
ATOM     34  C   UNL     1      -0.357   4.989   2.371  0.00  0.00    +0.046 A 
ATOM     35  C   UNL     1      -0.572   3.784   1.730  0.00  0.00    +0.007 A 
BRANCH  33  36
ATOM     36  O   UNL     1       1.072   6.422   3.622  0.00  0.00    -0.495 OA
ATOM     37  C   UNL     1       0.004   7.371   3.598  0.00  0.00    +0.277 C 
ENDBRANCH  33  36
ENDBRANCH  29  30
ENDBRANCH  28  29
ENDBRANCH  27  28
ENDBRANCH  22  27
ENDBRANCH   1  23
TORSDOF 7
