REMARK  Name = ZINC09805255
REMARK  9 active torsions:
REMARK  status: ('A' for Active; 'I' for Inactive)
REMARK    1  A    between atoms: C_1  and  C_2
REMARK    2  A    between atoms: C_2  and  N_3
REMARK    3  A    between atoms: N_3  and  C_4
REMARK    4  A    between atoms: N_3  and  C_6
REMARK    5  A    between atoms: C_4  and  C_5
REMARK    6  A    between atoms: C_9  and  C_12
REMARK    7  A    between atoms: C_19  and  C_31
REMARK    8  A    between atoms: C_35  and  O_37
REMARK    9  A    between atoms: O_37  and  C_38
REMARK                            x       y       z     vdW  Elec       q    Type
REMARK                         _______ _______ _______ _____ _____    ______ ____
ROOT
ATOM      1  C   UNL     1      -1.450  -6.269   0.201  0.00  0.00    +0.136 C 
ATOM      2  C   UNL     1      -0.455  -6.731   1.239  0.00  0.00    +0.036 C 
ATOM      3  H   UNL     1      -2.178  -8.443   3.235  0.00  0.00    +0.152 HD
ATOM      4  C   UNL     1       0.895  -6.521   0.870  0.00  0.00    +0.163 C 
ATOM      5  O   UNL     1       1.134  -5.990  -0.197  0.00  0.00    -0.292 OA
ATOM      6  C   UNL     1       2.039  -6.928   1.748  0.00  0.00    +0.088 C 
ATOM      7  C   UNL     1       1.596  -8.119   2.607  0.00  0.00    +0.032 C 
ATOM      8  C   UNL     1       0.352  -7.694   3.385  0.00  0.00    +0.059 C 
ATOM      9  C   UNL     1      -0.753  -7.299   2.419  0.00  0.00    +0.017 C 
ATOM     10  N   UNL     1      -2.010  -7.565   2.858  0.00  0.00    -0.316 N 
ATOM     11  C   UNL     1      -3.073  -6.671   2.807  0.00  0.00    +0.052 A 
ATOM     12  C   UNL     1      -3.679  -6.174   3.948  0.00  0.00    +0.025 A 
ATOM     13  C   UNL     1      -4.762  -5.322   3.825  0.00  0.00    +0.002 A 
ATOM     14  C   UNL     1      -5.237  -4.972   2.574  0.00  0.00    +0.002 A 
ATOM     15  C   UNL     1      -4.622  -5.455   1.431  0.00  0.00    +0.025 A 
ATOM     16  C   UNL     1      -3.524  -6.291   1.551  0.00  0.00    +0.049 A 
ATOM     17  N   UNL     1      -2.807  -6.714   0.437  0.00  0.00    -0.331 N 
ATOM     18  H   UNL     1      -3.228  -7.318  -0.196  0.00  0.00    +0.147 HD
ENDROOT
BRANCH   1  22
ATOM     19  C   UNL     1      -1.421  -1.998   0.107  0.00  0.00    +0.013 A 
ATOM     20  C   UNL     1      -1.858  -2.662   1.238  0.00  0.00    +0.022 A 
ATOM     21  C   UNL     1      -1.868  -4.043   1.268  0.00  0.00    +0.007 A 
ATOM     22  C   UNL     1      -1.441  -4.762   0.168  0.00  0.00    -0.023 A 
ATOM     23  C   UNL     1      -1.004  -4.099  -0.964  0.00  0.00    +0.007 A 
ATOM     24  C   UNL     1      -0.998  -2.717  -0.996  0.00  0.00    +0.022 A 
BRANCH  19  25
ATOM     25  N   UNL     1      -1.411  -0.601   0.076  0.00  0.00    -0.394 NA
ATOM     26  H   UNL     1      -1.069  -0.286  -0.820  0.00  0.00    +0.126 HD
BRANCH  25  28
ATOM     27  C   UNL     1      -3.655  -0.504  -0.900  0.00  0.00    +0.022 C 
ATOM     28  C   UNL     1      -2.775  -0.097   0.283  0.00  0.00    +0.081 C 
ENDBRANCH  25  28
BRANCH  25  29
ATOM     29  C   UNL     1      -0.534  -0.093   1.140  0.00  0.00    +0.081 C 
ATOM     30  C   UNL     1       0.909  -0.516   0.856  0.00  0.00    +0.022 C 
ENDBRANCH  25  29
ENDBRANCH  19  25
ENDBRANCH   1  22
BRANCH   7  31
ATOM     31  C   UNL     1       2.696  -8.495   3.566  0.00  0.00    -0.040 A 
ATOM     32  C   UNL     1       3.147  -7.575   4.495  0.00  0.00    +0.004 A 
ATOM     33  C   UNL     1       4.156  -7.916   5.375  0.00  0.00    +0.004 A 
ATOM     34  C   UNL     1       4.717  -9.178   5.330  0.00  0.00    +0.045 A 
ATOM     35  C   UNL     1       4.267 -10.103   4.399  0.00  0.00    +0.120 A 
ATOM     36  C   UNL     1       3.250  -9.759   3.520  0.00  0.00    +0.049 A 
BRANCH  35  37
ATOM     37  O   UNL     1       4.817 -11.345   4.352  0.00  0.00    -0.495 OA
ATOM     38  C   UNL     1       5.855 -11.630   5.291  0.00  0.00    +0.277 C 
ENDBRANCH  35  37
ENDBRANCH   7  31
TORSDOF 6
