REMARK  Name = ZINC43221569
REMARK  11 active torsions:
REMARK  status: ('A' for Active; 'I' for Inactive)
REMARK    1  A    between atoms: C_1  and  C_2
REMARK    2  A    between atoms: C_2  and  C_3
REMARK    3  A    between atoms: C_3  and  C_5
REMARK    4  A    between atoms: C_3  and  C_6
REMARK    5  A    between atoms: C_6  and  C_39
REMARK    6  A    between atoms: C_11  and  C_14
REMARK    7  A    between atoms: C_18  and  O_20
REMARK    8  A    between atoms: O_20  and  C_21
REMARK    9  A    between atoms: N_27  and  C_30
REMARK   10  A    between atoms: C_33  and  C_36
REMARK   11  A    between atoms: C_36  and  C_38
REMARK                            x       y       z     vdW  Elec       q    Type
REMARK                         _______ _______ _______ _____ _____    ______ ____
ROOT
ATOM      1  C   UNL     1       0.923  -2.152  -1.290  0.00  0.00    +0.051 C 
ATOM      2  C   UNL     1       1.610  -2.522  -2.594  0.00  0.00    +0.086 C 
ATOM      3  C   UNL     1       3.104  -2.458  -2.097  0.00  0.00    +0.077 C 
ATOM      4  C   UNL     1       3.047  -3.247  -0.854  0.00  0.00    -0.027 C 
ATOM      5  N   UNL     1       1.784  -2.720  -0.208  0.00  0.00    +0.396 N 
ATOM      6  C   UNL     1       3.826  -2.411  -3.344  0.00  0.00    +0.229 C 
ATOM      7  O   UNL     1       4.911  -2.894  -3.587  0.00  0.00    -0.275 OA
ATOM      8  N   UNL     1       3.019  -1.699  -4.196  0.00  0.00    -0.210 N 
ATOM      9  C   UNL     1       1.738  -1.539  -3.715  0.00  0.00    +0.229 C 
ATOM     10  O   UNL     1       0.892  -0.766  -4.109  0.00  0.00    -0.275 OA
ATOM     11  H   UNL     1       2.009  -2.001   0.462  0.00  0.00    -0.083 HD
ATOM     12  H   UNL     1       1.300  -3.477   0.251  0.00  0.00    -0.083 HD
ENDROOT
BRANCH   4  13
ATOM     13  C   UNL     1       2.946  -4.719  -1.159  0.00  0.00    -0.057 A 
ATOM     14  C   UNL     1       1.728  -5.270  -1.510  0.00  0.00    +0.002 A 
ATOM     15  C   UNL     1       1.632  -6.621  -1.790  0.00  0.00    +0.004 A 
ATOM     16  C   UNL     1       2.755  -7.423  -1.718  0.00  0.00    +0.046 A 
ATOM     17  C   UNL     1       3.978  -6.873  -1.366  0.00  0.00    +0.130 A 
ATOM     18  C   UNL     1       4.072  -5.516  -1.091  0.00  0.00    +0.048 A 
BRANCH  17  19
ATOM     19  O   UNL     1       5.083  -7.660  -1.294  0.00  0.00    -0.406 OA
BRANCH  19  20
ATOM     20  C   UNL     1       4.913  -9.047  -1.596  0.00  0.00    +0.575 C 
ATOM     21  F   UNL     1       4.437  -9.185  -2.904  0.00  0.00    -0.133 F 
ATOM     22  F   UNL     1       6.141  -9.705  -1.475  0.00  0.00    -0.133 F 
ATOM     23  F   UNL     1       3.993  -9.608  -0.703  0.00  0.00    -0.133 F 
ENDBRANCH  19  20
ENDBRANCH  17  19
ENDBRANCH   4  13
BRANCH   8  24
ATOM     24  C   UNL     1       3.446  -1.196  -5.428  0.00  0.00    +0.044 A 
ATOM     25  C   UNL     1       2.563  -0.479  -6.228  0.00  0.00    +0.024 A 
ATOM     26  C   UNL     1       2.979   0.018  -7.442  0.00  0.00    +0.013 A 
ATOM     27  C   UNL     1       4.294  -0.199  -7.871  0.00  0.00    +0.017 A 
ATOM     28  C   UNL     1       5.180  -0.921  -7.062  0.00  0.00    +0.013 A 
ATOM     29  C   UNL     1       4.756  -1.409  -5.847  0.00  0.00    +0.024 A 
BRANCH  27  30
ATOM     30  C   UNL     1       4.743   0.329  -9.166  0.00  0.00    +0.160 C 
ATOM     31  O   UNL     1       3.950   0.864  -9.911  0.00  0.00    -0.292 OA
ATOM     32  C   UNL     1       6.190   0.205  -9.570  0.00  0.00    +0.091 C 
ENDBRANCH  27  30
ENDBRANCH   8  24
BRANCH   1  33
ATOM     33  C   UNL     1      -0.454  -2.761  -1.234  0.00  0.00    +0.347 C 
ATOM     34  O   UNL     1      -1.290  -2.458  -2.068  0.00  0.00    -0.248 OA
ATOM     35  O   UNL     1      -0.733  -3.557  -0.353  0.00  0.00    -0.248 OA
ENDBRANCH   1  33
BRANCH   1  36
ATOM     36  C   UNL     1       0.834  -0.631  -1.151  0.00  0.00    -0.014 C 
ATOM     37  C   UNL     1       0.183  -0.278   0.188  0.00  0.00    +0.006 C 
BRANCH  36  39
ATOM     38  C   UNL     1       2.169   1.466  -0.899  0.00  0.00    +0.004 C 
ATOM     39  C   UNL     1       2.240  -0.031  -1.208  0.00  0.00    -0.001 C 
ENDBRANCH  36  39
ENDBRANCH   1  36
TORSDOF 8
