REMARK  Name = ZINC39684577
REMARK  11 active torsions:
REMARK  status: ('A' for Active; 'I' for Inactive)
REMARK    1  A    between atoms: C_1  and  C_2
REMARK    2  A    between atoms: C_2  and  C_4
REMARK    3  A    between atoms: C_2  and  N_8
REMARK    4  A    between atoms: C_4  and  C_5
REMARK    5  A    between atoms: C_4  and  C_6
REMARK    6  A    between atoms: C_4  and  C_7
REMARK    7  A    between atoms: C_9  and  C_11
REMARK    8  A    between atoms: C_22  and  C_24
REMARK    9  A    between atoms: C_27  and  O_34
REMARK   10  A    between atoms: C_28  and  C_30
REMARK   11  A    between atoms: O_34  and  C_35
REMARK                            x       y       z     vdW  Elec       q    Type
REMARK                         _______ _______ _______ _____ _____    ______ ____
ROOT
ATOM      1  C   UNL     1       1.301  -1.377   3.950  0.00  0.00    +0.100 C 
ATOM      2  C   UNL     1       2.314  -0.217   4.078  0.00  0.00    +0.121 C 
ATOM      3  N   UNL     1       1.698   0.712   5.053  0.00  0.00    -0.296 N 
ATOM      4  C   UNL     1       1.086  -0.175   6.072  0.00  0.00    +0.115 C 
ATOM      5  C   UNL     1       0.500  -1.348   5.262  0.00  0.00    -0.004 C 
ATOM      6  C   UNL     1       0.683  -2.658   6.022  0.00  0.00    -0.010 C 
ATOM      7  C   UNL     1      -0.169  -2.629   7.294  0.00  0.00    -0.082 C 
ATOM      8  N   UNL     1      -1.581  -2.441   6.936  0.00  0.00    +0.379 N 
ATOM      9  C   UNL     1      -1.763  -1.136   6.288  0.00  0.00    -0.082 C 
ATOM     10  C   UNL     1      -0.978  -1.103   4.973  0.00  0.00    -0.010 C 
ATOM     11  C   UNL     1       1.694   2.059   5.022  0.00  0.00    +0.247 C 
ATOM     12  O   UNL     1       2.132   2.646   4.051  0.00  0.00    -0.270 OA
ATOM     13  H   UNL     1      -1.866  -3.172   6.302  0.00  0.00    -0.086 HD
ATOM     14  H   UNL     1      -2.146  -2.483   7.770  0.00  0.00    -0.086 HD
ENDROOT
BRANCH  11  15
ATOM     15  C   UNL     1       1.159   2.823   6.167  0.00  0.00    +0.038 A 
ATOM     16  C   UNL     1       1.066   2.224   7.426  0.00  0.00    +0.016 A 
ATOM     17  C   UNL     1       0.567   2.940   8.491  0.00  0.00    +0.047 A 
ATOM     18  C   UNL     1       0.156   4.256   8.315  0.00  0.00    +0.132 A 
ATOM     19  C   UNL     1       0.246   4.855   7.064  0.00  0.00    +0.097 A 
ATOM     20  C   UNL     1       0.750   4.147   5.995  0.00  0.00    +0.029 A 
BRANCH  19  21
ATOM     21  C   UNL     1      -0.201   6.282   6.879  0.00  0.00    +0.421 C 
ATOM     22  F   UNL     1      -0.015   6.659   5.545  0.00  0.00    -0.166 F 
ATOM     23  F   UNL     1      -1.556   6.392   7.210  0.00  0.00    -0.166 F 
ATOM     24  F   UNL     1       0.551   7.118   7.710  0.00  0.00    -0.166 F 
ENDBRANCH  19  21
BRANCH  18  25
ATOM     25  O   UNL     1      -0.336   4.958   9.367  0.00  0.00    -0.495 OA
ATOM     26  C   UNL     1      -0.402   4.281  10.624  0.00  0.00    +0.277 C 
ENDBRANCH  18  25
ENDBRANCH  11  15
BRANCH   1  28
ATOM     27  N   UNL     1      -0.201  -2.197   2.163  0.00  0.00    -0.312 N 
ATOM     28  C   UNL     1       0.388  -1.149   2.772  0.00  0.00    +0.218 C 
ATOM     29  O   UNL     1       0.184  -0.022   2.373  0.00  0.00    -0.275 OA
ATOM     30  H   UNL     1      -0.037  -3.099   2.483  0.00  0.00    +0.149 HD
BRANCH  27  32
ATOM     31  C   UNL     1      -0.256  -1.887  -0.262  0.00  0.00    +0.028 C 
ATOM     32  C   UNL     1      -1.088  -1.976   1.019  0.00  0.00    +0.075 C 
BRANCH  32  33
ATOM     33  C   UNL     1      -2.076  -3.139   0.906  0.00  0.00    -0.020 C 
ATOM     34  C   UNL     1      -1.304  -4.445   0.708  0.00  0.00    +0.012 C 
ATOM     35  C   UNL     1      -2.908  -3.228   2.187  0.00  0.00    +0.012 C 
ATOM     36  C   UNL     1      -3.002  -2.908  -0.289  0.00  0.00    +0.012 C 
ENDBRANCH  32  33
ENDBRANCH  27  32
ENDBRANCH   1  28
TORSDOF 6
