REMARK  Name = ZINC38803962
REMARK  8 active torsions:
REMARK  status: ('A' for Active; 'I' for Inactive)
REMARK    1  A    between atoms: C_1  and  O_2
REMARK    2  A    between atoms: O_2  and  C_3
REMARK    3  A    between atoms: C_6  and  C_20
REMARK    4  A    between atoms: C_8  and  C_9
REMARK    5  A    between atoms: C_9  and  S_10
REMARK    6  A    between atoms: S_10  and  C_11
REMARK    7  A    between atoms: N_21  and  N_22
REMARK    8  A    between atoms: C_23  and  C_25
REMARK                            x       y       z     vdW  Elec       q    Type
REMARK                         _______ _______ _______ _____ _____    ______ ____
ROOT
ATOM      1  C   UNL     1       1.686  -0.894   0.507  0.00  0.00    +0.124 A 
ATOM      2  C   UNL     1       2.616  -0.280   1.336  0.00  0.00    +0.046 A 
ATOM      3  C   UNL     1       2.890  -0.808   2.579  0.00  0.00    +0.013 A 
ATOM      4  C   UNL     1       2.230  -1.964   3.005  0.00  0.00    -0.005 A 
ATOM      5  C   UNL     1       1.295  -2.578   2.168  0.00  0.00    +0.017 A 
ATOM      6  C   UNL     1       1.023  -2.039   0.929  0.00  0.00    +0.005 A 
ENDROOT
BRANCH   1   8
ATOM      7  C   UNL     1       2.137   0.809  -1.088  0.00  0.00    +0.277 C 
ATOM      8  O   UNL     1       1.420  -0.370  -0.717  0.00  0.00    -0.495 OA
ENDBRANCH   1   8
BRANCH   4   9
ATOM      9  C   UNL     1       2.519  -2.534   4.334  0.00  0.00    +0.138 C 
ATOM     10  N   UNL     1       3.156  -1.827   5.218  0.00  0.00    -0.189 NA
BRANCH  10  11
ATOM     11  N   UNL     1       3.103  -0.428   5.167  0.00  0.00    -0.221 N 
ATOM     12  C   UNL     1       3.882   0.322   6.021  0.00  0.00    +0.142 C 
ATOM     13  N   UNL     1       4.668  -0.270   6.875  0.00  0.00    -0.384 N 
ATOM     14  H   UNL     1       2.518   0.012   4.531  0.00  0.00    +0.176 HD
ATOM     15  H   UNL     1       5.268   0.256   7.426  0.00  0.00    +0.157 HD
ATOM     16  H   UNL     1       4.653  -1.236   6.959  0.00  0.00    +0.157 HD
BRANCH  12  17
ATOM     17  C   UNL     1       3.826   1.802   5.967  0.00  0.00    +0.187 A 
ATOM     18  C   UNL     1       4.946   2.714   6.226  0.00  0.00    +0.191 A 
ATOM     19  N   UNL     1       4.518   3.939   6.085  0.00  0.00    -0.033 NA
ATOM     20  O   UNL     1       3.145   3.884   5.740  0.00  0.00    -0.240 OA
ATOM     21  N   UNL     1       2.773   2.518   5.676  0.00  0.00    -0.044 NA
ATOM     22  N   UNL     1       6.240   2.339   6.563  0.00  0.00    -0.339 N 
ATOM     23  H   UNL     1       6.486   1.401   6.572  0.00  0.00    +0.144 HD
ATOM     24  H   UNL     1       6.898   3.015   6.788  0.00  0.00    +0.144 HD
ENDBRANCH  12  17
ENDBRANCH  10  11
ENDBRANCH   4   9
BRANCH   6  25
ATOM     25  C   UNL     1       0.011  -2.698   0.028  0.00  0.00    +0.117 C 
BRANCH  25  26
ATOM     26  S   UNL     1       0.839  -3.928  -1.016  0.00  0.00    -0.062 S 
BRANCH  26  27
ATOM     27  C   UNL     1      -0.461  -4.599  -1.998  0.00  0.00    +0.258 A 
ATOM     28  N   UNL     1      -1.716  -4.232  -1.933  0.00  0.00    -0.203 NA
ATOM     29  C   UNL     1      -2.431  -4.961  -2.833  0.00  0.00    +0.110 A 
ATOM     30  C   UNL     1      -3.779  -4.996  -3.191  0.00  0.00    +0.031 A 
ATOM     31  C   UNL     1      -4.205  -5.870  -4.168  0.00  0.00    +0.002 A 
ATOM     32  C   UNL     1      -3.301  -6.714  -4.795  0.00  0.00    +0.004 A 
ATOM     33  C   UNL     1      -1.965  -6.690  -4.451  0.00  0.00    +0.048 A 
ATOM     34  C   UNL     1      -1.520  -5.817  -3.471  0.00  0.00    +0.156 A 
ATOM     35  O   UNL     1      -0.308  -5.558  -2.929  0.00  0.00    -0.431 OA
ENDBRANCH  26  27
ENDBRANCH  25  26
ENDBRANCH   6  25
TORSDOF 7
