REMARK  Name = ZINC47123206
REMARK  11 active torsions:
REMARK  status: ('A' for Active; 'I' for Inactive)
REMARK    1  A    between atoms: C_1  and  C_2
REMARK    2  A    between atoms: C_5  and  N_22
REMARK    3  A    between atoms: C_7  and  N_8
REMARK    4  A    between atoms: C_9  and  C_11
REMARK    5  A    between atoms: C_13  and  S_17
REMARK    6  A    between atoms: N_15  and  C_16
REMARK    7  A    between atoms: S_17  and  N_20
REMARK    8  A    between atoms: N_20  and  C_21
REMARK    9  A    between atoms: C_23  and  C_25
REMARK   10  A    between atoms: C_25  and  C_26
REMARK   11  A    between atoms: C_25  and  C_27
REMARK                            x       y       z     vdW  Elec       q    Type
REMARK                         _______ _______ _______ _____ _____    ______ ____
ROOT
ATOM      1  N   UNL     1      -0.327   0.614   2.623  0.00  0.00    -0.280 N 
ATOM      2  C   UNL     1       0.048   0.204   3.851  0.00  0.00    +0.265 C 
ATOM      3  O   UNL     1       0.099  -0.985   4.106  0.00  0.00    -0.268 OA
ATOM      4  H   UNL     1      -0.303   1.557   2.399  0.00  0.00    +0.155 HD
ENDROOT
BRANCH   1  11
ATOM      5  C   UNL     1      -0.315   1.386  -0.114  0.00  0.00    +0.045 C 
ATOM      6  C   UNL     1      -0.760   0.015   0.325  0.00  0.00    -0.029 A 
ATOM      7  C   UNL     1      -1.173  -0.910  -0.616  0.00  0.00    +0.007 A 
ATOM      8  C   UNL     1      -1.582  -2.168  -0.218  0.00  0.00    +0.024 A 
ATOM      9  C   UNL     1      -1.580  -2.508   1.129  0.00  0.00    +0.035 A 
ATOM     10  C   UNL     1      -1.165  -1.582   2.076  0.00  0.00    +0.047 A 
ATOM     11  C   UNL     1      -0.750  -0.321   1.673  0.00  0.00    +0.038 A 
BRANCH   9  12
ATOM     12  N   UNL     1      -1.995  -3.782   1.531  0.00  0.00    -0.285 N 
ATOM     13  C   UNL     1      -1.766  -4.847   0.737  0.00  0.00    +0.220 C 
ATOM     14  O   UNL     1      -1.122  -4.716  -0.282  0.00  0.00    -0.275 OA
ATOM     15  H   UNL     1      -2.448  -3.899   2.381  0.00  0.00    +0.155 HD
BRANCH  13  16
ATOM     16  C   UNL     1      -2.311  -6.200   1.116  0.00  0.00    +0.069 C 
ATOM     17  C   UNL     1      -3.836  -6.128   1.208  0.00  0.00    +0.017 C 
ATOM     18  C   UNL     1      -1.912  -7.226   0.053  0.00  0.00    +0.017 C 
ENDBRANCH  13  16
ENDBRANCH   9  12
ENDBRANCH   1  11
BRANCH   2  19
ATOM     19  C   UNL     1       0.394   1.190   4.880  0.00  0.00    +0.106 A 
ATOM     20  C   UNL     1       0.670   0.924   6.204  0.00  0.00    +0.061 A 
ATOM     21  C   UNL     1       0.947   2.148   6.820  0.00  0.00    +0.123 A 
ATOM     22  C   UNL     1       0.838   3.119   5.882  0.00  0.00    +0.114 A 
ATOM     23  N   UNL     1       0.508   2.550   4.697  0.00  0.00    -0.344 N 
ATOM     24  C   UNL     1       0.304   3.263   3.434  0.00  0.00    +0.149 C 
BRANCH  21  25
ATOM     25  S   UNL     1       1.363   2.385   8.516  0.00  0.00    +0.060 S 
ATOM     26  O   UNL     1       1.016   3.726   8.835  0.00  0.00    -0.153 OA
ATOM     27  O   UNL     1       0.835   1.272   9.223  0.00  0.00    -0.153 OA
BRANCH  25  28
ATOM     28  N   UNL     1       3.012   2.282   8.634  0.00  0.00    -0.193 NA
ATOM     29  C   UNL     1       3.857   3.283   7.979  0.00  0.00    +0.127 C 
ATOM     30  H   UNL     1       3.418   1.559   9.137  0.00  0.00    +0.148 HD
ENDBRANCH  25  28
ENDBRANCH  21  25
ENDBRANCH   2  19
TORSDOF 6
