REMARK  Name = ZINC63513993
REMARK  9 active torsions:
REMARK  status: ('A' for Active; 'I' for Inactive)
REMARK    1  A    between atoms: C_1  and  C_2
REMARK    2  A    between atoms: C_6  and  N_8
REMARK    3  A    between atoms: C_13  and  C_34
REMARK    4  A    between atoms: C_16  and  C_21
REMARK    5  A    between atoms: C_16  and  C_31
REMARK    6  A    between atoms: C_21  and  C_22
REMARK    7  A    between atoms: C_38  and  O_41
REMARK    8  A    between atoms: C_39  and  O_40
REMARK    9  A    between atoms: O_41  and  C_42
REMARK                            x       y       z     vdW  Elec       q    Type
REMARK                         _______ _______ _______ _____ _____    ______ ____
ROOT
ATOM      1  N   UNL     1       0.226  -2.957   2.357  0.00  0.00    -0.210 N 
ATOM      2  C   UNL     1       0.194  -2.300   3.563  0.00  0.00    +0.229 C 
ATOM      3  O   UNL     1      -0.007  -1.121   3.757  0.00  0.00    -0.275 OA
ATOM      4  C   UNL     1       0.451  -3.323   4.546  0.00  0.00    +0.077 C 
ATOM      5  C   UNL     1       0.266  -3.591   5.983  0.00  0.00    -0.023 C 
ATOM      6  N   UNL     1       0.623  -5.048   6.080  0.00  0.00    +0.396 N 
ATOM      7  C   UNL     1       0.433  -5.656   4.728  0.00  0.00    +0.052 C 
ATOM      8  C   UNL     1      -0.276  -4.571   3.904  0.00  0.00    +0.086 C 
ATOM      9  C   UNL     1       0.185  -4.316   2.496  0.00  0.00    +0.229 C 
ATOM     10  O   UNL     1       0.465  -5.145   1.657  0.00  0.00    -0.275 OA
ATOM     11  H   UNL     1       1.585  -5.147   6.366  0.00  0.00    -0.083 HD
ATOM     12  H   UNL     1       0.018  -5.504   6.747  0.00  0.00    -0.083 HD
ENDROOT
BRANCH   1  18
ATOM     13  C   UNL     1       0.429   1.228  -0.218  0.00  0.00    +0.044 C 
ATOM     14  C   UNL     1       0.388  -0.277  -0.158  0.00  0.00    -0.049 A 
ATOM     15  C   UNL     1       0.411  -1.016  -1.327  0.00  0.00    +0.003 A 
ATOM     16  C   UNL     1       0.373  -2.397  -1.276  0.00  0.00    +0.002 A 
ATOM     17  C   UNL     1       0.311  -3.043  -0.057  0.00  0.00    +0.024 A 
ATOM     18  C   UNL     1       0.288  -2.304   1.118  0.00  0.00    +0.044 A 
ATOM     19  C   UNL     1       0.332  -0.917   1.064  0.00  0.00    +0.027 A 
ENDBRANCH   1  18
BRANCH   5  20
ATOM     20  C   UNL     1       1.204  -2.751   6.812  0.00  0.00    -0.015 A 
ATOM     21  C   UNL     1       2.288  -2.132   6.216  0.00  0.00    +0.006 A 
ATOM     22  C   UNL     1       3.150  -1.361   6.973  0.00  0.00    +0.004 A 
ATOM     23  C   UNL     1       2.933  -1.206   8.330  0.00  0.00    +0.049 A 
ATOM     24  C   UNL     1       1.849  -1.823   8.933  0.00  0.00    +0.161 A 
ATOM     25  C   UNL     1       0.977  -2.595   8.169  0.00  0.00    +0.160 A 
BRANCH  25  26
ATOM     26  O   UNL     1      -0.091  -3.198   8.756  0.00  0.00    -0.503 OA
ATOM     27  H   UNL     1       0.094  -4.087   9.090  0.00  0.00    +0.292 HD
ENDBRANCH  25  26
BRANCH  24  28
ATOM     28  O   UNL     1       1.634  -1.672  10.267  0.00  0.00    -0.491 OA
ATOM     29  C   UNL     1       2.566  -0.862  10.986  0.00  0.00    +0.277 C 
ENDBRANCH  24  28
ENDBRANCH   5  20
BRANCH   7  30
ATOM     30  C   UNL     1      -0.444  -6.878   4.824  0.00  0.00    +0.347 C 
ATOM     31  O   UNL     1      -0.861  -7.246   5.909  0.00  0.00    -0.248 OA
ATOM     32  O   UNL     1      -0.737  -7.498   3.816  0.00  0.00    -0.248 OA
ENDBRANCH   7  30
BRANCH   7  33
ATOM     33  C   UNL     1       1.787  -6.021   4.117  0.00  0.00    +0.033 C 
BRANCH  33  34
ATOM     34  C   UNL     1       2.474  -7.039   4.990  0.00  0.00    -0.042 C 
ATOM     35  C   UNL     1       2.457  -8.383   4.840  0.00  0.00    -0.001 A 
ATOM     36  C   UNL     1       1.816  -9.265   3.857  0.00  0.00    +0.010 A 
ATOM     37  C   UNL     1       1.983 -10.603   3.969  0.00  0.00    +0.001 A 
ATOM     38  C   UNL     1       2.751 -11.166   4.998  0.00  0.00    +0.002 A 
ATOM     39  C   UNL     1       3.370 -10.420   5.937  0.00  0.00    +0.026 A 
ATOM     40  C   UNL     1       3.263  -9.002   5.916  0.00  0.00    +0.043 A 
ATOM     41  N   UNL     1       3.759  -8.077   6.701  0.00  0.00    -0.380 N 
ATOM     42  C   UNL     1       3.329  -6.764   6.207  0.00  0.00    +0.144 C 
ATOM     43  H   UNL     1       4.321  -8.234   7.476  0.00  0.00    +0.160 HD
ENDBRANCH  33  34
ENDBRANCH   7  33
TORSDOF 7
