REMARK  Name = ZINC01132426
REMARK  8 active torsions:
REMARK  status: ('A' for Active; 'I' for Inactive)
REMARK    1  A    between atoms: C_1  and  C_2
REMARK    2  A    between atoms: C_2  and  O_3
REMARK    3  A    between atoms: O_3  and  C_4
REMARK    4  A    between atoms: C_6  and  C_12
REMARK    5  A    between atoms: C_9  and  O_10
REMARK    6  A    between atoms: C_15  and  C_26
REMARK    7  A    between atoms: C_21  and  N_25
REMARK    8  A    between atoms: C_22  and  C_23
REMARK                            x       y       z     vdW  Elec       q    Type
REMARK                         _______ _______ _______ _____ _____    ______ ____
ROOT
ATOM      1  C   UNL     1      -0.280  -4.989   0.557  0.00  0.00    +0.102 C 
ATOM      2  C   UNL     1       0.813  -5.931   0.993  0.00  0.00    +0.054 A 
ATOM      3  C   UNL     1       1.937  -5.676   1.785  0.00  0.00    +0.102 A 
ATOM      4  N   UNL     1       2.615  -6.801   1.902  0.00  0.00    -0.171 NA
ATOM      5  N   UNL     1       1.939  -7.801   1.186  0.00  0.00    -0.246 N 
ATOM      6  H   UNL     1       2.215  -8.727   1.101  0.00  0.00    +0.192 HD
ATOM      7  C   UNL     1       0.837  -7.248   0.638  0.00  0.00    +0.223 A 
ATOM      8  O   UNL     1      -0.123  -7.816  -0.134  0.00  0.00    -0.423 OA
ATOM      9  C   UNL     1      -1.262  -7.120  -0.327  0.00  0.00    +0.200 C 
ATOM     10  C   UNL     1      -1.403  -5.809  -0.027  0.00  0.00    +0.098 C 
ENDROOT
BRANCH   1  13
ATOM     11  C   UNL     1       0.657  -1.801  -1.241  0.00  0.00    +0.163 A 
ATOM     12  C   UNL     1       0.168  -2.676  -0.283  0.00  0.00    +0.054 A 
ATOM     13  C   UNL     1       0.253  -4.041  -0.486  0.00  0.00    -0.030 A 
ATOM     14  C   UNL     1       0.825  -4.537  -1.642  0.00  0.00    +0.023 A 
ATOM     15  C   UNL     1       1.316  -3.670  -2.602  0.00  0.00    +0.063 A 
ATOM     16  C   UNL     1       1.228  -2.300  -2.407  0.00  0.00    +0.173 A 
ATOM     17 BR   UNL     1       2.099  -4.353  -4.181  0.00  0.00    -0.046 Br
BRANCH  16  18
ATOM     18  O   UNL     1       1.705  -1.446  -3.352  0.00  0.00    -0.503 OA
ATOM     19  H   UNL     1       2.635  -1.208  -3.234  0.00  0.00    +0.292 HD
ENDBRANCH  16  18
BRANCH  11  20
ATOM     20  O   UNL     1       0.575  -0.458  -1.043  0.00  0.00    -0.489 OA
BRANCH  20  22
ATOM     21  C   UNL     1      -0.027   1.511   0.222  0.00  0.00    +0.048 C 
ATOM     22  C   UNL     1      -0.023  -0.018   0.178  0.00  0.00    +0.226 C 
ENDBRANCH  20  22
ENDBRANCH  11  20
ENDBRANCH   1  13
BRANCH   3  23
ATOM     23  C   UNL     1       2.302  -4.369   2.387  0.00  0.00    +0.021 A 
ATOM     24  C   UNL     1       1.348  -3.628   3.081  0.00  0.00    +0.011 A 
ATOM     25  C   UNL     1       1.693  -2.414   3.640  0.00  0.00    +0.001 A 
ATOM     26  C   UNL     1       2.983  -1.932   3.512  0.00  0.00    +0.001 A 
ATOM     27  C   UNL     1       3.935  -2.663   2.824  0.00  0.00    +0.020 A 
ATOM     28  C   UNL     1       3.602  -3.882   2.266  0.00  0.00    +0.050 A 
ATOM     29 CL   UNL     1       4.800  -4.801   1.409  0.00  0.00    -0.083 Cl
ENDBRANCH   3  23
BRANCH   9  30
ATOM     30  N   UNL     1      -2.341  -7.781  -0.859  0.00  0.00    -0.328 N 
ATOM     31  H   UNL     1      -2.271  -8.722  -1.085  0.00  0.00    +0.145 HD
ATOM     32  H   UNL     1      -3.174  -7.307  -1.010  0.00  0.00    +0.145 HD
ENDBRANCH   9  30
BRANCH  10  33
ATOM     33  C   UNL     1      -2.664  -5.176  -0.272  0.00  0.00    +0.101 C 
ATOM     34  N   UNL     1      -3.664  -4.674  -0.466  0.00  0.00    -0.191 NA
ENDBRANCH  10  33
TORSDOF 7
