REMARK  Name = ZINC64891187
REMARK  11 active torsions:
REMARK  status: ('A' for Active; 'I' for Inactive)
REMARK    1  A    between atoms: C_1  and  C_2
REMARK    2  A    between atoms: C_2  and  C_3
REMARK    3  A    between atoms: C_3  and  N_4
REMARK    4  A    between atoms: C_8  and  C_15
REMARK    5  A    between atoms: C_18  and  C_22
REMARK    6  A    between atoms: C_22  and  C_24
REMARK    7  A    between atoms: C_22  and  N_27
REMARK    8  A    between atoms: C_24  and  C_25
REMARK    9  A    between atoms: C_24  and  C_26
REMARK   10  A    between atoms: N_27  and  S_28
REMARK   11  A    between atoms: S_28  and  C_31
REMARK                            x       y       z     vdW  Elec       q    Type
REMARK                         _______ _______ _______ _____ _____    ______ ____
ROOT
ATOM      1  C   UNL     1      -1.102  -6.152  -4.113  0.00  0.00    +0.180 C 
ATOM      2  N   UNL     1      -1.833  -5.686  -5.311  0.00  0.00    -0.268 NA
ATOM      3  C   UNL     1      -3.150  -6.362  -5.282  0.00  0.00    +0.230 C 
ATOM      4  O   UNL     1      -2.936  -7.551  -4.488  0.00  0.00    -0.278 OA
ATOM      5  N   UNL     1      -2.015  -7.093  -3.422  0.00  0.00    -0.178 NA
ATOM      6  H   UNL     1      -1.942  -4.683  -5.301  0.00  0.00    +0.126 HD
ATOM      7  H   UNL     1      -1.504  -7.868  -3.027  0.00  0.00    +0.156 HD
ENDROOT
BRANCH   1  12
ATOM      8  N   UNL     1       0.084  -1.975  -0.513  0.00  0.00    -0.292 N 
ATOM      9  C   UNL     1      -0.186  -2.836  -1.574  0.00  0.00    +0.070 A 
ATOM     10  C   UNL     1      -0.259  -2.661  -2.947  0.00  0.00    +0.028 A 
ATOM     11  C   UNL     1      -0.555  -3.735  -3.763  0.00  0.00    +0.009 A 
ATOM     12  C   UNL     1      -0.780  -4.987  -3.215  0.00  0.00    -0.012 A 
ATOM     13  C   UNL     1      -0.710  -5.171  -1.848  0.00  0.00    +0.034 A 
ATOM     14  C   UNL     1      -0.412  -4.098  -1.021  0.00  0.00    +0.067 A 
ATOM     15  N   UNL     1      -0.273  -3.964   0.358  0.00  0.00    -0.306 N 
ATOM     16  H   UNL     1      -0.373  -4.675   1.011  0.00  0.00    +0.170 HD
ATOM     17  C   UNL     1       0.030  -2.681   0.632  0.00  0.00    +0.328 A 
ATOM     18  O   UNL     1       0.223  -2.228   1.744  0.00  0.00    -0.247 OA
BRANCH   8  19
ATOM     19  C   UNL     1       0.381  -0.544  -0.625  0.00  0.00    +0.127 C 
BRANCH  19  21
ATOM     20  C   UNL     1       2.201   1.145  -0.900  0.00  0.00    +0.005 C 
ATOM     21  C   UNL     1       1.890  -0.348  -0.783  0.00  0.00    +0.018 C 
ENDBRANCH  19  21
ENDBRANCH   8  19
ENDBRANCH   1  12
BRANCH   3  22
ATOM     22  C   UNL     1      -3.588  -6.737  -6.699  0.00  0.00    +0.125 C 
BRANCH  22  23
ATOM     23  C   UNL     1      -5.002  -7.320  -6.659  0.00  0.00    +0.005 C 
ATOM     24  C   UNL     1      -5.987  -6.239  -6.209  0.00  0.00    +0.009 C 
ATOM     25  C   UNL     1      -5.390  -7.815  -8.053  0.00  0.00    +0.009 C 
ENDBRANCH  22  23
BRANCH  22  26
ATOM     26  N   UNL     1      -3.577  -5.541  -7.546  0.00  0.00    -0.183 NA
ATOM     27  H   UNL     1      -4.194  -4.814  -7.366  0.00  0.00    +0.148 HD
BRANCH  26  28
ATOM     28  S   UNL     1      -2.512  -5.430  -8.809  0.00  0.00    +0.059 S 
ATOM     29  O   UNL     1      -2.754  -4.178  -9.436  0.00  0.00    -0.153 OA
ATOM     30  O   UNL     1      -1.237  -5.792  -8.297  0.00  0.00    -0.153 OA
BRANCH  28  31
ATOM     31  C   UNL     1      -2.957  -6.673  -9.976  0.00  0.00    +0.105 A 
ATOM     32  C   UNL     1      -2.361  -7.919  -9.920  0.00  0.00    +0.028 A 
ATOM     33  C   UNL     1      -2.711  -8.894 -10.836  0.00  0.00    +0.002 A 
ATOM     34  C   UNL     1      -3.656  -8.623 -11.807  0.00  0.00    +0.000 A 
ATOM     35  C   UNL     1      -4.252  -7.377 -11.863  0.00  0.00    +0.002 A 
ATOM     36  C   UNL     1      -3.906  -6.403 -10.944  0.00  0.00    +0.028 A 
ENDBRANCH  28  31
ENDBRANCH  26  28
ENDBRANCH  22  26
ENDBRANCH   3  22
TORSDOF 8
