REMARK  Name = ZINC64425063
REMARK  8 active torsions:
REMARK  status: ('A' for Active; 'I' for Inactive)
REMARK    1  A    between atoms: C_1  and  C_2
REMARK    2  A    between atoms: C_2  and  C_3
REMARK    3  A    between atoms: C_3  and  C_4
REMARK    4  A    between atoms: C_4  and  N_5
REMARK    5  A    between atoms: N_8  and  N_9
REMARK    6  A    between atoms: C_10  and  C_12
REMARK    7  A    between atoms: C_13  and  C_24
REMARK    8  A    between atoms: N_14  and  C_17
REMARK                            x       y       z     vdW  Elec       q    Type
REMARK                         _______ _______ _______ _____ _____    ______ ____
ROOT
ATOM      1  N   UNL     1       2.860  -3.411   4.614  0.00  0.00    -0.228 N 
ATOM      2  C   UNL     1       3.534  -3.845   5.697  0.00  0.00    +0.282 C 
ATOM      3  O   UNL     1       3.725  -5.035   5.857  0.00  0.00    -0.267 OA
ATOM      4  H   UNL     1       2.707  -2.461   4.486  0.00  0.00    +0.173 HD
ENDROOT
BRANCH   1   8
ATOM      5  N   UNL     1       1.492  -2.577   2.412  0.00  0.00    -0.298 N 
ATOM      6  C   UNL     1       1.703  -3.897   2.590  0.00  0.00    +0.316 C 
ATOM      7  O   UNL     1       1.285  -4.695   1.774  0.00  0.00    -0.251 OA
ATOM      8  N   UNL     1       2.378  -4.331   3.673  0.00  0.00    -0.218 N 
ATOM      9  H   UNL     1       1.825  -1.940   3.063  0.00  0.00    +0.150 HD
ATOM     10  H   UNL     1       2.530  -5.280   3.801  0.00  0.00    +0.174 HD
BRANCH   5  11
ATOM     11  C   UNL     1       0.758  -2.106   1.235  0.00  0.00    +0.106 C 
BRANCH  11  12
ATOM     12  C   UNL     1       0.658  -0.579   1.274  0.00  0.00    +0.018 C 
BRANCH  12  14
ATOM     13  C   UNL     1      -0.207   1.440   0.084  0.00  0.00    +0.004 C 
ATOM     14  C   UNL     1      -0.107  -0.086   0.045  0.00  0.00    -0.002 C 
ENDBRANCH  12  14
ENDBRANCH  11  12
ENDBRANCH   5  11
ENDBRANCH   1   8
BRANCH   2  15
ATOM     15  C   UNL     1       4.041  -2.876   6.687  0.00  0.00    +0.172 A 
ATOM     16  C   UNL     1       4.741  -3.184   7.819  0.00  0.00    +0.074 A 
ATOM     17  N   UNL     1       5.012  -2.015   8.440  0.00  0.00    -0.216 N 
ATOM     18  N   UNL     1       4.456  -0.999   7.651  0.00  0.00    -0.060 NA
ATOM     19  N   UNL     1       3.898  -1.541   6.625  0.00  0.00    -0.124 NA
ATOM     20  C   UNL     1       5.135  -4.562   8.285  0.00  0.00    +0.068 C 
BRANCH  17  21
ATOM     21  C   UNL     1       5.713  -1.851   9.643  0.00  0.00    +0.068 A 
ATOM     22  C   UNL     1       6.863  -2.592   9.885  0.00  0.00    +0.028 A 
ATOM     23  C   UNL     1       7.552  -2.427  11.071  0.00  0.00    +0.003 A 
ATOM     24  C   UNL     1       7.099  -1.526  12.017  0.00  0.00    +0.015 A 
ATOM     25  C   UNL     1       5.954  -0.787  11.779  0.00  0.00    +0.020 A 
ATOM     26  C   UNL     1       5.264  -0.943  10.592  0.00  0.00    +0.043 A 
ATOM     27 BR   UNL     1       5.337   0.443  13.076  0.00  0.00    -0.050 Br
ENDBRANCH  17  21
ENDBRANCH   2  15
TORSDOF 6
