REMARK  Name = ZINC54201094
REMARK  7 active torsions:
REMARK  status: ('A' for Active; 'I' for Inactive)
REMARK    1  A    between atoms: C_4  and  C_7
REMARK    2  A    between atoms: C_7  and  C_9
REMARK    3  A    between atoms: C_7  and  N_23
REMARK    4  A    between atoms: C_9  and  C_10
REMARK    5  A    between atoms: N_12  and  C_13
REMARK    6  A    between atoms: N_23  and  S_24
REMARK    7  A    between atoms: S_24  and  C_27
REMARK                            x       y       z     vdW  Elec       q    Type
REMARK                         _______ _______ _______ _____ _____    ______ ____
ROOT
ATOM      1  C   UNL     1       3.720  -0.691  -0.035  0.00  0.00    +0.115 C 
ENDROOT
BRANCH   1   5
ATOM      2  C   UNL     1       0.006   1.421   0.018  0.00  0.00    +0.000 A 
ATOM      3  C   UNL     1       1.199   2.120   0.009  0.00  0.00    +0.000 A 
ATOM      4  C   UNL     1       2.401   1.436  -0.008  0.00  0.00    +0.005 A 
ATOM      5  C   UNL     1       2.410   0.054  -0.015  0.00  0.00    -0.028 A 
ATOM      6  C   UNL     1       1.217  -0.645  -0.006  0.00  0.00    +0.005 A 
ATOM      7  C   UNL     1       0.015   0.038   0.009  0.00  0.00    +0.000 A 
ENDBRANCH   1   5
BRANCH   1   8
ATOM      8  N   UNL     1       3.611  -1.847  -0.927  0.00  0.00    -0.182 NA
ATOM      9  H   UNL     1       3.247  -2.683  -0.596  0.00  0.00    +0.149 HD
BRANCH   8  10
ATOM     10  S   UNL     1       4.109  -1.727  -2.502  0.00  0.00    +0.059 S 
ATOM     11  O   UNL     1       3.902  -3.004  -3.092  0.00  0.00    -0.153 OA
ATOM     12  O   UNL     1       3.522  -0.543  -3.025  0.00  0.00    -0.153 OA
BRANCH  10  13
ATOM     13  C   UNL     1       5.850  -1.459  -2.479  0.00  0.00    +0.105 A 
ATOM     14  C   UNL     1       6.350  -0.171  -2.431  0.00  0.00    +0.029 A 
ATOM     15  C   UNL     1       7.716   0.040  -2.412  0.00  0.00    +0.017 A 
ATOM     16  C   UNL     1       8.583  -1.038  -2.441  0.00  0.00    +0.018 A 
ATOM     17  C   UNL     1       8.082  -2.326  -2.488  0.00  0.00    +0.017 A 
ATOM     18  C   UNL     1       6.716  -2.537  -2.502  0.00  0.00    +0.029 A 
ATOM     19 BR   UNL     1      10.451  -0.750  -2.416  0.00  0.00    -0.050 Br
ENDBRANCH  10  13
ENDBRANCH   8  10
ENDBRANCH   1   8
BRANCH   1  20
ATOM     20  C   UNL     1       4.056  -1.168   1.380  0.00  0.00    +0.121 C 
BRANCH  20  21
ATOM     21  C   UNL     1       5.421  -1.805   1.384  0.00  0.00    +0.219 C 
ATOM     22  O   UNL     1       6.063  -1.871   0.356  0.00  0.00    -0.275 OA
ATOM     23  N   UNL     1       5.930  -2.302   2.529  0.00  0.00    -0.285 N 
ATOM     24  H   UNL     1       5.446  -2.191   3.362  0.00  0.00    +0.155 HD
BRANCH  23  25
ATOM     25  C   UNL     1       7.153  -2.975   2.515  0.00  0.00    +0.041 A 
ATOM     26  C   UNL     1       8.154  -2.581   1.654  0.00  0.00    +0.024 A 
ATOM     27  C   UNL     1       9.377  -3.246   1.633  0.00  0.00    +0.002 A 
ATOM     28  C   UNL     1       9.618  -4.301   2.459  0.00  0.00    +0.008 A 
ATOM     29  C   UNL     1       8.623  -4.734   3.352  0.00  0.00    -0.016 A 
ATOM     30  C   UNL     1       7.376  -4.062   3.387  0.00  0.00    +0.003 A 
ATOM     31  C   UNL     1       6.386  -4.493   4.283  0.00  0.00    +0.010 A 
ATOM     32  C   UNL     1       6.636  -5.546   5.109  0.00  0.00    +0.001 A 
ATOM     33  C   UNL     1       7.864  -6.204   5.080  0.00  0.00    +0.001 A 
ATOM     34  C   UNL     1       8.844  -5.820   4.216  0.00  0.00    +0.008 A 
ENDBRANCH  23  25
ENDBRANCH  20  21
ENDBRANCH   1  20
TORSDOF 7
