REMARK  Name = ZINC39695114
REMARK  5 active torsions:
REMARK  status: ('A' for Active; 'I' for Inactive)
REMARK    1  A    between atoms: C_1  and  C_2
REMARK    2  A    between atoms: C_3  and  C_9
REMARK    3  A    between atoms: C_9  and  N_10
REMARK    4  A    between atoms: C_11  and  C_13
REMARK    5  A    between atoms: C_24  and  C_26
REMARK                            x       y       z     vdW  Elec       q    Type
REMARK                         _______ _______ _______ _____ _____    ______ ____
ROOT
ATOM      1  C   UNL     1       3.386   1.488  -4.522  0.00  0.00    +0.100 C 
ATOM      2  C   UNL     1       3.631   2.545  -3.421  0.00  0.00    +0.121 C 
ATOM      3  N   UNL     1       4.285   3.673  -4.125  0.00  0.00    -0.296 N 
ATOM      4  C   UNL     1       3.578   3.756  -5.425  0.00  0.00    +0.115 C 
ATOM      5  C   UNL     1       3.350   2.288  -5.835  0.00  0.00    -0.004 C 
ATOM      6  C   UNL     1       1.991   2.134  -6.511  0.00  0.00    -0.010 C 
ATOM      7  C   UNL     1       2.000   2.889  -7.843  0.00  0.00    -0.082 C 
ATOM      8  N   UNL     1       3.061   2.353  -8.704  0.00  0.00    +0.379 N 
ATOM      9  C   UNL     1       4.372   2.589  -8.089  0.00  0.00    -0.082 C 
ATOM     10  C   UNL     1       4.464   1.821  -6.768  0.00  0.00    -0.010 C 
ATOM     11  C   UNL     1       5.294   4.449  -3.682  0.00  0.00    +0.248 C 
ATOM     12  O   UNL     1       5.663   5.403  -4.342  0.00  0.00    -0.270 OA
ATOM     13  H   UNL     1       2.922   1.362  -8.829  0.00  0.00    -0.086 HD
ATOM     14  H   UNL     1       3.025   2.811  -9.603  0.00  0.00    -0.086 HD
ENDROOT
BRANCH  11  15
ATOM     15  C   UNL     1       5.949   4.144  -2.404  0.00  0.00    +0.052 A 
ATOM     16  C   UNL     1       5.246   3.628  -1.363  0.00  0.00    +0.059 A 
ATOM     17  S   UNL     1       6.360   3.436  -0.124  0.00  0.00    -0.096 S 
ATOM     18  C   UNL     1       7.824   4.032  -0.923  0.00  0.00    +0.020 A 
ATOM     19  C   UNL     1       7.382   4.381  -2.214  0.00  0.00    +0.001 A 
ATOM     20  C   UNL     1       8.341   4.894  -3.108  0.00  0.00    +0.010 A 
ATOM     21  C   UNL     1       9.649   5.035  -2.717  0.00  0.00    +0.001 A 
ATOM     22  C   UNL     1      10.061   4.679  -1.441  0.00  0.00    +0.001 A 
ATOM     23  C   UNL     1       9.139   4.183  -0.539  0.00  0.00    +0.015 A 
ENDBRANCH  11  15
BRANCH   1  25
ATOM     24  N   UNL     1       1.897  -0.478  -4.715  0.00  0.00    -0.311 N 
ATOM     25  C   UNL     1       2.069   0.792  -4.296  0.00  0.00    +0.218 C 
ATOM     26  O   UNL     1       1.163   1.373  -3.737  0.00  0.00    -0.275 OA
ATOM     27  H   UNL     1       2.621  -0.943  -5.162  0.00  0.00    +0.149 HD
BRANCH  24  28
ATOM     28  C   UNL     1       0.617  -1.155  -4.495  0.00  0.00    +0.139 C 
BRANCH  28  31
ATOM     29  C   UNL     1       1.904  -3.252  -2.981  0.00  0.00    +0.045 C 
ATOM     30  C   UNL     1       1.302  -3.557  -4.329  0.00  0.00    -0.027 A 
ATOM     31  C   UNL     1       0.686  -2.553  -5.053  0.00  0.00    -0.026 A 
ATOM     32  C   UNL     1       0.133  -2.832  -6.289  0.00  0.00    +0.005 A 
ATOM     33  C   UNL     1       0.196  -4.115  -6.801  0.00  0.00    +0.002 A 
ATOM     34  C   UNL     1       0.811  -5.119  -6.078  0.00  0.00    +0.020 A 
ATOM     35  C   UNL     1       1.369  -4.839  -4.843  0.00  0.00    +0.044 A 
ATOM     36 CL   UNL     1       2.148  -6.098  -3.937  0.00  0.00    -0.083 Cl
ENDBRANCH  28  31
ENDBRANCH  24  28
ENDBRANCH   1  25
TORSDOF 4
