REMARK  Name = ZINC40323888
REMARK  6 active torsions:
REMARK  status: ('A' for Active; 'I' for Inactive)
REMARK    1  A    between atoms: C_1  and  C_2
REMARK    2  A    between atoms: C_7  and  C_8
REMARK    3  A    between atoms: C_7  and  C_9
REMARK    4  A    between atoms: C_11  and  N_13
REMARK    5  A    between atoms: N_13  and  S_14
REMARK    6  A    between atoms: S_14  and  C_17
REMARK                            x       y       z     vdW  Elec       q    Type
REMARK                         _______ _______ _______ _____ _____    ______ ____
ROOT
ATOM      1  N   UNL     1      -0.211  -0.792  -2.462  0.00  0.00    -0.186 NA
ATOM      2  H   UNL     1      -1.075  -1.234  -2.492  0.00  0.00    +0.148 HD
ENDROOT
BRANCH   1  12
ATOM      3  C   UNL     1       0.136   1.146   0.150  0.00  0.00    +0.013 C 
ATOM      4  C   UNL     1      -0.002  -0.368  -0.024  0.00  0.00    -0.010 C 
ATOM      5  C   UNL     1      -1.458  -0.925  -0.017  0.00  0.00    +0.009 C 
ATOM      6  C   UNL     1      -1.299  -2.428   0.311  0.00  0.00    +0.005 C 
ATOM      7  C   UNL     1       0.238  -2.636   0.472  0.00  0.00    -0.003 C 
ATOM      8  C   UNL     1       0.654  -1.256   1.092  0.00  0.00    -0.025 C 
ATOM      9  C   UNL     1       0.012  -1.024   2.461  0.00  0.00    +0.012 C 
ATOM     10  C   UNL     1       2.174  -1.085   1.142  0.00  0.00    +0.012 C 
ATOM     11  C   UNL     1       0.802  -2.507  -0.976  0.00  0.00    +0.025 C 
ATOM     12  C   UNL     1       0.662  -0.971  -1.299  0.00  0.00    +0.083 C 
ENDBRANCH   1  12
BRANCH   1  13
ATOM     13  S   UNL     1       0.276   0.162  -3.725  0.00  0.00    +0.063 S 
ATOM     14  O   UNL     1      -0.758   0.106  -4.699  0.00  0.00    -0.153 OA
ATOM     15  O   UNL     1       0.724   1.386  -3.159  0.00  0.00    -0.153 OA
BRANCH  13  16
ATOM     16  C   UNL     1       1.688  -0.607  -4.445  0.00  0.00    +0.164 A 
ATOM     17  C   UNL     1       2.942  -0.100  -4.475  0.00  0.00    +0.135 A 
ATOM     18  N   UNL     1       3.732  -0.989  -5.113  0.00  0.00    -0.281 N 
ATOM     19  H   UNL     1       4.682  -0.889  -5.281  0.00  0.00    +0.188 HD
ATOM     20  N   UNL     1       2.941  -2.082  -5.489  0.00  0.00    -0.157 NA
ATOM     21  C   UNL     1       1.713  -1.857  -5.084  0.00  0.00    +0.164 A 
ATOM     22  N   UNL     1       0.620  -2.713  -5.260  0.00  0.00    -0.340 N 
ATOM     23  H   UNL     1      -0.238  -2.492  -4.864  0.00  0.00    +0.144 HD
ATOM     24  H   UNL     1       0.719  -3.527  -5.778  0.00  0.00    +0.144 HD
ENDBRANCH  13  16
ENDBRANCH   1  13
TORSDOF 3
