REMARK  Name = ZINC08790423
REMARK  7 active torsions:
REMARK  status: ('A' for Active; 'I' for Inactive)
REMARK    1  A    between atoms: C_1  and  C_2
REMARK    2  A    between atoms: C_16  and  C_18
REMARK    3  A    between atoms: C_18  and  C_19
REMARK    4  A    between atoms: C_19  and  C_20
REMARK    5  A    between atoms: N_25  and  C_28
REMARK    6  A    between atoms: C_28  and  C_29
REMARK    7  A    between atoms: C_29  and  C_30
REMARK                            x       y       z     vdW  Elec       q    Type
REMARK                         _______ _______ _______ _____ _____    ______ ____
ROOT
ATOM      1  C   UNL     1       5.823  11.486  -0.725  0.00  0.00    +0.045 C 
ATOM      2  C   UNL     1       4.416  11.288  -0.223  0.00  0.00    -0.029 A 
ATOM      3  C   UNL     1       3.692  12.369   0.238  0.00  0.00    +0.005 A 
ATOM      4  C   UNL     1       2.401  12.198   0.702  0.00  0.00    +0.001 A 
ATOM      5  C   UNL     1       1.831  10.937   0.703  0.00  0.00    +0.004 A 
ATOM      6  C   UNL     1       2.549   9.856   0.243  0.00  0.00    -0.027 A 
ATOM      7  C   UNL     1       3.850  10.016  -0.225  0.00  0.00    +0.039 A 
ATOM      8  N   UNL     1       4.370   8.786  -0.635  0.00  0.00    -0.286 N 
ATOM      9  C   UNL     1       3.487   7.782  -0.471  0.00  0.00    +0.211 C 
ATOM     10  O   UNL     1       3.663   6.612  -0.739  0.00  0.00    -0.277 OA
ATOM     11  C   UNL     1       2.241   8.392   0.109  0.00  0.00    +0.050 C 
ATOM     12  C   UNL     1       1.885   7.765   1.462  0.00  0.00    +0.088 C 
ATOM     13  C   UNL     1       0.331   7.743   1.485  0.00  0.00    +0.073 C 
ATOM     14  C   UNL     1      -0.094   8.367   0.139  0.00  0.00    -0.057 C 
ATOM     15  C   UNL     1       0.002   6.268   1.477  0.00  0.00    +0.224 C 
ATOM     16  O   UNL     1      -1.116   5.799   1.484  0.00  0.00    -0.275 OA
ATOM     17  N   UNL     1       1.137   5.560   1.463  0.00  0.00    -0.241 N 
ATOM     18  C   UNL     1       2.253   6.298   1.461  0.00  0.00    +0.225 C 
ATOM     19  O   UNL     1       3.383   5.860   1.457  0.00  0.00    -0.275 OA
ATOM     20  H   UNL     1       5.263   8.669  -0.995  0.00  0.00    +0.155 HD
ATOM     21  N   UNL     1       1.072   8.173  -0.725  0.00  0.00    +0.394 N 
ATOM     22  H   UNL     1       1.079   7.219  -1.104  0.00  0.00    -0.083 HD
ATOM     23  H   UNL     1       1.057   8.848  -1.499  0.00  0.00    -0.083 HD
ENDROOT
BRANCH  14  24
ATOM     24  C   UNL     1      -1.326   7.648  -0.416  0.00  0.00    -0.006 C 
BRANCH  24  25
ATOM     25  C   UNL     1      -1.804   8.359  -1.684  0.00  0.00    +0.094 C 
BRANCH  25  26
ATOM     26  C   UNL     1      -3.016   7.651  -2.230  0.00  0.00    +0.210 C 
ATOM     27  O   UNL     1      -3.455   6.674  -1.662  0.00  0.00    -0.276 OA
ATOM     28  N   UNL     1      -3.613   8.104  -3.350  0.00  0.00    -0.329 N 
ATOM     29  H   UNL     1      -3.262   8.885  -3.805  0.00  0.00    +0.145 HD
ATOM     30  H   UNL     1      -4.394   7.648  -3.702  0.00  0.00    +0.145 HD
ENDBRANCH  25  26
ENDBRANCH  24  25
ENDBRANCH  14  24
BRANCH  17  31
ATOM     31  C   UNL     1       1.157   4.095   1.455  0.00  0.00    +0.121 C 
BRANCH  31  32
ATOM     32  C   UNL     1       1.151   3.592   0.010  0.00  0.00    +0.054 C 
BRANCH  32  33
ATOM     33  C   UNL     1       1.171   2.086   0.002  0.00  0.00    -0.046 A 
ATOM     34  C   UNL     1      -0.017   1.378   0.010  0.00  0.00    +0.004 A 
ATOM     35  C   UNL     1       0.002  -0.004   0.002  0.00  0.00    +0.000 A 
ATOM     36  C   UNL     1       1.208  -0.679  -0.014  0.00  0.00    +0.000 A 
ATOM     37  C   UNL     1       2.396   0.029  -0.022  0.00  0.00    +0.000 A 
ATOM     38  C   UNL     1       2.377   1.411  -0.014  0.00  0.00    +0.004 A 
ENDBRANCH  32  33
ENDBRANCH  31  32
ENDBRANCH  17  31
TORSDOF 6
