REMARK  Name = ZINC44020237
REMARK  8 active torsions:
REMARK  status: ('A' for Active; 'I' for Inactive)
REMARK    1  A    between atoms: C_1  and  C_2
REMARK    2  A    between atoms: C_2  and  C_3
REMARK    3  A    between atoms: C_6  and  O_29
REMARK    4  A    between atoms: C_25  and  C_26
REMARK    5  A    between atoms: C_25  and  O_28
REMARK    6  A    between atoms: C_26  and  C_27
REMARK    7  A    between atoms: O_29  and  C_30
REMARK    8  A    between atoms: C_35  and  N_38
REMARK                            x       y       z     vdW  Elec       q    Type
REMARK                         _______ _______ _______ _____ _____    ______ ____
ROOT
ATOM      1  C   UNL     1       0.707  -0.712  -1.240  0.00  0.00    -0.031 A 
ATOM      2  C   UNL     1      -0.005  -0.836  -2.451  0.00  0.00    +0.007 A 
ATOM      3  C   UNL     1      -1.391  -0.636  -2.504  0.00  0.00    +0.056 A 
ATOM      4  C   UNL     1      -2.047  -0.765  -3.696  0.00  0.00    +0.134 A 
ATOM      5  C   UNL     1      -1.351  -1.096  -4.863  0.00  0.00    +0.048 A 
ATOM      6  C   UNL     1      -0.007  -1.296  -4.844  0.00  0.00    +0.032 A 
ATOM      7  C   UNL     1       0.703  -1.172  -3.634  0.00  0.00    +0.072 A 
ATOM      8  N   UNL     1       2.022  -1.366  -3.592  0.00  0.00    -0.245 NA
ATOM      9  C   UNL     1       2.701  -1.253  -2.461  0.00  0.00    +0.093 A 
ATOM     10  C   UNL     1       2.051  -0.916  -1.261  0.00  0.00    +0.003 A 
ATOM     11  C   UNL     1       3.110  -0.866  -0.191  0.00  0.00    +0.163 C 
ATOM     12  N   UNL     1       4.384  -1.184  -0.849  0.00  0.00    -0.302 N 
ATOM     13  C   UNL     1       4.145  -1.420  -2.173  0.00  0.00    +0.071 A 
ATOM     14  C   UNL     1       5.190  -1.750  -3.010  0.00  0.00    +0.035 A 
ATOM     15  C   UNL     1       6.493  -1.846  -2.505  0.00  0.00    +0.008 A 
ATOM     16  C   UNL     1       6.719  -1.610  -1.185  0.00  0.00    +0.061 A 
ATOM     17  C   UNL     1       5.633  -1.273  -0.352  0.00  0.00    +0.259 A 
ATOM     18  O   UNL     1       5.823  -1.079   0.838  0.00  0.00    -0.267 OA
ATOM     19  C   UNL     1       8.098  -1.659  -0.583  0.00  0.00    +0.273 C 
ATOM     20  O   UNL     1       9.004  -2.346  -1.447  0.00  0.00    -0.457 OA
ATOM     21  C   UNL     1       8.932  -1.990  -2.749  0.00  0.00    +0.344 C 
ATOM     22  O   UNL     1       9.878  -1.510  -3.328  0.00  0.00    -0.247 OA
ATOM     23  C   UNL     1       7.611  -2.223  -3.445  0.00  0.00    +0.188 C 
ENDROOT
BRANCH   1  25
ATOM     24  C   UNL     1      -0.032   1.166   0.202  0.00  0.00    +0.009 C 
ATOM     25  C   UNL     1      -0.002  -0.356   0.042  0.00  0.00    +0.033 C 
ENDBRANCH   1  25
BRANCH  23  26
ATOM     26  C   UNL     1       7.485  -3.699  -3.827  0.00  0.00    +0.048 C 
ATOM     27  C   UNL     1       8.688  -4.110  -4.679  0.00  0.00    +0.007 C 
ENDBRANCH  23  26
BRANCH  23  28
ATOM     28  O   UNL     1       7.540  -1.414  -4.621  0.00  0.00    -0.373 OA
ATOM     29  H   UNL     1       8.231  -1.603  -5.271  0.00  0.00    +0.211 HD
ENDBRANCH  23  28
BRANCH   4  30
ATOM     30  O   UNL     1      -3.391  -0.571  -3.747  0.00  0.00    -0.411 OA
BRANCH  30  31
ATOM     31  C   UNL     1      -4.178  -1.644  -3.958  0.00  0.00    +0.408 C 
ATOM     32  O   UNL     1      -3.691  -2.757  -3.988  0.00  0.00    -0.226 OA
ATOM     33  N   UNL     1      -5.504  -1.483  -4.136  0.00  0.00    -0.267 N 
ATOM     34  C   UNL     1      -6.106  -0.142  -4.108  0.00  0.00    +0.109 C 
ATOM     35  C   UNL     1      -6.917   0.060  -5.392  0.00  0.00    +0.003 C 
ATOM     36  C   UNL     1      -7.928  -1.080  -5.537  0.00  0.00    -0.072 C 
ATOM     37  C   UNL     1      -7.184  -2.413  -5.641  0.00  0.00    +0.003 C 
ATOM     38  C   UNL     1      -6.375  -2.643  -4.367  0.00  0.00    +0.109 C 
BRANCH  36  39
ATOM     39  N   UNL     1      -8.730  -0.871  -6.750  0.00  0.00    +0.380 N 
ATOM     40  H   UNL     1      -8.123  -0.855  -7.556  0.00  0.00    -0.090 HD
ATOM     41  H   UNL     1      -9.396  -1.623  -6.846  0.00  0.00    -0.090 HD
ATOM     42  H   UNL     1      -9.221   0.007  -6.681  0.00  0.00    -0.090 HD
ENDBRANCH  36  39
ENDBRANCH  30  31
ENDBRANCH   4  30
TORSDOF 6
