REMARK  Name = ZINC16010290
REMARK  5 active torsions:
REMARK  status: ('A' for Active; 'I' for Inactive)
REMARK    1  A    between atoms: C_12  and  C_15
REMARK    2  A    between atoms: C_15  and  C_16
REMARK    3  A    between atoms: C_16  and  C_17
REMARK    4  A    between atoms: N_22  and  C_25
REMARK    5  A    between atoms: C_27  and  C_32
REMARK                            x       y       z     vdW  Elec       q    Type
REMARK                         _______ _______ _______ _____ _____    ______ ____
ROOT
ATOM      1  C   UNL     1      -0.017   1.379   0.010  0.00  0.00    +0.000 A 
ATOM      2  C   UNL     1       1.174   2.084   0.002  0.00  0.00    +0.002 A 
ATOM      3  C   UNL     1       2.379   1.414  -0.014  0.00  0.00    +0.023 A 
ATOM      4  C   UNL     1       2.407   0.021  -0.021  0.00  0.00    +0.039 A 
ATOM      5  C   UNL     1       1.204  -0.677  -0.013  0.00  0.00    +0.003 A 
ATOM      6  C   UNL     1       0.002  -0.004   0.002  0.00  0.00    +0.008 A 
ATOM      7  C   UNL     1       1.573  -2.133  -0.024  0.00  0.00    +0.136 C 
ATOM      8  C   UNL     1       0.990  -2.851  -1.247  0.00  0.00    +0.123 C 
ATOM      9  C   UNL     1       0.619  -4.268  -0.729  0.00  0.00    +0.107 C 
ATOM     10  C   UNL     1       1.050  -4.274   0.753  0.00  0.00    +0.068 C 
ATOM     11  N   UNL     1       1.034  -2.836   1.155  0.00  0.00    -0.295 NA
ATOM     12  C   UNL     1      -0.889  -4.293  -0.827  0.00  0.00    +0.232 C 
ATOM     13  O   UNL     1      -1.597  -5.223  -0.505  0.00  0.00    -0.274 OA
ATOM     14  N   UNL     1      -1.321  -3.127  -1.322  0.00  0.00    -0.208 N 
ATOM     15  C   UNL     1      -0.344  -2.236  -1.607  0.00  0.00    +0.233 C 
ATOM     16  O   UNL     1      -0.502  -1.127  -2.072  0.00  0.00    -0.274 OA
ATOM     17  C   UNL     1       3.077  -2.155  -0.039  0.00  0.00    +0.243 C 
ATOM     18  O   UNL     1       3.787  -3.138  -0.050  0.00  0.00    -0.273 OA
ATOM     19  N   UNL     1       3.482  -0.870  -0.037  0.00  0.00    -0.283 N 
ATOM     20  H   UNL     1       1.617  -2.685   1.964  0.00  0.00    +0.123 HD
ATOM     21  H   UNL     1       4.413  -0.596  -0.046  0.00  0.00    +0.155 HD
ENDROOT
BRANCH  14  22
ATOM     22  C   UNL     1      -2.679  -2.851  -1.536  0.00  0.00    +0.063 A 
ATOM     23  C   UNL     1      -3.437  -2.267  -0.531  0.00  0.00    +0.037 A 
ATOM     24  C   UNL     1      -4.775  -1.996  -0.745  0.00  0.00    +0.057 A 
ATOM     25  C   UNL     1      -5.360  -2.307  -1.958  0.00  0.00    +0.014 A 
ATOM     26  C   UNL     1      -4.609  -2.889  -2.962  0.00  0.00    +0.022 A 
ATOM     27  C   UNL     1      -3.268  -3.157  -2.757  0.00  0.00    +0.063 A 
ATOM     28 CL   UNL     1      -2.323  -3.882  -4.020  0.00  0.00    -0.082 Cl
BRANCH  24  29
ATOM     29  C   UNL     1      -5.598  -1.361   0.347  0.00  0.00    +0.417 C 
ATOM     30  F   UNL     1      -5.537   0.032   0.226  0.00  0.00    -0.166 F 
ATOM     31  F   UNL     1      -6.927  -1.781   0.233  0.00  0.00    -0.166 F 
ATOM     32  F   UNL     1      -5.093  -1.744   1.594  0.00  0.00    -0.166 F 
ENDBRANCH  24  29
ENDBRANCH  14  22
BRANCH  10  33
ATOM     33  C   UNL     1       0.044  -5.060   1.597  0.00  0.00    +0.028 C 
BRANCH  33  34
ATOM     34  C   UNL     1       0.553  -5.159   3.036  0.00  0.00    +0.097 C 
BRANCH  34  35
ATOM     35  C   UNL     1      -0.438  -5.933   3.867  0.00  0.00    +0.211 C 
ATOM     36  O   UNL     1      -1.452  -6.362   3.358  0.00  0.00    -0.276 OA
ATOM     37  N   UNL     1      -0.198  -6.147   5.176  0.00  0.00    -0.329 N 
ATOM     38  H   UNL     1       0.612  -5.803   5.583  0.00  0.00    +0.145 HD
ATOM     39  H   UNL     1      -0.836  -6.645   5.711  0.00  0.00    +0.145 HD
ENDBRANCH  34  35
ENDBRANCH  33  34
ENDBRANCH  10  33
TORSDOF 5
