REMARK  Name = ZINC22060177
REMARK  10 active torsions:
REMARK  status: ('A' for Active; 'I' for Inactive)
REMARK    1  A    between atoms: C_1  and  C_2
REMARK    2  A    between atoms: C_2  and  C_24
REMARK    3  A    between atoms: N_5  and  N_9
REMARK    4  A    between atoms: C_10  and  C_12
REMARK    5  A    between atoms: C_12  and  N_13
REMARK    6  A    between atoms: N_13  and  C_14
REMARK    7  A    between atoms: N_13  and  C_15
REMARK    8  A    between atoms: C_15  and  C_16
REMARK    9  A    between atoms: C_27  and  O_30
REMARK   10  A    between atoms: O_30  and  C_31
REMARK                            x       y       z     vdW  Elec       q    Type
REMARK                         _______ _______ _______ _____ _____    ______ ____
ROOT
ATOM      1  C   UNL     1       5.486  -1.407  -7.634  0.00  0.00    +0.047 C 
ATOM      2  C   UNL     1       5.826  -2.263  -6.412  0.00  0.00    +0.137 C 
ATOM      3  C   UNL     1       6.084  -1.387  -5.202  0.00  0.00    +0.267 C 
ATOM      4  O   UNL     1       6.950  -0.548  -5.077  0.00  0.00    -0.271 OA
ATOM      5  N   UNL     1       5.150  -1.734  -4.295  0.00  0.00    -0.137 N 
ATOM      6  C   UNL     1       4.349  -2.701  -4.757  0.00  0.00    +0.327 C 
ATOM      7  O   UNL     1       3.433  -3.182  -4.118  0.00  0.00    -0.251 OA
ATOM      8  N   UNL     1       4.667  -3.078  -6.008  0.00  0.00    -0.280 N 
ATOM      9  H   UNL     1       4.247  -3.819  -6.704  0.00  0.00    +0.152 HD
ENDROOT
BRANCH   2  10
ATOM     10  C   UNL     1       7.018  -3.140  -6.696  0.00  0.00    -0.015 A 
ATOM     11  C   UNL     1       8.290  -2.701  -6.376  0.00  0.00    +0.010 A 
ATOM     12  C   UNL     1       9.384  -3.505  -6.630  0.00  0.00    +0.046 A 
ATOM     13  C   UNL     1       9.207  -4.750  -7.217  0.00  0.00    +0.120 A 
ATOM     14  C   UNL     1       7.930  -5.186  -7.542  0.00  0.00    +0.046 A 
ATOM     15  C   UNL     1       6.839  -4.380  -7.281  0.00  0.00    +0.010 A 
BRANCH  13  16
ATOM     16  O   UNL     1      10.282  -5.541  -7.473  0.00  0.00    -0.495 OA
ATOM     17  C   UNL     1      11.566  -5.027  -7.111  0.00  0.00    +0.277 C 
ENDBRANCH  13  16
ENDBRANCH   2  10
BRANCH   5  18
ATOM     18  N   UNL     1       5.035  -1.157  -3.023  0.00  0.00    -0.225 N 
ATOM     19  C   UNL     1       4.048  -0.276  -2.770  0.00  0.00    +0.213 C 
ATOM     20  O   UNL     1       3.259   0.019  -3.642  0.00  0.00    -0.276 OA
ATOM     21  H   UNL     1       5.752  -1.424  -2.232  0.00  0.00    +0.173 HD
BRANCH  19  22
ATOM     22  C   UNL     1       3.925   0.345  -1.402  0.00  0.00    +0.020 C 
BRANCH  22  23
ATOM     23  N   UNL     1       2.779   1.263  -1.382  0.00  0.00    +0.386 N 
ATOM     24  C   UNL     1       3.010   2.412  -2.267  0.00  0.00    -0.095 C 
ATOM     25  H   UNL     1       1.901   0.717  -1.759  0.00  0.00    -0.081 HD
BRANCH  23  26
ATOM     26  C   UNL     1       2.482   1.705  -0.013  0.00  0.00    -0.041 C 
BRANCH  26  27
ATOM     27  C   UNL     1       1.167   2.440   0.004  0.00  0.00    -0.044 A 
ATOM     28  C   UNL     1       1.147   3.822   0.011  0.00  0.00    +0.003 A 
ATOM     29  C   UNL     1      -0.059   4.497   0.026  0.00  0.00    +0.002 A 
ATOM     30  C   UNL     1      -1.247   3.791   0.034  0.00  0.00    +0.021 A 
ATOM     31  C   UNL     1      -1.230   2.408   0.021  0.00  0.00    +0.059 A 
ATOM     32  C   UNL     1      -0.021   1.732   0.012  0.00  0.00    +0.061 A 
ATOM     33 CL   UNL     1       0.002  -0.004   0.002  0.00  0.00    -0.082 Cl
ATOM     34 CL   UNL     1      -2.722   1.521   0.024  0.00  0.00    -0.082 Cl
ENDBRANCH  26  27
ENDBRANCH  23  26
ENDBRANCH  22  23
ENDBRANCH  19  22
ENDBRANCH   5  18
TORSDOF 7
