REMARK  Name = ZINC39404341
REMARK  10 active torsions:
REMARK  status: ('A' for Active; 'I' for Inactive)
REMARK    1  A    between atoms: C_1  and  C_2
REMARK    2  A    between atoms: C_2  and  O_3
REMARK    3  A    between atoms: O_3  and  C_4
REMARK    4  A    between atoms: C_4  and  C_6
REMARK    5  A    between atoms: C_8  and  N_17
REMARK    6  A    between atoms: C_18  and  C_20
REMARK    7  A    between atoms: C_20  and  S_21
REMARK    8  A    between atoms: S_21  and  C_22
REMARK    9  A    between atoms: N_28  and  N_29
REMARK   10  A    between atoms: C_30  and  C_31
REMARK                            x       y       z     vdW  Elec       q    Type
REMARK                         _______ _______ _______ _____ _____    ______ ____
ROOT
ATOM      1  C   UNL     1      -2.087  -1.766  -4.727  0.00  0.00    +0.168 C 
ENDROOT
BRANCH   1   3
ATOM      2  N   UNL     1      -2.737  -1.643  -2.344  0.00  0.00    -0.301 N 
ATOM      3  C   UNL     1      -3.025  -2.073  -3.588  0.00  0.00    +0.224 C 
ATOM      4  O   UNL     1      -4.038  -2.708  -3.791  0.00  0.00    -0.275 OA
ATOM      5  H   UNL     1      -1.926  -1.135  -2.181  0.00  0.00    +0.150 HD
BRANCH   2   7
ATOM      6  C   UNL     1      -2.881  -2.427   0.017  0.00  0.00    +0.155 C 
ATOM      7  C   UNL     1      -3.649  -1.941  -1.236  0.00  0.00    +0.153 C 
ATOM      8  S   UNL     1      -4.638  -3.460  -1.564  0.00  0.00    -0.106 S 
ATOM      9  C   UNL     1      -3.614  -4.627  -0.699  0.00  0.00    -0.013 C 
ATOM     10  C   UNL     1      -2.771  -3.930   0.050  0.00  0.00    -0.044 C 
ATOM     11  C   UNL     1      -1.727  -4.632   0.916  0.00  0.00    +0.032 C 
ATOM     12  C   UNL     1      -2.142  -6.088   1.122  0.00  0.00    +0.005 C 
ATOM     13  C   UNL     1      -2.421  -6.737  -0.238  0.00  0.00    +0.005 C 
ATOM     14  C   UNL     1      -3.701  -6.123  -0.811  0.00  0.00    +0.042 C 
BRANCH   6  15
ATOM     15  C   UNL     1      -1.496  -1.832   0.006  0.00  0.00    +0.317 C 
ATOM     16  O   UNL     1      -0.528  -2.555  -0.007  0.00  0.00    -0.250 OA
BRANCH  15  17
ATOM     17  O   UNL     1      -1.339  -0.499   0.012  0.00  0.00    -0.464 OA
BRANCH  17  19
ATOM     18  C   UNL     1      -0.019   1.526   0.010  0.00  0.00    +0.048 C 
ATOM     19  C   UNL     1       0.002  -0.004   0.002  0.00  0.00    +0.229 C 
ENDBRANCH  17  19
ENDBRANCH  15  17
ENDBRANCH   6  15
ENDBRANCH   2   7
ENDBRANCH   1   3
BRANCH   1  20
ATOM     20  S   UNL     1      -2.746  -2.475  -6.261  0.00  0.00    -0.104 S 
BRANCH  20  21
ATOM     21  C   UNL     1      -1.518  -2.023  -7.517  0.00  0.00    +0.274 C 
ATOM     22  N   UNL     1      -0.189  -2.550  -7.154  0.00  0.00    -0.281 N 
ATOM     23  C   UNL     1       0.598  -1.416  -7.019  0.00  0.00    +0.231 C 
ATOM     24  N   UNL     1      -0.151  -0.315  -7.267  0.00  0.00    -0.116 NA
ATOM     25  N   UNL     1      -1.327  -0.566  -7.551  0.00  0.00    -0.150 NA
ATOM     26  N   UNL     1       1.874  -1.411  -6.697  0.00  0.00    -0.247 N 
ATOM     27  H   UNL     1       0.075  -3.476  -7.037  0.00  0.00    +0.152 HD
ATOM     28  H   UNL     1       2.351  -0.570  -6.624  0.00  0.00    +0.192 HD
BRANCH  26  29
ATOM     29  N   UNL     1       2.489  -2.524  -6.481  0.00  0.00    -0.179 NA
ATOM     30  C   UNL     1       3.758  -2.518  -6.162  0.00  0.00    +0.140 C 
BRANCH  30  31
ATOM     31  C   UNL     1       4.459  -3.786  -5.915  0.00  0.00    -0.005 A 
ATOM     32  C   UNL     1       3.775  -5.001  -6.026  0.00  0.00    +0.011 A 
ATOM     33  C   UNL     1       4.439  -6.186  -5.793  0.00  0.00    +0.020 A 
ATOM     34  C   UNL     1       5.782  -6.176  -5.450  0.00  0.00    +0.041 A 
ATOM     35  C   UNL     1       6.466  -4.976  -5.338  0.00  0.00    +0.020 A 
ATOM     36  C   UNL     1       5.817  -3.784  -5.573  0.00  0.00    +0.011 A 
ATOM     37 CL   UNL     1       6.610  -7.673  -5.158  0.00  0.00    -0.084 Cl
ENDBRANCH  30  31
ENDBRANCH  26  29
ENDBRANCH  20  21
ENDBRANCH   1  20
TORSDOF 9
