REMARK  Name = ZINC12997413
REMARK  4 active torsions:
REMARK  status: ('A' for Active; 'I' for Inactive)
REMARK    1  A    between atoms: C_6  and  N_7
REMARK    2  A    between atoms: N_7  and  C_8
REMARK    3  A    between atoms: C_8  and  C_10
REMARK    4  A    between atoms: C_8  and  P_15
REMARK                            x       y       z     vdW  Elec       q    Type
REMARK                         _______ _______ _______ _____ _____    ______ ____
ROOT
ATOM      1  C   UNL     1      -1.287  -2.183   0.005  0.00  0.00    +0.221 C 
ENDROOT
BRANCH   1   2
ATOM      2  C   UNL     1      -2.372  -2.716   0.905  0.00  0.00    -0.009 A 
ATOM      3  C   UNL     1      -3.115  -3.820   0.529  0.00  0.00    +0.013 A 
ATOM      4  C   UNL     1      -4.084  -4.274   1.361  0.00  0.00    +0.045 A 
ATOM      5  S   UNL     1      -3.968  -3.127   2.724  0.00  0.00    -0.105 S 
ATOM      6  C   UNL     1      -2.632  -2.124   2.096  0.00  0.00    +0.051 A 
ENDBRANCH   1   2
BRANCH   1   7
ATOM      7  P   UNL     1       0.317  -2.891   0.504  0.00  0.00    +0.410 P 
ATOM      8  O   UNL     1       1.426  -2.432  -0.504  0.00  0.00    -0.252 OA
ATOM      9  O   UNL     1       0.683  -2.394   1.944  0.00  0.00    -0.137 OA
ATOM     10  O   UNL     1       0.222  -4.455   0.499  0.00  0.00    -0.137 OA
ENDBRANCH   1   7
BRANCH   1  11
ATOM     11  N   UNL     1      -1.233  -0.723   0.118  0.00  0.00    -0.327 N 
ATOM     12  H   UNL     1      -1.300  -0.301   0.989  0.00  0.00    +0.147 HD
BRANCH  11  18
ATOM     13  C   UNL     1      -1.183   1.444  -0.943  0.00  0.00    +0.024 A 
ATOM     14  C   UNL     1      -1.036   2.217  -2.078  0.00  0.00    +0.022 A 
ATOM     15  C   UNL     1      -0.790   1.615  -3.300  0.00  0.00    +0.041 A 
ATOM     16  C   UNL     1      -0.691   0.238  -3.388  0.00  0.00    +0.022 A 
ATOM     17  C   UNL     1      -0.837  -0.540  -2.256  0.00  0.00    +0.024 A 
ATOM     18  C   UNL     1      -1.084   0.061  -1.028  0.00  0.00    +0.028 A 
ATOM     19 CL   UNL     1      -0.606   2.590  -4.724  0.00  0.00    -0.084 Cl
ENDBRANCH  11  18
ENDBRANCH   1  11
TORSDOF 4
