REMARK  Name = ZINC18070828
REMARK  13 active torsions:
REMARK  status: ('A' for Active; 'I' for Inactive)
REMARK    1  A    between atoms: C_1  and  C_2
REMARK    2  A    between atoms: C_2  and  O_3
REMARK    3  A    between atoms: O_3  and  C_4
REMARK    4  A    between atoms: C_7  and  O_10
REMARK    5  A    between atoms: O_10  and  C_11
REMARK    6  A    between atoms: C_11  and  C_13
REMARK    7  A    between atoms: C_11  and  C_14
REMARK    8  A    between atoms: N_16  and  N_17
REMARK    9  A    between atoms: C_18  and  C_20
REMARK   10  A    between atoms: C_20  and  N_21
REMARK   11  A    between atoms: C_24  and  C_28
REMARK   12  A    between atoms: C_24  and  C_29
REMARK   13  A    between atoms: C_32  and  C_35
REMARK                            x       y       z     vdW  Elec       q    Type
REMARK                         _______ _______ _______ _____ _____    ______ ____
ROOT
ATOM      1  N   UNL     1      -2.349   1.115   0.540  0.00  0.00    -0.233 N 
ATOM      2  C   UNL     1      -3.535   1.754   0.589  0.00  0.00    +0.247 C 
ATOM      3  O   UNL     1      -3.584   2.955   0.427  0.00  0.00    -0.273 OA
ATOM      4  H   UNL     1      -2.311   0.155   0.669  0.00  0.00    +0.173 HD
ENDROOT
BRANCH   1   7
ATOM      5  C   UNL     1       0.012   1.200   0.255  0.00  0.00    +0.270 C 
ATOM      6  O   UNL     1       0.061  -0.001   0.416  0.00  0.00    -0.270 OA
ATOM      7  N   UNL     1      -1.173   1.839   0.303  0.00  0.00    -0.231 N 
ATOM      8  H   UNL     1      -1.212   2.799   0.174  0.00  0.00    +0.173 HD
BRANCH   5   9
ATOM      9  C   UNL     1       1.277   1.977  -0.006  0.00  0.00    +0.257 C 
ATOM     10  C   UNL     1       1.537   2.934   1.158  0.00  0.00    +0.062 C 
BRANCH   9  11
ATOM     11  O   UNL     1       2.375   1.071  -0.132  0.00  0.00    -0.480 OA
BRANCH  11  15
ATOM     12  C   UNL     1       5.627   2.361  -2.324  0.00  0.00    +0.121 A 
ATOM     13  C   UNL     1       4.574   3.228  -2.068  0.00  0.00    +0.049 A 
ATOM     14  C   UNL     1       3.487   2.797  -1.335  0.00  0.00    +0.049 A 
ATOM     15  C   UNL     1       3.446   1.496  -0.855  0.00  0.00    +0.122 A 
ATOM     16  C   UNL     1       4.500   0.631  -1.106  0.00  0.00    +0.049 A 
ATOM     17  C   UNL     1       5.587   1.061  -1.843  0.00  0.00    +0.049 A 
BRANCH  12  18
ATOM     18  O   UNL     1       6.697   2.786  -3.047  0.00  0.00    -0.492 OA
BRANCH  18  20
ATOM     19  C   UNL     1       8.854   2.495  -4.097  0.00  0.00    +0.048 C 
ATOM     20  C   UNL     1       7.744   1.841  -3.272  0.00  0.00    +0.225 C 
ENDBRANCH  18  20
ENDBRANCH  12  18
ENDBRANCH  11  15
ENDBRANCH   9  11
ENDBRANCH   5   9
ENDBRANCH   1   7
BRANCH   2  21
ATOM     21  C   UNL     1      -4.801   0.976   0.843  0.00  0.00    +0.215 C 
BRANCH  21  22
ATOM     22  N   UNL     1      -5.944   1.892   0.849  0.00  0.00    -0.215 N 
ATOM     23  C   UNL     1      -6.662   2.212  -0.246  0.00  0.00    +0.251 C 
ATOM     24  O   UNL     1      -6.489   1.814  -1.378  0.00  0.00    -0.272 OA
ATOM     25  C   UNL     1      -7.730   3.176   0.233  0.00  0.00    +0.135 C 
ATOM     26  N   UNL     1      -7.465   3.298   1.677  0.00  0.00    -0.281 N 
ATOM     27  C   UNL     1      -6.408   2.509   1.942  0.00  0.00    +0.310 C 
ATOM     28  O   UNL     1      -5.927   2.373   3.049  0.00  0.00    -0.252 OA
ATOM     29  C   UNL     1      -9.125   2.598  -0.011  0.00  0.00    +0.047 C 
ATOM     30  H   UNL     1      -7.958   3.839   2.313  0.00  0.00    +0.152 HD
BRANCH  25  31
ATOM     31  C   UNL     1      -7.582   4.512  -0.448  0.00  0.00    -0.015 A 
ATOM     32  C   UNL     1      -7.053   4.583  -1.723  0.00  0.00    +0.006 A 
ATOM     33  C   UNL     1      -6.922   5.809  -2.350  0.00  0.00    +0.004 A 
ATOM     34  C   UNL     1      -7.310   6.964  -1.697  0.00  0.00    -0.050 A 
ATOM     35  C   UNL     1      -7.834   6.893  -0.420  0.00  0.00    +0.004 A 
ATOM     36  C   UNL     1      -7.970   5.667   0.205  0.00  0.00    +0.006 A 
ATOM     37  C   UNL     1      -7.162   8.300  -2.378  0.00  0.00    +0.044 C 
ENDBRANCH  25  31
ENDBRANCH  21  22
ENDBRANCH   2  21
TORSDOF 9
