REMARK  Name = ZINC44714396
REMARK  10 active torsions:
REMARK  status: ('A' for Active; 'I' for Inactive)
REMARK    1  A    between atoms: C_1  and  C_2
REMARK    2  A    between atoms: C_2  and  C_3
REMARK    3  A    between atoms: C_3  and  C_4
REMARK    4  A    between atoms: C_4  and  C_5
REMARK    5  A    between atoms: C_9  and  C_18
REMARK    6  A    between atoms: N_20  and  C_21
REMARK    7  A    between atoms: C_21  and  C_22
REMARK    8  A    between atoms: C_22  and  C_23
REMARK    9  A    between atoms: C_24  and  C_35
REMARK   10  A    between atoms: C_30  and  C_33
REMARK                            x       y       z     vdW  Elec       q    Type
REMARK                         _______ _______ _______ _____ _____    ______ ____
ROOT
ATOM      1  C   UNL     1       3.209  -5.840   0.657  0.00  0.00    +0.218 C 
ATOM      2  O   UNL     1       3.295  -4.760   0.113  0.00  0.00    -0.275 OA
ATOM      3  N   UNL     1       3.933  -6.883   0.203  0.00  0.00    -0.315 N 
ATOM      4  H   UNL     1       3.864  -7.747   0.638  0.00  0.00    +0.149 HD
ENDROOT
BRANCH   1   9
ATOM      5  C   UNL     1       1.247  -2.576   2.259  0.00  0.00    +0.216 C 
ATOM      6  O   UNL     1       1.639  -1.715   3.017  0.00  0.00    -0.276 OA
ATOM      7  N   UNL     1       1.478  -3.875   2.536  0.00  0.00    -0.300 N 
ATOM      8  C   UNL     1       1.086  -5.058   1.735  0.00  0.00    +0.121 C 
ATOM      9  C   UNL     1       2.293  -6.018   1.840  0.00  0.00    +0.100 C 
ATOM     10  C   UNL     1       3.007  -5.609   3.139  0.00  0.00    -0.004 C 
ATOM     11  C   UNL     1       2.188  -4.441   3.708  0.00  0.00    +0.115 C 
ATOM     12  C   UNL     1       4.430  -5.150   2.838  0.00  0.00    -0.010 C 
ATOM     13  C   UNL     1       5.138  -4.804   4.151  0.00  0.00    -0.082 C 
ATOM     14  N   UNL     1       5.158  -5.983   5.024  0.00  0.00    +0.379 N 
ATOM     15  C   UNL     1       3.786  -6.362   5.385  0.00  0.00    -0.082 C 
ATOM     16  C   UNL     1       3.021  -6.774   4.124  0.00  0.00    -0.010 C 
ATOM     17  H   UNL     1       5.602  -6.750   4.542  0.00  0.00    -0.086 HD
ATOM     18  H   UNL     1       5.678  -5.771   5.863  0.00  0.00    -0.086 HD
BRANCH   5  19
ATOM     19  C   UNL     1       0.500  -2.194   1.007  0.00  0.00    +0.096 C 
BRANCH  19  20
ATOM     20  C   UNL     1       0.374  -0.671   0.932  0.00  0.00    +0.009 C 
BRANCH  20  22
ATOM     21  C   UNL     1      -0.510   1.239  -0.413  0.00  0.00    +0.004 C 
ATOM     22  C   UNL     1      -0.384  -0.284  -0.339  0.00  0.00    -0.003 C 
ENDBRANCH  20  22
ENDBRANCH  19  20
ENDBRANCH   5  19
ENDBRANCH   1   9
BRANCH   3  23
ATOM     23  C   UNL     1       4.824  -6.710  -0.948  0.00  0.00    +0.109 C 
BRANCH  23  24
ATOM     24  C   UNL     1       5.522  -8.036  -1.255  0.00  0.00    +0.056 C 
BRANCH  24  25
ATOM     25  C   UNL     1       6.438  -7.858  -2.438  0.00  0.00    -0.018 A 
ATOM     26  C   UNL     1       6.117  -8.029  -3.730  0.00  0.00    +0.017 A 
ATOM     27  N   UNL     1       7.206  -7.778  -4.520  0.00  0.00    -0.358 N 
ATOM     28  H   UNL     1       7.217  -7.836  -5.488  0.00  0.00    +0.166 HD
ATOM     29  C   UNL     1       8.283  -7.431  -3.738  0.00  0.00    +0.047 A 
ATOM     30  C   UNL     1       7.848  -7.460  -2.398  0.00  0.00    +0.004 A 
ATOM     31  C   UNL     1       8.735  -7.144  -1.371  0.00  0.00    +0.029 A 
ATOM     32  C   UNL     1      10.046  -6.798  -1.683  0.00  0.00    +0.052 A 
ATOM     33  C   UNL     1      10.465  -6.769  -3.021  0.00  0.00    +0.021 A 
ATOM     34  C   UNL     1       9.601  -7.085  -4.027  0.00  0.00    +0.027 A 
ATOM     35  C   UNL     1       4.758  -8.437  -4.236  0.00  0.00    +0.063 C 
BRANCH  32  36
ATOM     36  C   UNL     1      10.968  -6.471  -0.638  0.00  0.00    +0.099 C 
ATOM     37  N   UNL     1      11.700  -6.211   0.192  0.00  0.00    -0.191 NA
ENDBRANCH  32  36
ENDBRANCH  24  25
ENDBRANCH  23  24
ENDBRANCH   3  23
TORSDOF 8
