REMARK  Name = ZINC38705893
REMARK  17 active torsions:
REMARK  status: ('A' for Active; 'I' for Inactive)
REMARK    1  A    between atoms: C_1  and  C_2
REMARK    2  A    between atoms: C_2  and  C_3
REMARK    3  A    between atoms: C_3  and  C_4
REMARK    4  A    between atoms: C_4  and  O_5
REMARK    5  A    between atoms: O_5  and  C_6
REMARK    6  A    between atoms: C_9  and  C_15
REMARK    7  A    between atoms: C_11  and  O_12
REMARK    8  A    between atoms: O_12  and  C_13
REMARK    9  A    between atoms: C_13  and  C_14
REMARK   10  A    between atoms: C_18  and  C_30
REMARK   11  A    between atoms: N_25  and  C_26
REMARK   12  A    between atoms: C_26  and  C_27
REMARK   13  A    between atoms: C_27  and  C_28
REMARK   14  A    between atoms: C_28  and  O_29
REMARK   15  A    between atoms: C_31  and  C_38
REMARK   16  A    between atoms: C_33  and  C_37
REMARK   17  A    between atoms: C_35  and  O_36
REMARK                            x       y       z     vdW  Elec       q    Type
REMARK                         _______ _______ _______ _____ _____    ______ ____
ROOT
ATOM      1  C   UNL     1      -3.430  -8.178  -0.013  0.00  0.00    +0.141 C 
ATOM      2  C   UNL     1      -3.054  -8.734   1.333  0.00  0.00    +0.035 A 
ATOM      3  C   UNL     1      -3.304  -8.763   2.709  0.00  0.00    +0.102 A 
ATOM      4  N   UNL     1      -2.437  -9.596   3.250  0.00  0.00    -0.173 NA
ATOM      5  N   UNL     1      -1.665 -10.096   2.353  0.00  0.00    -0.272 N 
ATOM      6  H   UNL     1      -0.953 -10.732   2.522  0.00  0.00    +0.189 HD
ATOM      7  C   UNL     1      -1.996  -9.598   1.124  0.00  0.00    +0.126 A 
ATOM      8  C   UNL     1      -1.682  -9.614  -0.309  0.00  0.00    +0.265 C 
ATOM      9  O   UNL     1      -0.799 -10.276  -0.819  0.00  0.00    -0.268 OA
ATOM     10  N   UNL     1      -2.511  -8.792  -0.980  0.00  0.00    -0.285 N 
ENDROOT
BRANCH   3  11
ATOM     11  C   UNL     1      -4.353  -7.996   3.428  0.00  0.00    +0.047 A 
ATOM     12  C   UNL     1      -4.025  -7.258   4.562  0.00  0.00    -0.037 A 
ATOM     13  C   UNL     1      -5.003  -6.547   5.228  0.00  0.00    +0.007 A 
ATOM     14  C   UNL     1      -6.309  -6.564   4.771  0.00  0.00    -0.047 A 
ATOM     15  C   UNL     1      -6.645  -7.293   3.646  0.00  0.00    +0.049 A 
ATOM     16  C   UNL     1      -5.671  -8.007   2.965  0.00  0.00    +0.127 A 
ATOM     17  C   UNL     1      -7.370  -5.784   5.503  0.00  0.00    +0.044 C 
ATOM     18  C   UNL     1      -2.604  -7.237   5.064  0.00  0.00    +0.044 C 
BRANCH  16  19
ATOM     19  O   UNL     1      -5.999  -8.719   1.855  0.00  0.00    -0.506 OA
ATOM     20  H   UNL     1      -6.337  -9.605   2.042  0.00  0.00    +0.292 HD
ENDBRANCH  16  19
ENDBRANCH   3  11
BRANCH   1  24
ATOM     21  C   UNL     1      -2.957  -3.928  -0.032  0.00  0.00    +0.162 A 
ATOM     22  C   UNL     1      -1.845  -4.751   0.048  0.00  0.00    +0.050 A 
ATOM     23  C   UNL     1      -2.002  -6.125   0.054  0.00  0.00    +0.009 A 
ATOM     24  C   UNL     1      -3.266  -6.680  -0.019  0.00  0.00    -0.019 A 
ATOM     25  C   UNL     1      -4.379  -5.864  -0.100  0.00  0.00    +0.055 A 
ATOM     26  C   UNL     1      -4.229  -4.486  -0.100  0.00  0.00    +0.162 A 
BRANCH  21  27
ATOM     27  O   UNL     1      -2.804  -2.576  -0.037  0.00  0.00    -0.488 OA
BRANCH  27  28
ATOM     28  C   UNL     1      -1.469  -2.073   0.035  0.00  0.00    +0.229 C 
BRANCH  28  29
ATOM     29  C   UNL     1      -1.498  -0.544   0.017  0.00  0.00    +0.041 C 
BRANCH  29  31
ATOM     30  C   UNL     1      -0.097   1.524   0.077  0.00  0.00    +0.004 C 
ATOM     31  C   UNL     1      -0.068  -0.006   0.095  0.00  0.00    -0.000 C 
ENDBRANCH  29  31
ENDBRANCH  28  29
ENDBRANCH  27  28
ENDBRANCH  21  27
BRANCH  26  32
ATOM     32  O   UNL     1      -5.323  -3.682  -0.172  0.00  0.00    -0.489 OA
BRANCH  32  33
ATOM     33  C   UNL     1      -6.598  -4.325  -0.240  0.00  0.00    +0.226 C 
ATOM     34  C   UNL     1      -7.700  -3.266  -0.316  0.00  0.00    +0.048 C 
ENDBRANCH  32  33
ENDBRANCH  26  32
ENDBRANCH   1  24
BRANCH  10  35
ATOM     35  C   UNL     1      -2.498  -8.550  -2.425  0.00  0.00    +0.111 C 
BRANCH  35  36
ATOM     36  C   UNL     1      -1.567  -7.377  -2.738  0.00  0.00    +0.047 C 
BRANCH  36  37
ATOM     37  C   UNL     1      -1.554  -7.125  -4.247  0.00  0.00    +0.157 C 
BRANCH  37  38
ATOM     38  O   UNL     1      -0.684  -6.030  -4.539  0.00  0.00    -0.395 OA
ATOM     39  H   UNL     1      -0.627  -5.813  -5.480  0.00  0.00    +0.209 HD
ENDBRANCH  37  38
ENDBRANCH  36  37
ENDBRANCH  35  36
ENDBRANCH  10  35
TORSDOF 13
