REMARK  Name = ZINC63959811
REMARK  7 active torsions:
REMARK  status: ('A' for Active; 'I' for Inactive)
REMARK    1  A    between atoms: C_4  and  C_7
REMARK    2  A    between atoms: C_7  and  C_9
REMARK    3  A    between atoms: C_7  and  C_27
REMARK    4  A    between atoms: C_9  and  N_10
REMARK    5  A    between atoms: C_11  and  C_13
REMARK    6  A    between atoms: C_13  and  N_14
REMARK    7  A    between atoms: C_16  and  C_24
REMARK                            x       y       z     vdW  Elec       q    Type
REMARK                         _______ _______ _______ _____ _____    ______ ____
ROOT
ATOM      1  N   UNL     1       3.810  -0.724  -2.481  0.00  0.00    -0.313 N 
ATOM      2  C   UNL     1       3.878  -1.277  -3.708  0.00  0.00    +0.230 C 
ATOM      3  O   UNL     1       3.923  -2.483  -3.828  0.00  0.00    -0.274 OA
ATOM      4  H   UNL     1       3.773   0.241  -2.385  0.00  0.00    +0.149 HD
ENDROOT
BRANCH   1   5
ATOM      5  C   UNL     1       3.791  -1.579  -1.292  0.00  0.00    +0.116 C 
BRANCH   5   6
ATOM      6  C   UNL     1       3.711  -0.707  -0.038  0.00  0.00    +0.064 C 
BRANCH   6   7
ATOM      7  C   UNL     1       3.816  -1.579   1.188  0.00  0.00    -0.033 C 
ATOM      8  C   UNL     1       4.756  -1.509   2.157  0.00  0.00    -0.000 A 
ATOM      9  C   UNL     1       5.920  -0.636   2.352  0.00  0.00    +0.010 A 
ATOM     10  C   UNL     1       6.696  -0.812   3.446  0.00  0.00    +0.001 A 
ATOM     11  C   UNL     1       6.417  -1.805   4.396  0.00  0.00    +0.002 A 
ATOM     12  C   UNL     1       5.366  -2.646   4.285  0.00  0.00    +0.026 A 
ATOM     13  C   UNL     1       4.483  -2.550   3.174  0.00  0.00    +0.043 A 
ATOM     14  N   UNL     1       3.415  -3.236   2.846  0.00  0.00    -0.380 N 
ATOM     15  C   UNL     1       2.886  -2.703   1.585  0.00  0.00    +0.145 C 
ATOM     16  H   UNL     1       3.036  -3.970   3.354  0.00  0.00    +0.160 HD
ENDBRANCH   6   7
BRANCH   6  20
ATOM     17  C   UNL     1      -0.017   1.378   0.010  0.00  0.00    +0.000 A 
ATOM     18  C   UNL     1       1.171   2.086   0.002  0.00  0.00    +0.000 A 
ATOM     19  C   UNL     1       2.377   1.411  -0.013  0.00  0.00    +0.004 A 
ATOM     20  C   UNL     1       2.396   0.029  -0.020  0.00  0.00    -0.039 A 
ATOM     21  C   UNL     1       1.208  -0.679  -0.012  0.00  0.00    +0.004 A 
ATOM     22  C   UNL     1       0.002  -0.004   0.002  0.00  0.00    +0.000 A 
ENDBRANCH   6  20
ENDBRANCH   5   6
ENDBRANCH   1   5
BRANCH   2  23
ATOM     23  C   UNL     1       3.897  -0.397  -4.932  0.00  0.00    +0.200 C 
BRANCH  23  24
ATOM     24  N   UNL     1       3.973  -1.232  -6.133  0.00  0.00    -0.320 N 
ATOM     25  C   UNL     1       5.216  -1.675  -6.770  0.00  0.00    +0.123 C 
ATOM     26  C   UNL     1       4.773  -2.515  -7.978  0.00  0.00    +0.124 C 
ATOM     27  C   UNL     1       3.262  -2.482  -7.930  0.00  0.00    -0.013 A 
ATOM     28  C   UNL     1       2.873  -1.727  -6.834  0.00  0.00    +0.034 A 
ATOM     29  C   UNL     1       1.511  -1.557  -6.578  0.00  0.00    +0.023 A 
ATOM     30  C   UNL     1       0.570  -2.137  -7.402  0.00  0.00    +0.002 A 
ATOM     31  C   UNL     1       0.969  -2.892  -8.490  0.00  0.00    +0.000 A 
ATOM     32  C   UNL     1       2.316  -3.057  -8.756  0.00  0.00    +0.006 A 
BRANCH  26  33
ATOM     33  C   UNL     1       5.274  -1.900  -9.259  0.00  0.00    +0.219 C 
ATOM     34  O   UNL     1       5.929  -0.879  -9.226  0.00  0.00    -0.275 OA
ATOM     35  N   UNL     1       4.995  -2.483 -10.442  0.00  0.00    -0.329 N 
ATOM     36  H   UNL     1       4.471  -3.299 -10.468  0.00  0.00    +0.145 HD
ATOM     37  H   UNL     1       5.317  -2.086 -11.266  0.00  0.00    +0.145 HD
ENDBRANCH  26  33
ENDBRANCH  23  24
ENDBRANCH   2  23
TORSDOF 7
