REMARK  Name = ZINC50926872
REMARK  9 active torsions:
REMARK  status: ('A' for Active; 'I' for Inactive)
REMARK    1  A    between atoms: C_1  and  C_2
REMARK    2  A    between atoms: C_2  and  C_3
REMARK    3  A    between atoms: C_2  and  C_4
REMARK    4  A    between atoms: C_2  and  C_5
REMARK    5  A    between atoms: C_7  and  C_13
REMARK    6  A    between atoms: C_8  and  O_12
REMARK    7  A    between atoms: C_9  and  O_11
REMARK    8  A    between atoms: C_13  and  N_14
REMARK    9  A    between atoms: C_18  and  C_21
REMARK                            x       y       z     vdW  Elec       q    Type
REMARK                         _______ _______ _______ _____ _____    ______ ____
ROOT
ATOM      1  C   UNL     1       0.720  -0.468  -1.277  0.00  0.00    -0.038 A 
ATOM      2  C   UNL     1       0.852  -1.828  -1.489  0.00  0.00    +0.013 A 
ATOM      3  C   UNL     1       1.495  -2.294  -2.620  0.00  0.00    +0.012 A 
ATOM      4  C   UNL     1       2.009  -1.398  -3.544  0.00  0.00    +0.163 A 
ATOM      5  C   UNL     1       1.875  -0.029  -3.330  0.00  0.00    +0.159 A 
ATOM      6  C   UNL     1       1.225   0.431  -2.197  0.00  0.00    +0.053 A 
ENDROOT
BRANCH   1   8
ATOM      7  C   UNL     1       0.001   1.565  -0.051  0.00  0.00    +0.015 C 
ATOM      8  C   UNL     1       0.017   0.035  -0.042  0.00  0.00    -0.013 C 
ATOM      9  C   UNL     1       0.757  -0.459   1.203  0.00  0.00    +0.015 C 
ATOM     10  C   UNL     1      -1.420  -0.490  -0.023  0.00  0.00    +0.015 C 
ENDBRANCH   1   8
BRANCH   5  11
ATOM     11  O   UNL     1       2.377   0.854  -4.234  0.00  0.00    -0.503 OA
ATOM     12  H   UNL     1       1.754   1.102  -4.930  0.00  0.00    +0.292 HD
ENDBRANCH   5  11
BRANCH   4  13
ATOM     13  O   UNL     1       2.643  -1.855  -4.658  0.00  0.00    -0.503 OA
ATOM     14  H   UNL     1       2.072  -1.922  -5.435  0.00  0.00    +0.292 HD
ENDBRANCH   4  13
BRANCH   3  15
ATOM     15  C   UNL     1       1.639  -3.776  -2.849  0.00  0.00    +0.123 C 
BRANCH  15  16
ATOM     16  N   UNL     1       3.024  -4.182  -2.576  0.00  0.00    -0.293 NA
ATOM     17  C   UNL     1       3.308  -4.151  -1.134  0.00  0.00    +0.113 C 
ATOM     18  C   UNL     1       4.775  -4.522  -0.900  0.00  0.00    +0.176 C 
ATOM     19  O   UNL     1       5.035  -5.805  -1.476  0.00  0.00    -0.365 OA
ATOM     20  C   UNL     1       4.769  -5.871  -2.880  0.00  0.00    +0.217 C 
ATOM     21  C   UNL     1       3.303  -5.514  -3.134  0.00  0.00    +0.126 C 
BRANCH  20  22
ATOM     22  C   UNL     1       5.042  -7.266  -3.379  0.00  0.00    +0.241 C 
ATOM     23  O   UNL     1       5.338  -8.143  -2.595  0.00  0.00    -0.273 OA
ATOM     24  N   UNL     1       4.957  -7.540  -4.696  0.00  0.00    -0.327 N 
ATOM     25  H   UNL     1       4.721  -6.838  -5.322  0.00  0.00    +0.145 HD
ATOM     26  H   UNL     1       5.133  -8.438  -5.017  0.00  0.00    +0.145 HD
ENDBRANCH  20  22
ENDBRANCH  15  16
ENDBRANCH   3  15
TORSDOF 6
