REMARK  Name = ZINC03284622
REMARK  8 active torsions:
REMARK  status: ('A' for Active; 'I' for Inactive)
REMARK    1  A    between atoms: C_1  and  C_2
REMARK    2  A    between atoms: C_2  and  C_3
REMARK    3  A    between atoms: C_2  and  C_4
REMARK    4  A    between atoms: C_2  and  C_5
REMARK    5  A    between atoms: C_8  and  C_11
REMARK    6  A    between atoms: C_13  and  C_21
REMARK    7  A    between atoms: N_23  and  C_24
REMARK    8  A    between atoms: C_29  and  C_30
REMARK                            x       y       z     vdW  Elec       q    Type
REMARK                         _______ _______ _______ _____ _____    ______ ____
ROOT
ATOM      1  C   UNL     1       2.693  -1.878  -4.752  0.00  0.00    +0.122 C 
ATOM      2  C   UNL     1       3.572  -3.086  -4.400  0.00  0.00    +0.143 C 
ATOM      3  C   UNL     1       4.727  -2.582  -3.559  0.00  0.00    +0.019 C 
ATOM      4  C   UNL     1       5.067  -3.175  -2.431  0.00  0.00    +0.029 C 
ATOM      5  N   UNL     1       5.418  -1.460  -4.031  0.00  0.00    -0.273 N 
ATOM      6  C   UNL     1       4.800  -0.621  -4.883  0.00  0.00    +0.304 C 
ATOM      7  O   UNL     1       5.415   0.337  -5.311  0.00  0.00    -0.253 OA
ATOM      8  N   UNL     1       3.533  -0.802  -5.278  0.00  0.00    -0.291 N 
ATOM      9  H   UNL     1       6.329  -1.288  -3.747  0.00  0.00    +0.156 HD
ATOM     10  H   UNL     1       3.158  -0.198  -5.937  0.00  0.00    +0.151 HD
ENDROOT
BRANCH   1  14
ATOM     11  C   UNL     1       0.669  -0.522  -1.243  0.00  0.00    -0.042 A 
ATOM     12  C   UNL     1       0.005  -1.314  -2.162  0.00  0.00    +0.004 A 
ATOM     13  C   UNL     1       0.660  -1.753  -3.297  0.00  0.00    +0.006 A 
ATOM     14  C   UNL     1       1.979  -1.399  -3.514  0.00  0.00    -0.026 A 
ATOM     15  C   UNL     1       2.642  -0.607  -2.597  0.00  0.00    +0.006 A 
ATOM     16  C   UNL     1       1.986  -0.164  -1.463  0.00  0.00    +0.004 A 
BRANCH  11  18
ATOM     17  C   UNL     1      -0.071   1.486   0.010  0.00  0.00    +0.015 C 
ATOM     18  C   UNL     1      -0.045  -0.044  -0.005  0.00  0.00    -0.013 C 
ATOM     19  C   UNL     1       0.689  -0.554   1.236  0.00  0.00    +0.015 C 
ATOM     20  C   UNL     1      -1.479  -0.578  -0.005  0.00  0.00    +0.015 C 
ENDBRANCH  11  18
ENDBRANCH   1  14
BRANCH   2  21
ATOM     21  C   UNL     1       4.095  -3.723  -5.662  0.00  0.00    +0.228 C 
ATOM     22  O   UNL     1       3.798  -3.260  -6.743  0.00  0.00    -0.275 OA
ATOM     23  N   UNL     1       4.893  -4.806  -5.589  0.00  0.00    -0.284 N 
ATOM     24  H   UNL     1       5.196  -5.128  -4.725  0.00  0.00    +0.155 HD
BRANCH  23  25
ATOM     25  C   UNL     1       5.285  -5.467  -6.758  0.00  0.00    +0.045 A 
ATOM     26  C   UNL     1       4.504  -5.377  -7.903  0.00  0.00    +0.024 A 
ATOM     27  C   UNL     1       4.893  -6.030  -9.056  0.00  0.00    +0.002 A 
ATOM     28  C   UNL     1       6.060  -6.773  -9.071  0.00  0.00    +0.001 A 
ATOM     29  C   UNL     1       6.839  -6.864  -7.933  0.00  0.00    +0.014 A 
ATOM     30  C   UNL     1       6.459  -6.208  -6.779  0.00  0.00    +0.076 A 
BRANCH  30  31
ATOM     31  C   UNL     1       7.313  -6.303  -5.541  0.00  0.00    +0.419 C 
ATOM     32  F   UNL     1       8.433  -7.098  -5.806  0.00  0.00    -0.166 F 
ATOM     33  F   UNL     1       7.729  -5.022  -5.163  0.00  0.00    -0.166 F 
ATOM     34  F   UNL     1       6.569  -6.876  -4.504  0.00  0.00    -0.166 F 
ENDBRANCH  30  31
ENDBRANCH  23  25
ENDBRANCH   2  21
TORSDOF 5
