REMARK  Name = ZINC45253332
REMARK  14 active torsions:
REMARK  status: ('A' for Active; 'I' for Inactive)
REMARK    1  A    between atoms: C_1  and  C_2
REMARK    2  A    between atoms: C_2  and  O_3
REMARK    3  A    between atoms: O_3  and  C_4
REMARK    4  A    between atoms: C_7  and  N_10
REMARK    5  A    between atoms: N_10  and  C_11
REMARK    6  A    between atoms: C_12  and  C_34
REMARK    7  A    between atoms: C_13  and  N_22
REMARK    8  A    between atoms: C_14  and  C_20
REMARK    9  A    between atoms: N_22  and  C_23
REMARK   10  A    between atoms: C_26  and  N_29
REMARK   11  A    between atoms: N_29  and  C_30
REMARK   12  A    between atoms: C_30  and  C_31
REMARK   13  A    between atoms: C_31  and  C_32
REMARK   14  A    between atoms: C_31  and  C_33
REMARK                            x       y       z     vdW  Elec       q    Type
REMARK                         _______ _______ _______ _____ _____    ______ ____
ROOT
ATOM      1  C   UNL     1       1.444  -6.420  -3.007  0.00  0.00    +0.130 A 
ATOM      2  C   UNL     1       1.563  -7.747  -3.281  0.00  0.00    +0.012 A 
ATOM      3  C   UNL     1       2.304  -8.195  -4.380  0.00  0.00    +0.053 A 
ATOM      4  C   UNL     1       2.932  -7.251  -5.209  0.00  0.00    +0.098 A 
ATOM      5  C   UNL     1       2.781  -5.831  -4.881  0.00  0.00    +0.088 A 
ATOM      6  N   UNL     1       2.035  -5.466  -3.791  0.00  0.00    -0.217 N 
ATOM      7  N   UNL     1       2.054  -4.067  -3.721  0.00  0.00    -0.173 NA
ATOM      8  C   UNL     1       2.769  -3.601  -4.718  0.00  0.00    +0.135 A 
ATOM      9  C   UNL     1       3.250  -4.670  -5.466  0.00  0.00    +0.050 A 
ATOM     10  C   UNL     1       0.885  -8.752  -2.385  0.00  0.00    +0.049 C 
ENDROOT
BRANCH   1  11
ATOM     11  N   UNL     1       0.704  -6.025  -1.913  0.00  0.00    -0.299 N 
ATOM     12  H   UNL     1      -0.233  -6.270  -1.846  0.00  0.00    +0.154 HD
BRANCH  11  16
ATOM     13  C   UNL     1       2.489  -3.777   1.110  0.00  0.00    +0.121 A 
ATOM     14  C   UNL     1       1.119  -3.994   1.125  0.00  0.00    +0.047 A 
ATOM     15  C   UNL     1       0.526  -4.739   0.124  0.00  0.00    +0.027 A 
ATOM     16  C   UNL     1       1.303  -5.270  -0.898  0.00  0.00    +0.033 A 
ATOM     17  C   UNL     1       2.675  -5.053  -0.911  0.00  0.00    +0.027 A 
ATOM     18  C   UNL     1       3.264  -4.303   0.087  0.00  0.00    +0.047 A 
BRANCH  13  19
ATOM     19  O   UNL     1       3.071  -3.044   2.096  0.00  0.00    -0.492 OA
BRANCH  19  21
ATOM     20  C   UNL     1       3.041  -1.741   4.131  0.00  0.00    +0.048 C 
ATOM     21  C   UNL     1       2.212  -2.533   3.118  0.00  0.00    +0.225 C 
ENDBRANCH  19  21
ENDBRANCH  13  19
ENDBRANCH  11  16
ENDBRANCH   1  11
BRANCH   4  22
ATOM     22  C   UNL     1       3.701  -7.666  -6.343  0.00  0.00    +0.103 C 
ATOM     23  N   UNL     1       4.311  -7.995  -7.244  0.00  0.00    -0.191 NA
ENDBRANCH   4  22
BRANCH   3  24
ATOM     24  N   UNL     1       2.417  -9.549  -4.646  0.00  0.00    -0.340 N 
ATOM     25  H   UNL     1       2.044  -9.916  -5.462  0.00  0.00    +0.146 HD
BRANCH  24  26
ATOM     26  C   UNL     1       3.101 -10.428  -3.694  0.00  0.00    +0.070 C 
ATOM     27  C   UNL     1       4.611 -10.361  -3.931  0.00  0.00    +0.020 C 
ATOM     28  C   UNL     1       5.325 -11.279  -2.937  0.00  0.00    -0.014 C 
ATOM     29  C   UNL     1       4.841 -12.717  -3.133  0.00  0.00    -0.072 C 
ATOM     30  C   UNL     1       3.331 -12.785  -2.895  0.00  0.00    -0.014 C 
ATOM     31  C   UNL     1       2.617 -11.867  -3.890  0.00  0.00    +0.020 C 
BRANCH  29  32
ATOM     32  N   UNL     1       5.527 -13.599  -2.178  0.00  0.00    +0.381 N 
ATOM     33  H   UNL     1       6.525 -13.493  -2.279  0.00  0.00    -0.086 HD
ATOM     34  H   UNL     1       5.256 -13.352  -1.238  0.00  0.00    -0.086 HD
BRANCH  32  35
ATOM     35  C   UNL     1       5.153 -14.994  -2.445  0.00  0.00    -0.079 C 
BRANCH  35  36
ATOM     36  C   UNL     1       5.867 -15.912  -1.450  0.00  0.00    -0.034 C 
ATOM     37  C   UNL     1       5.383 -17.351  -1.646  0.00  0.00    +0.005 C 
ATOM     38  C   UNL     1       7.377 -15.845  -1.688  0.00  0.00    +0.005 C 
ENDBRANCH  35  36
ENDBRANCH  32  35
ENDBRANCH  29  32
ENDBRANCH  24  26
ENDBRANCH   3  24
TORSDOF 10
