REMARK  Name = ZINC01808561
REMARK  2 active torsions:
REMARK  status: ('A' for Active; 'I' for Inactive)
REMARK    1  A    between atoms: C_4  and  C_7
REMARK    2  A    between atoms: C_17  and  C_19
REMARK                            x       y       z     vdW  Elec       q    Type
REMARK                         _______ _______ _______ _____ _____    ______ ____
ROOT
ATOM      1  C   UNL     1       3.624  -0.654   0.399  0.00  0.00    +0.019 C 
ATOM      2  C   UNL     1       3.773  -1.665   1.538  0.00  0.00    +0.013 C 
ATOM      3  C   UNL     1       5.119  -2.381   1.413  0.00  0.00    +0.067 C 
ATOM      4  C   UNL     1       5.183  -3.119   0.071  0.00  0.00    +0.180 C 
ATOM      5  C   UNL     1       5.037  -2.102  -1.066  0.00  0.00    +0.067 C 
ATOM      6  C   UNL     1       3.691  -1.387  -0.942  0.00  0.00    +0.013 C 
ATOM      7  N   UNL     1       4.145  -4.117  -0.007  0.00  0.00    -0.177 NA
ATOM      8  C   UNL     1       4.405  -5.213   0.975  0.00  0.00    +0.138 C 
ATOM      9  C   UNL     1       3.100  -5.958   0.925  0.00  0.00    +0.023 C 
ATOM     10  C   UNL     1       2.208  -5.081   0.420  0.00  0.00    +0.047 C 
ATOM     11  N   UNL     1       2.840  -3.846   0.166  0.00  0.00    -0.273 N 
ATOM     12  C   UNL     1       5.591  -5.924   0.393  0.00  0.00    +0.017 A 
ATOM     13  C   UNL     1       5.720  -7.286   0.350  0.00  0.00    +0.009 A 
ATOM     14  C   UNL     1       6.850  -7.850  -0.223  0.00  0.00    +0.001 A 
ATOM     15  C   UNL     1       7.835  -7.034  -0.747  0.00  0.00    +0.004 A 
ATOM     16  C   UNL     1       7.709  -5.659  -0.699  0.00  0.00    +0.046 A 
ATOM     17  C   UNL     1       6.587  -5.084  -0.121  0.00  0.00    +0.128 A 
ATOM     18  O   UNL     1       6.466  -3.752  -0.042  0.00  0.00    -0.469 OA
ATOM     19  H   UNL     1       2.417  -2.975   0.124  0.00  0.00    +0.167 HD
ENDROOT
BRANCH  10  20
ATOM     20  C   UNL     1       0.780  -5.371   0.171  0.00  0.00    +0.004 A 
ATOM     21  C   UNL     1      -0.032  -5.823   1.197  0.00  0.00    +0.010 A 
ATOM     22  C   UNL     1      -1.375  -6.098   0.970  0.00  0.00    +0.001 A 
ATOM     23  C   UNL     1      -1.930  -5.932  -0.263  0.00  0.00    +0.008 A 
ATOM     24  C   UNL     1      -1.143  -5.475  -1.334  0.00  0.00    -0.017 A 
ATOM     25  C   UNL     1       0.227  -5.184  -1.119  0.00  0.00    -0.009 A 
ATOM     26  C   UNL     1       1.010  -4.724  -2.187  0.00  0.00    +0.009 A 
ATOM     27  C   UNL     1       0.444  -4.556  -3.415  0.00  0.00    +0.001 A 
ATOM     28  C   UNL     1      -0.904  -4.836  -3.627  0.00  0.00    +0.001 A 
ATOM     29  C   UNL     1      -1.691  -5.296  -2.616  0.00  0.00    +0.008 A 
ENDBRANCH  10  20
BRANCH   1  33
ATOM     30  C   UNL     1      -0.137   1.340   0.745  0.00  0.00    +0.000 A 
ATOM     31  C   UNL     1       1.037   2.068   0.788  0.00  0.00    +0.000 A 
ATOM     32  C   UNL     1       2.255   1.422   0.677  0.00  0.00    +0.004 A 
ATOM     33  C   UNL     1       2.297   0.049   0.522  0.00  0.00    -0.044 A 
ATOM     34  C   UNL     1       1.123  -0.678   0.480  0.00  0.00    +0.004 A 
ATOM     35  C   UNL     1      -0.095  -0.033   0.590  0.00  0.00    +0.000 A 
ENDBRANCH   1  33
TORSDOF 2
