REMARK  Name = ZINC04834566
REMARK  7 active torsions:
REMARK  status: ('A' for Active; 'I' for Inactive)
REMARK    1  A    between atoms: C_3  and  N_26
REMARK    2  A    between atoms: C_6  and  C_7
REMARK    3  A    between atoms: C_10  and  C_12
REMARK    4  A    between atoms: C_12  and  C_24
REMARK    5  A    between atoms: C_13  and  N_14
REMARK    6  A    between atoms: N_14  and  C_15
REMARK    7  A    between atoms: C_18  and  C_21
REMARK                            x       y       z     vdW  Elec       q    Type
REMARK                         _______ _______ _______ _____ _____    ______ ____
ROOT
ATOM      1  C   UNL     1      -4.866  -0.450   0.005  0.00  0.00    +0.098 C 
ATOM      2  C   UNL     1      -5.925  -1.393   0.018  0.00  0.00    +0.093 C 
ENDROOT
BRANCH   1   6
ATOM      3  C   UNL     1      -1.264  -0.751  -0.086  0.00  0.00    +0.079 A 
ATOM      4  C   UNL     1      -1.278  -2.228  -0.105  0.00  0.00    +0.075 A 
ATOM      5  S   UNL     1      -2.927  -2.565  -0.069  0.00  0.00    -0.074 S 
ATOM      6  C   UNL     1      -3.538  -0.891  -0.032  0.00  0.00    +0.120 A 
ATOM      7  N   UNL     1      -2.416  -0.155  -0.044  0.00  0.00    -0.238 NA
BRANCH   3  13
ATOM      8  C   UNL     1      -0.022   1.410  -0.082  0.00  0.00    +0.012 A 
ATOM      9  C   UNL     1       1.162   2.113  -0.101  0.00  0.00    +0.033 A 
ATOM     10  C   UNL     1       2.372   1.439  -0.144  0.00  0.00    +0.126 A 
ATOM     11  C   UNL     1       2.401   0.054  -0.168  0.00  0.00    +0.033 A 
ATOM     12  C   UNL     1       1.226  -0.664  -0.150  0.00  0.00    +0.012 A 
ATOM     13  C   UNL     1      -0.001   0.009  -0.106  0.00  0.00    +0.001 A 
BRANCH  10  14
ATOM     14  N   UNL     1       3.640   2.203  -0.165  0.00  0.00    +0.056 N 
ATOM     15  O   UNL     1       3.616   3.519  -0.142  0.00  0.00    -0.126 OA
ATOM     16  O   UNL     1       4.792   1.566  -0.206  0.00  0.00    -0.126 OA
ENDBRANCH  10  14
ENDBRANCH   3  13
ENDBRANCH   1   6
BRANCH   2  17
ATOM     17  N   UNL     1      -7.189  -0.974   0.053  0.00  0.00    -0.319 N 
ATOM     18  H   UNL     1      -7.384  -0.028   0.148  0.00  0.00    +0.152 HD
BRANCH  17  19
ATOM     19  C   UNL     1      -8.227  -1.890  -0.045  0.00  0.00    +0.031 A 
ATOM     20  C   UNL     1      -9.543  -1.442  -0.146  0.00  0.00    +0.024 A 
ATOM     21  C   UNL     1     -10.574  -2.349  -0.244  0.00  0.00    +0.015 A 
ATOM     22  C   UNL     1     -10.300  -3.720  -0.243  0.00  0.00    +0.037 A 
ATOM     23  C   UNL     1      -8.979  -4.167  -0.142  0.00  0.00    +0.015 A 
ATOM     24  C   UNL     1      -7.951  -3.256  -0.049  0.00  0.00    +0.024 A 
BRANCH  22  25
ATOM     25  C   UNL     1     -11.404  -4.695  -0.347  0.00  0.00    +0.242 C 
ATOM     26  O   UNL     1     -12.553  -4.306  -0.434  0.00  0.00    -0.270 OA
ATOM     27  N   UNL     1     -11.139  -6.016  -0.346  0.00  0.00    -0.325 N 
ATOM     28  H   UNL     1     -10.223  -6.327  -0.276  0.00  0.00    +0.145 HD
ATOM     29  H   UNL     1     -11.864  -6.657  -0.414  0.00  0.00    +0.145 HD
ENDBRANCH  22  25
ENDBRANCH  17  19
ENDBRANCH   2  17
BRANCH   1  30
ATOM     30  C   UNL     1      -5.155   0.952   0.030  0.00  0.00    +0.103 C 
ATOM     31  N   UNL     1      -5.385   2.064   0.050  0.00  0.00    -0.191 NA
ENDBRANCH   1  30
TORSDOF 7
