REMARK  Name = ZINC04237016
REMARK  15 active torsions:
REMARK  status: ('A' for Active; 'I' for Inactive)
REMARK    1  A    between atoms: C_1  and  C_2
REMARK    2  A    between atoms: C_5  and  O_36
REMARK    3  A    between atoms: C_7  and  C_33
REMARK    4  A    between atoms: C_7  and  C_34
REMARK    5  A    between atoms: C_17  and  O_19
REMARK    6  A    between atoms: O_19  and  C_20
REMARK    7  A    between atoms: C_20  and  C_21
REMARK    8  A    between atoms: C_23  and  C_25
REMARK    9  A    between atoms: C_25  and  C_26
REMARK   10  A    between atoms: N_28  and  C_29
REMARK   11  A    between atoms: C_29  and  C_30
REMARK   12  A    between atoms: C_30  and  N_72
REMARK   13  A    between atoms: C_31  and  N_72
REMARK   14  A    between atoms: C_32  and  N_72
REMARK   15  A    between atoms: C_34  and  O_35
REMARK                            x       y       z     vdW  Elec       q    Type
REMARK                         _______ _______ _______ _____ _____    ______ ____
ROOT
ATOM      1  C   UNL     1      -0.422  -1.979  -1.694  0.00  0.00    +0.012 C 
ATOM      2  C   UNL     1      -0.680  -1.895  -0.189  0.00  0.00    -0.019 C 
ATOM      3  C   UNL     1      -1.974  -2.640   0.154  0.00  0.00    +0.010 C 
ATOM      4  C   UNL     1      -1.842  -4.122  -0.190  0.00  0.00    +0.032 C 
ATOM      5  C   UNL     1      -0.698  -4.719   0.634  0.00  0.00    +0.123 C 
ATOM      6  C   UNL     1       0.608  -4.011   0.272  0.00  0.00    +0.021 C 
ATOM      7  C   UNL     1       0.498  -2.512   0.568  0.00  0.00    +0.011 C 
ATOM      8  C   UNL     1       1.805  -1.855   0.082  0.00  0.00    +0.049 C 
ATOM      9  C   UNL     1       1.614  -0.381   0.026  0.00  0.00    +0.015 A 
ATOM     10  C   UNL     1       0.445   0.307   0.072  0.00  0.00    +0.058 A 
ATOM     11  N   UNL     1       0.544   1.633   0.001  0.00  0.00    -0.229 NA
ATOM     12  C   UNL     1       1.705   2.245  -0.106  0.00  0.00    +0.167 A 
ATOM     13  S   UNL     1       2.820   0.911  -0.116  0.00  0.00    -0.057 S 
ATOM     14  N   UNL     1       1.971   3.607  -0.190  0.00  0.00    -0.230 N 
ATOM     15  C   UNL     1       3.243   4.040  -0.296  0.00  0.00    +0.406 C 
ATOM     16  O   UNL     1       4.157   3.240  -0.318  0.00  0.00    -0.226 OA
ATOM     17  C   UNL     1      -0.875  -0.438   0.203  0.00  0.00    +0.054 C 
ATOM     18  C   UNL     1       1.763  -4.604   1.080  0.00  0.00    +0.016 C 
ATOM     19  H   UNL     1       1.241   4.245  -0.173  0.00  0.00    +0.160 HD
ENDROOT
BRANCH   5  20
ATOM     20  O   UNL     1      -0.580  -6.115   0.350  0.00  0.00    -0.391 OA
ATOM     21  H   UNL     1      -1.374  -6.626   0.555  0.00  0.00    +0.210 HD
ENDBRANCH   5  20
BRANCH  15  22
ATOM     22  O   UNL     1       3.501   5.359  -0.377  0.00  0.00    -0.446 OA
BRANCH  22  23
ATOM     23  C   UNL     1       4.894   5.753  -0.489  0.00  0.00    +0.261 C 
BRANCH  23  24
ATOM     24  C   UNL     1       4.986   7.255  -0.568  0.00  0.00    +0.006 C 
ATOM     25  C   UNL     1       5.878   7.895   0.146  0.00  0.00    +0.007 C 
ENDBRANCH  23  24
ENDBRANCH  22  23
ENDBRANCH  15  22
BRANCH  17  26
ATOM     26  C   UNL     1      -1.917   0.207  -0.712  0.00  0.00    +0.106 C 
BRANCH  26  27
ATOM     27  C   UNL     1      -2.260   1.580  -0.195  0.00  0.00    +0.214 C 
ATOM     28  O   UNL     1      -1.723   2.002   0.808  0.00  0.00    -0.276 OA
ATOM     29  N   UNL     1      -3.163   2.340  -0.846  0.00  0.00    -0.317 N 
ATOM     30  H   UNL     1      -3.592   2.002  -1.648  0.00  0.00    +0.149 HD
BRANCH  29  31
ATOM     31  C   UNL     1      -3.496   3.675  -0.343  0.00  0.00    +0.085 C 
BRANCH  31  32
ATOM     32  C   UNL     1      -4.538   4.319  -1.258  0.00  0.00    -0.061 C 
BRANCH  32  35
ATOM     33  C   UNL     1      -3.717   6.560  -0.850  0.00  0.00    -0.097 C 
ATOM     34  C   UNL     1      -6.034   6.213  -1.462  0.00  0.00    -0.097 C 
ATOM     35  N   UNL     1      -4.879   5.655  -0.726  0.00  0.00    +0.377 N 
ATOM     36  H   UNL     1      -5.128   5.566   0.266  0.00  0.00    -0.083 HD
ENDBRANCH  32  35
ENDBRANCH  31  32
ENDBRANCH  29  31
ENDBRANCH  26  27
ENDBRANCH  17  26
BRANCH   6  37
ATOM     37  C   UNL     1       0.881  -4.213  -1.220  0.00  0.00    +0.165 C 
BRANCH  37  38
ATOM     38  O   UNL     1       1.147  -5.595  -1.472  0.00  0.00    -0.394 OA
ATOM     39  H   UNL     1       1.329  -5.797  -2.400  0.00  0.00    +0.209 HD
ENDBRANCH  37  38
ENDBRANCH   6  37
TORSDOF 11
