REMARK  Name = ZINC63570125
REMARK  7 active torsions:
REMARK  status: ('A' for Active; 'I' for Inactive)
REMARK    1  A    between atoms: C_4  and  C_7
REMARK    2  A    between atoms: N_18  and  C_19
REMARK    3  A    between atoms: C_19  and  C_20
REMARK    4  A    between atoms: C_23  and  C_26
REMARK    5  A    between atoms: N_28  and  C_29
REMARK    6  A    between atoms: C_29  and  C_30
REMARK    7  A    between atoms: C_30  and  C_31
REMARK                            x       y       z     vdW  Elec       q    Type
REMARK                         _______ _______ _______ _____ _____    ______ ____
ROOT
ATOM      1  C   UNL     1       4.499  -3.550   4.386  0.00  0.00    -0.030 A 
ATOM      2  C   UNL     1       3.319  -2.908   4.717  0.00  0.00    +0.006 A 
ATOM      3  C   UNL     1       2.477  -3.451   5.665  0.00  0.00    +0.013 A 
ATOM      4  C   UNL     1       2.818  -4.652   6.290  0.00  0.00    +0.037 A 
ATOM      5  C   UNL     1       4.009  -5.295   5.951  0.00  0.00    +0.013 A 
ATOM      6  C   UNL     1       4.840  -4.744   4.997  0.00  0.00    +0.006 A 
ENDROOT
BRANCH   4   7
ATOM      7  C   UNL     1       1.920  -5.240   7.307  0.00  0.00    +0.244 C 
ATOM      8  O   UNL     1       0.883  -4.677   7.601  0.00  0.00    -0.270 OA
ATOM      9  N   UNL     1       2.252  -6.399   7.909  0.00  0.00    -0.311 N 
ATOM     10  H   UNL     1       3.079  -6.848   7.675  0.00  0.00    +0.149 HD
BRANCH   9  11
ATOM     11  C   UNL     1       1.363  -6.982   8.917  0.00  0.00    +0.109 C 
BRANCH  11  12
ATOM     12  C   UNL     1       1.968  -8.286   9.439  0.00  0.00    +0.052 C 
BRANCH  12  13
ATOM     13  C   UNL     1       1.054  -8.885  10.476  0.00  0.00    -0.040 C 
ATOM     14  C   UNL     1       0.108  -9.832  10.277  0.00  0.00    -0.001 A 
ATOM     15  C   UNL     1      -0.335 -10.559   9.081  0.00  0.00    +0.010 A 
ATOM     16  C   UNL     1      -1.328 -11.469   9.197  0.00  0.00    +0.001 A 
ATOM     17  C   UNL     1      -1.944 -11.735  10.428  0.00  0.00    +0.002 A 
ATOM     18  C   UNL     1      -1.592 -11.108  11.570  0.00  0.00    +0.026 A 
ATOM     19  C   UNL     1      -0.558 -10.132  11.565  0.00  0.00    +0.043 A 
ATOM     20  N   UNL     1      -0.044  -9.399  12.523  0.00  0.00    -0.380 N 
ATOM     21  C   UNL     1       1.011  -8.555  11.951  0.00  0.00    +0.144 C 
ATOM     22  H   UNL     1      -0.314  -9.415  13.454  0.00  0.00    +0.160 HD
ENDBRANCH  12  13
ENDBRANCH  11  12
ENDBRANCH   9  11
ENDBRANCH   4   7
BRANCH   1  23
ATOM     23  C   UNL     1       5.414  -2.951   3.349  0.00  0.00    +0.144 C 
BRANCH  23  33
ATOM     24  C   UNL     1       3.711  -0.707  -0.038  0.00  0.00    +0.103 C 
ATOM     25  C   UNL     1       4.056  -1.222   1.384  0.00  0.00    +0.064 C 
ATOM     26  C   UNL     1       4.071  -2.745   1.219  0.00  0.00    +0.163 C 
ATOM     27  N   UNL     1       4.435  -2.908  -0.215  0.00  0.00    -0.222 NA
ATOM     28  N   UNL     1       3.610  -1.925  -0.893  0.00  0.00    -0.245 NA
ATOM     29  C   UNL     1       4.274  -4.308  -0.580  0.00  0.00    +0.113 C 
ATOM     30  C   UNL     1       5.393  -5.089   0.127  0.00  0.00    +0.113 C 
ATOM     31  C   UNL     1       5.621  -4.576   1.520  0.00  0.00    +0.218 C 
ATOM     32  O   UNL     1       6.354  -5.210   2.249  0.00  0.00    -0.276 OA
ATOM     33  N   UNL     1       5.046  -3.454   2.023  0.00  0.00    -0.280 N 
ATOM     34  H   UNL     1       3.954  -1.742  -1.824  0.00  0.00    +0.142 HD
BRANCH  24  38
ATOM     35  C   UNL     1      -0.017   1.378   0.010  0.00  0.00    +0.000 A 
ATOM     36  C   UNL     1       1.171   2.086   0.002  0.00  0.00    +0.000 A 
ATOM     37  C   UNL     1       2.377   1.411  -0.013  0.00  0.00    +0.005 A 
ATOM     38  C   UNL     1       2.396   0.029  -0.020  0.00  0.00    -0.029 A 
ATOM     39  C   UNL     1       1.208  -0.679  -0.012  0.00  0.00    +0.005 A 
ATOM     40  C   UNL     1       0.002  -0.004   0.002  0.00  0.00    +0.000 A 
ENDBRANCH  24  38
ENDBRANCH  23  33
ENDBRANCH   1  23
TORSDOF 7
