REMARK  Name = ZINC39966939
REMARK  10 active torsions:
REMARK  status: ('A' for Active; 'I' for Inactive)
REMARK    1  A    between atoms: C_1  and  C_2
REMARK    2  A    between atoms: C_2  and  C_3
REMARK    3  A    between atoms: C_2  and  C_4
REMARK    4  A    between atoms: C_2  and  C_5
REMARK    5  A    between atoms: C_11  and  C_13
REMARK    6  A    between atoms: C_13  and  S_14
REMARK    7  A    between atoms: S_14  and  C_15
REMARK    8  A    between atoms: C_18  and  C_27
REMARK    9  A    between atoms: N_19  and  C_20
REMARK   10  A    between atoms: C_20  and  C_21
REMARK                            x       y       z     vdW  Elec       q    Type
REMARK                         _______ _______ _______ _____ _____    ______ ____
ROOT
ATOM      1  C   UNL     1       0.928  -4.227  -9.311  0.00  0.00    +0.192 A 
ATOM      2  N   UNL     1      -0.383  -4.277  -9.321  0.00  0.00    -0.122 NA
ATOM      3  N   UNL     1      -0.805  -4.574 -10.498  0.00  0.00    -0.128 NA
ATOM      4  C   UNL     1       0.211  -4.732 -11.313  0.00  0.00    +0.166 A 
ATOM      5  N   UNL     1       1.354  -4.509 -10.580  0.00  0.00    -0.300 N 
ENDROOT
BRANCH   4   6
ATOM      6  C   UNL     1       0.141  -5.078 -12.748  0.00  0.00    +0.030 A 
ATOM      7  C   UNL     1       0.862  -4.364 -13.662  0.00  0.00    +0.057 A 
ATOM      8  S   UNL     1       0.425  -5.178 -15.190  0.00  0.00    -0.101 S 
ATOM      9  C   UNL     1      -0.668  -6.402 -14.512  0.00  0.00    -0.006 A 
ATOM     10  C   UNL     1      -0.665  -6.151 -13.180  0.00  0.00    -0.026 A 
ATOM     11  C   UNL     1      -1.502  -6.968 -12.200  0.00  0.00    +0.036 C 
ATOM     12  C   UNL     1      -1.739  -8.366 -12.760  0.00  0.00    +0.005 C 
ATOM     13  C   UNL     1      -3.012  -8.401 -13.603  0.00  0.00    +0.001 C 
ATOM     14  C   UNL     1      -2.869  -7.475 -14.807  0.00  0.00    +0.005 C 
ATOM     15  C   UNL     1      -1.406  -7.473 -15.249  0.00  0.00    +0.043 C 
ENDBRANCH   4   6
BRANCH   1  16
ATOM     16  S   UNL     1       1.950  -3.858  -7.924  0.00  0.00    -0.077 S 
BRANCH  16  17
ATOM     17  C   UNL     1       0.772  -3.588  -6.571  0.00  0.00    +0.173 C 
BRANCH  17  24
ATOM     18  C   UNL     1       1.863  -2.179  -0.791  0.00  0.00    +0.056 A 
ATOM     19  C   UNL     1       3.196  -2.183  -1.038  0.00  0.00    +0.072 A 
ATOM     20  S   UNL     1       3.210  -2.592  -2.776  0.00  0.00    -0.060 S 
ATOM     21  C   UNL     1       1.547  -2.714  -3.000  0.00  0.00    +0.165 A 
ATOM     22  N   UNL     1       1.064  -2.457  -1.804  0.00  0.00    -0.229 NA
ATOM     23  N   UNL     1       0.852  -3.017  -4.166  0.00  0.00    -0.264 N 
ATOM     24  C   UNL     1       1.526  -3.259  -5.308  0.00  0.00    +0.229 C 
ATOM     25  O   UNL     1       2.737  -3.212  -5.319  0.00  0.00    -0.275 OA
ATOM     26  H   UNL     1      -0.117  -3.055  -4.157  0.00  0.00    +0.157 HD
BRANCH  18  28
ATOM     27  C   UNL     1       1.419  -0.376   0.853  0.00  0.00    +0.017 C 
ATOM     28  C   UNL     1       1.318  -1.879   0.582  0.00  0.00    +0.005 C 
ATOM     29  C   UNL     1       2.129  -2.642   1.631  0.00  0.00    +0.017 C 
ATOM     30  C   UNL     1      -0.147  -2.312   0.655  0.00  0.00    +0.017 C 
ENDBRANCH  18  28
ENDBRANCH  17  24
ENDBRANCH  16  17
ENDBRANCH   1  16
BRANCH   5  31
ATOM     31  C   UNL     1       2.737  -4.565 -11.058  0.00  0.00    +0.157 C 
BRANCH  31  32
ATOM     32  C   UNL     1       3.320  -5.951 -10.774  0.00  0.00    +0.138 C 
ATOM     33  C   UNL     1       4.813  -5.982 -11.164  0.00  0.00    +0.035 C 
ATOM     34  C   UNL     1       4.960  -7.395 -11.793  0.00  0.00    +0.031 C 
ATOM     35  C   UNL     1       3.574  -7.564 -12.463  0.00  0.00    +0.160 C 
ATOM     36  O   UNL     1       2.643  -6.934 -11.567  0.00  0.00    -0.375 OA
ENDBRANCH  31  32
ENDBRANCH   5  31
TORSDOF 7
