REMARK  Name = ZINC21740519
REMARK  10 active torsions:
REMARK  status: ('A' for Active; 'I' for Inactive)
REMARK    1  A    between atoms: C_1  and  C_2
REMARK    2  A    between atoms: N_10  and  N_14
REMARK    3  A    between atoms: C_15  and  C_17
REMARK    4  A    between atoms: C_17  and  O_18
REMARK    5  A    between atoms: O_18  and  C_19
REMARK    6  A    between atoms: C_19  and  C_21
REMARK    7  A    between atoms: C_21  and  C_22
REMARK    8  A    between atoms: C_22  and  C_23
REMARK    9  A    between atoms: C_23  and  N_24
REMARK   10  A    between atoms: C_25  and  C_27
REMARK                            x       y       z     vdW  Elec       q    Type
REMARK                         _______ _______ _______ _____ _____    ______ ____
ROOT
ATOM      1  N   UNL     1      -1.191   1.867   0.018  0.00  0.00    -0.221 N 
ATOM      2  C   UNL     1      -0.014   1.209   0.009  0.00  0.00    +0.267 C 
ATOM      3  O   UNL     1       0.002  -0.004   0.002  0.00  0.00    -0.271 OA
ATOM      4  H   UNL     1      -1.206   2.966   0.024  0.00  0.00    +0.174 HD
ENDROOT
BRANCH   1  14
ATOM      5  C   UNL     1      -8.066  -2.056   0.588  0.00  0.00    +0.007 C 
ATOM      6  C   UNL     1      -6.893  -1.208   1.083  0.00  0.00    -0.014 C 
ATOM      7  C   UNL     1      -5.589  -1.988   0.906  0.00  0.00    +0.006 C 
ATOM      8  C   UNL     1      -4.418  -1.143   1.412  0.00  0.00    +0.035 C 
ATOM      9  C   UNL     1      -4.357   0.167   0.633  0.00  0.00    +0.114 C 
ATOM     10  C   UNL     1      -5.660   0.944   0.781  0.00  0.00    +0.035 C 
ATOM     11  C   UNL     1      -6.827   0.090   0.276  0.00  0.00    +0.006 C 
ATOM     12  C   UNL     1      -3.188   1.004   1.101  0.00  0.00    +0.263 C 
ATOM     13  O   UNL     1      -3.004   1.451   2.212  0.00  0.00    -0.271 OA
ATOM     14  N   UNL     1      -2.394   1.150   0.020  0.00  0.00    -0.137 N 
ATOM     15  C   UNL     1      -2.902   0.529  -1.052  0.00  0.00    +0.326 C 
ATOM     16  O   UNL     1      -2.369   0.522  -2.145  0.00  0.00    -0.251 OA
ATOM     17  N   UNL     1      -4.067  -0.090  -0.783  0.00  0.00    -0.284 N 
ATOM     18  H   UNL     1      -4.763  -0.692  -1.387  0.00  0.00    +0.151 HD
ENDBRANCH   1  14
BRANCH   2  19
ATOM     19  C   UNL     1       1.280   1.980   0.001  0.00  0.00    +0.329 C 
BRANCH  19  20
ATOM     20  O   UNL     1       2.397   1.051  -0.015  0.00  0.00    -0.455 OA
BRANCH  20  21
ATOM     21  C   UNL     1       3.630   1.581  -0.024  0.00  0.00    +0.308 C 
ATOM     22  O   UNL     1       3.772   2.781  -0.019  0.00  0.00    -0.251 OA
BRANCH  21  23
ATOM     23  C   UNL     1       4.837   0.680  -0.041  0.00  0.00    +0.122 C 
BRANCH  23  24
ATOM     24  C   UNL     1       6.109   1.530  -0.048  0.00  0.00    +0.030 C 
BRANCH  24  25
ATOM     25  C   UNL     1       7.335   0.615  -0.065  0.00  0.00    +0.105 C 
BRANCH  25  26
ATOM     26  N   UNL     1       8.553   1.429  -0.072  0.00  0.00    -0.311 N 
ATOM     27  C   UNL     1       9.761   0.834  -0.087  0.00  0.00    +0.244 C 
ATOM     28  O   UNL     1       9.841  -0.379  -0.094  0.00  0.00    -0.270 OA
ATOM     29  H   UNL     1       8.480   2.527  -0.065  0.00  0.00    +0.149 HD
BRANCH  27  30
ATOM     30  C   UNL     1      10.990   1.656  -0.094  0.00  0.00    +0.037 A 
ATOM     31  C   UNL     1      10.901   3.049  -0.091  0.00  0.00    +0.014 A 
ATOM     32  C   UNL     1      12.051   3.810  -0.092  0.00  0.00    +0.021 A 
ATOM     33  C   UNL     1      13.292   3.196  -0.107  0.00  0.00    +0.041 A 
ATOM     34  C   UNL     1      13.386   1.814  -0.116  0.00  0.00    +0.021 A 
ATOM     35  C   UNL     1      12.244   1.042  -0.109  0.00  0.00    +0.014 A 
ATOM     36 CL   UNL     1      14.735   4.161  -0.115  0.00  0.00    -0.084 Cl
ENDBRANCH  27  30
ENDBRANCH  25  26
ENDBRANCH  24  25
ENDBRANCH  23  24
ENDBRANCH  21  23
ENDBRANCH  20  21
ENDBRANCH  19  20
ENDBRANCH   2  19
TORSDOF 9
