REMARK  Name = ZINC63411406
REMARK  6 active torsions:
REMARK  status: ('A' for Active; 'I' for Inactive)
REMARK    1  A    between atoms: C_1  and  C_2
REMARK    2  A    between atoms: C_2  and  C_4
REMARK    3  A    between atoms: C_2  and  N_18
REMARK    4  A    between atoms: N_6  and  N_7
REMARK    5  A    between atoms: C_8  and  C_9
REMARK    6  A    between atoms: N_18  and  C_19
REMARK                            x       y       z     vdW  Elec       q    Type
REMARK                         _______ _______ _______ _____ _____    ______ ____
ROOT
ATOM      1  C   UNL     1       0.731  -0.503   1.223  0.00  0.00    +0.252 C 
ATOM      2  O   UNL     1       0.159  -1.213   2.023  0.00  0.00    -0.272 OA
ATOM      3  N   UNL     1       2.019  -0.161   1.426  0.00  0.00    -0.205 N 
ATOM      4  H   UNL     1       2.476   0.406   0.786  0.00  0.00    +0.177 HD
ENDROOT
BRANCH   1   6
ATOM      5  C   UNL     1      -0.019   1.526   0.010  0.00  0.00    +0.038 C 
ATOM      6  C   UNL     1       0.002  -0.004   0.002  0.00  0.00    +0.155 C 
BRANCH   6   7
ATOM      7  N   UNL     1      -1.372  -0.511   0.012  0.00  0.00    -0.333 N 
ATOM      8  H   UNL     1      -1.794  -0.752   0.852  0.00  0.00    +0.147 HD
BRANCH   7   9
ATOM      9  C   UNL     1      -2.074  -0.647  -1.184  0.00  0.00    +0.035 A 
ATOM     10  C   UNL     1      -1.478  -0.312  -2.381  0.00  0.00    +0.023 A 
ATOM     11  C   UNL     1      -2.170  -0.444  -3.581  0.00  0.00    +0.002 A 
ATOM     12  C   UNL     1      -3.450  -0.907  -3.607  0.00  0.00    +0.008 A 
ATOM     13  C   UNL     1      -4.094  -1.260  -2.409  0.00  0.00    -0.016 A 
ATOM     14  C   UNL     1      -3.398  -1.135  -1.181  0.00  0.00    +0.003 A 
ATOM     15  C   UNL     1      -4.040  -1.493   0.015  0.00  0.00    +0.010 A 
ATOM     16  C   UNL     1      -5.319  -1.959  -0.021  0.00  0.00    +0.001 A 
ATOM     17  C   UNL     1      -6.002  -2.088  -1.228  0.00  0.00    +0.001 A 
ATOM     18  C   UNL     1      -5.415  -1.740  -2.406  0.00  0.00    +0.008 A 
ENDBRANCH   7   9
ENDBRANCH   6   7
ENDBRANCH   1   6
BRANCH   3  19
ATOM     19  N   UNL     1       2.696  -0.625   2.561  0.00  0.00    -0.188 NA
ATOM     20  C   UNL     1       3.947  -0.293   2.758  0.00  0.00    +0.136 C 
BRANCH  20  21
ATOM     21  C   UNL     1       4.625  -0.758   3.894  0.00  0.00    +0.000 C 
ATOM     22  C   UNL     1       5.945  -0.495   4.253  0.00  0.00    +0.004 A 
ATOM     23  C   UNL     1       6.967   0.267   3.643  0.00  0.00    +0.010 A 
ATOM     24  C   UNL     1       8.187   0.349   4.231  0.00  0.00    +0.001 A 
ATOM     25  C   UNL     1       8.466  -0.306   5.434  0.00  0.00    +0.002 A 
ATOM     26  C   UNL     1       7.536  -1.054   6.074  0.00  0.00    +0.026 A 
ATOM     27  C   UNL     1       6.234  -1.187   5.521  0.00  0.00    +0.043 A 
ATOM     28  N   UNL     1       5.173  -1.844   5.939  0.00  0.00    -0.380 N 
ATOM     29  C   UNL     1       4.075  -1.644   4.989  0.00  0.00    +0.150 C 
ATOM     30  H   UNL     1       5.124  -2.373   6.751  0.00  0.00    +0.160 HD
ENDBRANCH  20  21
ENDBRANCH   3  19
TORSDOF 5
