REMARK  Name = ZINC09493360
REMARK  10 active torsions:
REMARK  status: ('A' for Active; 'I' for Inactive)
REMARK    1  A    between atoms: C_1  and  C_2
REMARK    2  A    between atoms: C_5  and  N_9
REMARK    3  A    between atoms: C_6  and  C_8
REMARK    4  A    between atoms: C_19  and  N_20
REMARK    5  A    between atoms: N_20  and  N_21
REMARK    6  A    between atoms: C_22  and  C_24
REMARK    7  A    between atoms: C_24  and  S_25
REMARK    8  A    between atoms: S_25  and  C_26
REMARK    9  A    between atoms: C_28  and  C_33
REMARK   10  A    between atoms: C_30  and  C_32
REMARK                            x       y       z     vdW  Elec       q    Type
REMARK                         _______ _______ _______ _____ _____    ______ ____
ROOT
ATOM      1  N   UNL     1       2.538  -2.748  -0.794  0.00  0.00    -0.202 N 
ATOM      2  C   UNL     1       1.345  -2.135  -0.717  0.00  0.00    +0.258 C 
ATOM      3  O   UNL     1       0.330  -2.776  -0.917  0.00  0.00    -0.269 OA
ATOM      4  C   UNL     1       1.246  -0.706  -0.396  0.00  0.00    +0.046 A 
ATOM      5  C   UNL     1       0.009  -0.064  -0.315  0.00  0.00    +0.014 A 
ATOM      6  C   UNL     1      -0.042   1.280  -0.011  0.00  0.00    +0.001 A 
ATOM      7  C   UNL     1       1.121   2.001   0.215  0.00  0.00    +0.001 A 
ATOM      8  C   UNL     1       2.354   1.385   0.139  0.00  0.00    +0.009 A 
ATOM      9  C   UNL     1       2.426   0.030  -0.166  0.00  0.00    +0.000 A 
ATOM     10  C   UNL     1       3.720  -0.678  -0.260  0.00  0.00    +0.060 C 
ATOM     11  C   UNL     1       4.908  -0.015  -0.046  0.00  0.00    +0.101 C 
ATOM     12  C   UNL     1       3.700  -2.108  -0.587  0.00  0.00    +0.259 C 
ATOM     13  O   UNL     1       4.749  -2.721  -0.673  0.00  0.00    -0.269 OA
ENDROOT
BRANCH   1  18
ATOM     14  C   UNL     1       2.674  -8.280  -2.051  0.00  0.00    +0.044 C 
ATOM     15  C   UNL     1       2.637  -6.811  -1.718  0.00  0.00    -0.050 A 
ATOM     16  C   UNL     1       2.560  -6.404  -0.398  0.00  0.00    +0.005 A 
ATOM     17  C   UNL     1       2.532  -5.059  -0.088  0.00  0.00    +0.024 A 
ATOM     18  C   UNL     1       2.571  -4.113  -1.105  0.00  0.00    +0.047 A 
ATOM     19  C   UNL     1       2.649  -4.524  -2.429  0.00  0.00    -0.028 A 
ATOM     20  C   UNL     1       2.682  -5.872  -2.731  0.00  0.00    +0.008 A 
ATOM     21  C   UNL     1       2.697  -3.501  -3.534  0.00  0.00    +0.046 C 
ENDBRANCH   1  18
BRANCH  11  22
ATOM     22  N   UNL     1       6.070  -0.715   0.041  0.00  0.00    -0.271 N 
ATOM     23  H   UNL     1       6.054  -1.684   0.036  0.00  0.00    +0.169 HD
BRANCH  22  24
ATOM     24  N   UNL     1       7.291  -0.035   0.138  0.00  0.00    -0.236 N 
ATOM     25  C   UNL     1       8.443  -0.729   0.225  0.00  0.00    +0.239 C 
ATOM     26  O   UNL     1       8.423  -1.941   0.218  0.00  0.00    -0.273 OA
ATOM     27  H   UNL     1       7.307   0.935   0.143  0.00  0.00    +0.173 HD
BRANCH  25  28
ATOM     28  C   UNL     1       9.757   0.003   0.329  0.00  0.00    +0.174 C 
BRANCH  28  29
ATOM     29  S   UNL     1      11.109  -1.197   0.429  0.00  0.00    -0.077 S 
BRANCH  29  30
ATOM     30  C   UNL     1      12.483  -0.100   0.539  0.00  0.00    +0.189 A 
ATOM     31  N   UNL     1      12.271   1.208   0.522  0.00  0.00    -0.227 NA
ATOM     32  C   UNL     1      13.280   2.058   0.609  0.00  0.00    +0.043 A 
ATOM     33  C   UNL     1      14.572   1.566   0.707  0.00  0.00    +0.046 A 
ATOM     34  C   UNL     1      14.760   0.193   0.717  0.00  0.00    +0.043 A 
ATOM     35  N   UNL     1      13.707  -0.603   0.632  0.00  0.00    -0.227 NA
ATOM     36  C   UNL     1      16.147  -0.387   0.822  0.00  0.00    +0.066 C 
ATOM     37  C   UNL     1      13.029   3.544   0.595  0.00  0.00    +0.066 C 
ENDBRANCH  29  30
ENDBRANCH  28  29
ENDBRANCH  25  28
ENDBRANCH  22  24
ENDBRANCH  11  22
TORSDOF 6
