REMARK  Name = ZINC36313879
REMARK  18 active torsions:
REMARK  status: ('A' for Active; 'I' for Inactive)
REMARK    1  A    between atoms: C_1  and  C_2
REMARK    2  A    between atoms: C_2  and  C_3
REMARK    3  A    between atoms: C_3  and  C_4
REMARK    4  A    between atoms: C_4  and  C_5
REMARK    5  A    between atoms: C_5  and  C_7
REMARK    6  A    between atoms: C_5  and  O_35
REMARK    7  A    between atoms: C_7  and  N_8
REMARK    8  A    between atoms: N_8  and  C_9
REMARK    9  A    between atoms: N_8  and  C_13
REMARK   10  A    between atoms: C_9  and  C_10
REMARK   11  A    between atoms: C_10  and  O_11
REMARK   12  A    between atoms: O_11  and  C_12
REMARK   13  A    between atoms: C_13  and  C_14
REMARK   14  A    between atoms: C_15  and  C_33
REMARK   15  A    between atoms: N_17  and  C_27
REMARK   16  A    between atoms: C_18  and  O_19
REMARK   17  A    between atoms: O_19  and  C_20
REMARK   18  A    between atoms: C_33  and  C_34
REMARK                            x       y       z     vdW  Elec       q    Type
REMARK                         _______ _______ _______ _____ _____    ______ ____
ROOT
ATOM      1  C   UNL     1       2.735  -5.770   5.357  0.00  0.00    +0.021 A 
ATOM      2  C   UNL     1       2.276  -6.167   6.616  0.00  0.00    +0.068 A 
ATOM      3  N   UNL     1       3.307  -6.520   7.341  0.00  0.00    -0.168 NA
ATOM      4  N   UNL     1       4.465  -6.361   6.569  0.00  0.00    -0.200 N 
ATOM      5  C   UNL     1       4.089  -5.902   5.345  0.00  0.00    +0.225 A 
ENDROOT
BRANCH   4   6
ATOM      6  C   UNL     1       5.777  -6.631   6.983  0.00  0.00    +0.069 A 
ATOM      7  C   UNL     1       6.667  -7.247   6.113  0.00  0.00    +0.028 A 
ATOM      8  C   UNL     1       7.959  -7.511   6.524  0.00  0.00    +0.002 A 
ATOM      9  C   UNL     1       8.366  -7.164   7.799  0.00  0.00    +0.000 A 
ATOM     10  C   UNL     1       7.481  -6.552   8.667  0.00  0.00    +0.002 A 
ATOM     11  C   UNL     1       6.190  -6.279   8.261  0.00  0.00    +0.028 A 
ENDBRANCH   4   6
BRANCH   2  12
ATOM     12  C   UNL     1       0.837  -6.185   7.063  0.00  0.00    +0.054 C 
ATOM     13  C   UNL     1       0.255  -7.584   6.854  0.00  0.00    +0.010 C 
ENDBRANCH   2  12
BRANCH   1  14
ATOM     14  C   UNL     1       1.882  -5.287   4.213  0.00  0.00    -0.036 C 
BRANCH  14  15
ATOM     15  N   UNL     1       1.627  -3.849   4.364  0.00  0.00    +0.386 N 
ATOM     16  H   UNL     1       1.250  -3.669   5.283  0.00  0.00    -0.081 HD
BRANCH  15  17
ATOM     17  C   UNL     1       0.663  -3.412   3.345  0.00  0.00    -0.047 C 
BRANCH  17  18
ATOM     18  C   UNL     1       0.275  -1.954   3.603  0.00  0.00    +0.098 C 
BRANCH  18  19
ATOM     19  O   UNL     1       1.408  -1.113   3.378  0.00  0.00    -0.394 OA
ATOM     20  H   UNL     1       1.690  -1.071   2.454  0.00  0.00    +0.210 HD
ENDBRANCH  18  19
BRANCH  18  21
ATOM     21  C   UNL     1      -0.855  -1.552   2.652  0.00  0.00    +0.029 C 
BRANCH  21  22
ATOM     22  C   UNL     1      -1.328  -0.138   2.992  0.00  0.00    +0.002 C 
BRANCH  22  24
ATOM     23  C   UNL     1      -2.931   1.679   2.382  0.00  0.00    +0.004 C 
ATOM     24  C   UNL     1      -2.458   0.264   2.042  0.00  0.00    -0.003 C 
ENDBRANCH  22  24
ENDBRANCH  21  22
ENDBRANCH  18  21
ENDBRANCH  17  18
ENDBRANCH  15  17
BRANCH  15  25
ATOM     25  C   UNL     1       2.885  -3.109   4.197  0.00  0.00    -0.050 C 
BRANCH  25  26
ATOM     26  C   UNL     1       3.478  -3.414   2.820  0.00  0.00    +0.141 C 
BRANCH  26  27
ATOM     27  O   UNL     1       2.685  -2.786   1.811  0.00  0.00    -0.385 OA
ATOM     28  C   UNL     1       3.155  -3.010   0.480  0.00  0.00    +0.193 C 
ENDBRANCH  26  27
ENDBRANCH  25  26
ENDBRANCH  15  25
ENDBRANCH  14  15
ENDBRANCH   1  14
BRANCH   5  29
ATOM     29  O   UNL     1       4.914  -5.624   4.304  0.00  0.00    -0.438 OA
BRANCH  29  30
ATOM     30  C   UNL     1       5.130  -6.600   3.383  0.00  0.00    +0.131 A 
ATOM     31  C   UNL     1       4.426  -7.793   3.457  0.00  0.00    +0.049 A 
ATOM     32  C   UNL     1       4.647  -8.784   2.520  0.00  0.00    +0.042 A 
ATOM     33  C   UNL     1       5.569  -8.586   1.507  0.00  0.00    +0.124 A 
ATOM     34  C   UNL     1       6.273  -7.396   1.432  0.00  0.00    +0.042 A 
ATOM     35  C   UNL     1       6.050  -6.402   2.364  0.00  0.00    +0.049 A 
ATOM     36  F   UNL     1       5.784  -9.556   0.591  0.00  0.00    -0.205 F 
ENDBRANCH  29  30
ENDBRANCH   5  29
TORSDOF 15
