REMARK  Name = ZINC08928945
REMARK  7 active torsions:
REMARK  status: ('A' for Active; 'I' for Inactive)
REMARK    1  A    between atoms: N_9  and  C_12
REMARK    2  A    between atoms: C_15  and  C_18
REMARK    3  A    between atoms: C_18  and  O_20
REMARK    4  A    between atoms: O_20  and  C_21
REMARK    5  A    between atoms: C_21  and  C_22
REMARK    6  A    between atoms: N_24  and  C_25
REMARK    7  A    between atoms: C_26  and  C_33
REMARK                            x       y       z     vdW  Elec       q    Type
REMARK                         _______ _______ _______ _____ _____    ______ ____
ROOT
ATOM      1  C   UNL     1      -3.181  -7.188  -0.009  0.00  0.00    +0.340 C 
ATOM      2  O   UNL     1      -4.396  -7.208   0.001  0.00  0.00    -0.245 OA
ENDROOT
BRANCH   1   6
ATOM      3  C   UNL     1      -1.119  -3.476  -0.006  0.00  0.00    +0.045 A 
ATOM      4  C   UNL     1      -0.402  -4.667  -0.026  0.00  0.00    +0.025 A 
ATOM      5  C   UNL     1      -1.067  -5.873  -0.021  0.00  0.00    +0.017 A 
ATOM      6  C   UNL     1      -2.465  -5.898  -0.008  0.00  0.00    +0.059 A 
ATOM      7  C   UNL     1      -3.182  -4.698   0.006  0.00  0.00    +0.017 A 
ATOM      8  C   UNL     1      -2.510  -3.497   0.007  0.00  0.00    +0.025 A 
BRANCH   3  17
ATOM      9  C   UNL     1       2.386   1.414  -0.013  0.00  0.00    +0.001 A 
ATOM     10  C   UNL     1       1.178   2.085   0.002  0.00  0.00    +0.001 A 
ATOM     11  C   UNL     1      -0.017   1.381   0.010  0.00  0.00    +0.014 A 
ATOM     12  C   UNL     1       0.002  -0.004   0.002  0.00  0.00    +0.050 A 
ATOM     13  C   UNL     1       1.235  -0.689  -0.013  0.00  0.00    +0.050 A 
ATOM     14  C   UNL     1       2.421   0.028  -0.021  0.00  0.00    +0.014 A 
ATOM     15  C   UNL     1       0.898  -2.127  -0.018  0.00  0.00    +0.258 C 
ATOM     16  O   UNL     1       1.696  -3.042  -0.030  0.00  0.00    -0.269 OA
ATOM     17  N   UNL     1      -0.441  -2.255  -0.006  0.00  0.00    -0.202 N 
ATOM     18  C   UNL     1      -1.042  -1.051   0.006  0.00  0.00    +0.258 C 
ATOM     19  O   UNL     1      -2.240  -0.856   0.019  0.00  0.00    -0.269 OA
ENDBRANCH   3  17
ENDBRANCH   1   6
BRANCH   1  20
ATOM     20  O   UNL     1      -2.488  -8.343  -0.023  0.00  0.00    -0.452 OA
BRANCH  20  21
ATOM     21  C   UNL     1      -3.258  -9.574  -0.023  0.00  0.00    +0.328 C 
BRANCH  21  22
ATOM     22  C   UNL     1      -2.321 -10.754  -0.039  0.00  0.00    +0.255 C 
ATOM     23  O   UNL     1      -1.121 -10.575  -0.049  0.00  0.00    -0.272 OA
ATOM     24  N   UNL     1      -2.815 -12.007  -0.042  0.00  0.00    -0.277 N 
ATOM     25  H   UNL     1      -3.774 -12.150  -0.034  0.00  0.00    +0.155 HD
BRANCH  24  26
ATOM     26  C   UNL     1      -1.952 -13.093  -0.057  0.00  0.00    +0.084 A 
ATOM     27  C   UNL     1      -2.265 -14.441  -0.056  0.00  0.00    +0.068 A 
ATOM     28  C   UNL     1      -1.157 -15.394  -0.077  0.00  0.00    -0.023 A 
ATOM     29  C   UNL     1       0.070 -14.843  -0.085  0.00  0.00    -0.004 A 
ATOM     30  S   UNL     1      -0.221 -13.091  -0.071  0.00  0.00    -0.077 S 
ATOM     31  C   UNL     1       1.157 -15.884  -0.104  0.00  0.00    +0.043 C 
ATOM     32  C   UNL     1       0.444 -17.182  -0.544  0.00  0.00    +0.010 C 
ATOM     33  C   UNL     1      -1.004 -16.916  -0.086  0.00  0.00    +0.037 C 
BRANCH  27  34
ATOM     34  C   UNL     1      -3.659 -14.897  -0.040  0.00  0.00    +0.244 C 
ATOM     35  O   UNL     1      -4.251 -15.084  -1.087  0.00  0.00    -0.270 OA
ATOM     36  N   UNL     1      -4.284 -15.109   1.135  0.00  0.00    -0.325 N 
ATOM     37  H   UNL     1      -3.813 -14.961   1.970  0.00  0.00    +0.145 HD
ATOM     38  H   UNL     1      -5.206 -15.411   1.146  0.00  0.00    +0.145 HD
ENDBRANCH  27  34
ENDBRANCH  24  26
ENDBRANCH  21  22
ENDBRANCH  20  21
ENDBRANCH   1  20
TORSDOF 7
