REMARK  Name = ZINC08940365
REMARK  10 active torsions:
REMARK  status: ('A' for Active; 'I' for Inactive)
REMARK    1  A    between atoms: C_1  and  C_2
REMARK    2  A    between atoms: C_2  and  C_3
REMARK    3  A    between atoms: C_3  and  N_52
REMARK    4  A    between atoms: C_4  and  C_5
REMARK    5  A    between atoms: C_4  and  N_52
REMARK    6  A    between atoms: C_8  and  C_10
REMARK    7  A    between atoms: N_12  and  C_13
REMARK    8  A    between atoms: C_20  and  C_21
REMARK    9  A    between atoms: C_20  and  N_52
REMARK   10  A    between atoms: N_23  and  C_24
REMARK                            x       y       z     vdW  Elec       q    Type
REMARK                         _______ _______ _______ _____ _____    ______ ____
ROOT
ATOM      1  N   UNL     1      -2.387   0.790   0.775  0.00  0.00    +0.389 N 
ATOM      2  H   UNL     1      -2.162   0.268  -0.080  0.00  0.00    -0.081 HD
ENDROOT
BRANCH   1   3
ATOM      3  C   UNL     1      -2.408  -0.147   1.919  0.00  0.00    -0.078 C 
BRANCH   3   5
ATOM      4  C   UNL     1      -2.707  -0.378   4.388  0.00  0.00    +0.002 C 
ATOM      5  C   UNL     1      -2.813   0.582   3.202  0.00  0.00    -0.022 C 
ENDBRANCH   3   5
ENDBRANCH   1   3
BRANCH   1   6
ATOM      6  C   UNL     1      -3.713   1.423   0.617  0.00  0.00    -0.012 C 
BRANCH   6   7
ATOM      7  C   UNL     1      -4.675   0.402   0.066  0.00  0.00    +0.086 A 
ATOM      8  N   UNL     1      -5.533  -0.374   0.704  0.00  0.00    -0.148 NA
ATOM      9  N   UNL     1      -6.281  -1.188   0.094  0.00  0.00    -0.137 NA
ATOM     10  C   UNL     1      -6.223  -1.288  -1.231  0.00  0.00    +0.187 A 
ATOM     11  S   UNL     1      -4.962  -0.069  -1.583  0.00  0.00    -0.048 S 
BRANCH  10  12
ATOM     12  C   UNL     1      -6.985  -2.153  -2.148  0.00  0.00    +0.275 C 
ATOM     13  O   UNL     1      -6.784  -2.095  -3.346  0.00  0.00    -0.268 OA
ATOM     14  N   UNL     1      -7.904  -3.009  -1.659  0.00  0.00    -0.280 N 
ATOM     15  H   UNL     1      -8.121  -3.000  -0.714  0.00  0.00    +0.155 HD
BRANCH  14  16
ATOM     16  C   UNL     1      -8.546  -3.909  -2.515  0.00  0.00    +0.034 A 
ATOM     17  C   UNL     1      -9.873  -4.256  -2.292  0.00  0.00    +0.025 A 
ATOM     18  C   UNL     1     -10.506  -5.142  -3.142  0.00  0.00    +0.022 A 
ATOM     19  C   UNL     1      -9.817  -5.691  -4.209  0.00  0.00    +0.041 A 
ATOM     20  C   UNL     1      -8.494  -5.351  -4.431  0.00  0.00    +0.022 A 
ATOM     21  C   UNL     1      -7.857  -4.462  -3.587  0.00  0.00    +0.025 A 
ATOM     22 CL   UNL     1     -10.614  -6.808  -5.272  0.00  0.00    -0.084 Cl
ENDBRANCH  14  16
ENDBRANCH  10  12
ENDBRANCH   6   7
ENDBRANCH   1   6
BRANCH   1  23
ATOM     23  C   UNL     1      -1.355   1.826   0.990  0.00  0.00    +0.019 C 
BRANCH  23  24
ATOM     24  C   UNL     1       0.004   1.178   0.928  0.00  0.00    +0.201 C 
ATOM     25  O   UNL     1       0.099  -0.017   0.743  0.00  0.00    -0.278 OA
ATOM     26  N   UNL     1       1.115   1.927   1.073  0.00  0.00    -0.285 N 
ATOM     27  H   UNL     1       1.043   2.891   1.154  0.00  0.00    +0.155 HD
BRANCH  26  28
ATOM     28  C   UNL     1       2.375   1.314   1.106  0.00  0.00    +0.072 A 
ATOM     29  C   UNL     1       2.620   0.187   0.333  0.00  0.00    +0.029 A 
ATOM     30  C   UNL     1       3.863  -0.415   0.363  0.00  0.00    +0.043 A 
ATOM     31  C   UNL     1       4.864   0.098   1.170  0.00  0.00    +0.161 A 
ATOM     32  C   UNL     1       4.622   1.220   1.948  0.00  0.00    +0.195 A 
ATOM     33  C   UNL     1       3.379   1.829   1.917  0.00  0.00    +0.182 A 
ATOM     34  F   UNL     1       3.143   2.923   2.674  0.00  0.00    -0.200 F 
ATOM     35  F   UNL     1       5.600   1.720   2.736  0.00  0.00    -0.199 F 
ATOM     36  F   UNL     1       6.077  -0.495   1.201  0.00  0.00    -0.202 F 
ENDBRANCH  26  28
ENDBRANCH  23  24
ENDBRANCH   1  23
TORSDOF 9
