REMARK  Name = ZINC12703917
REMARK  15 active torsions:
REMARK  status: ('A' for Active; 'I' for Inactive)
REMARK    1  A    between atoms: C_1  and  C_2
REMARK    2  A    between atoms: C_2  and  N_70
REMARK    3  A    between atoms: C_3  and  C_4
REMARK    4  A    between atoms: C_3  and  N_70
REMARK    5  A    between atoms: C_5  and  C_6
REMARK    6  A    between atoms: C_5  and  N_70
REMARK    7  A    between atoms: C_6  and  C_7
REMARK    8  A    between atoms: C_7  and  N_8
REMARK    9  A    between atoms: N_8  and  C_9
REMARK   10  A    between atoms: C_9  and  C_10
REMARK   11  A    between atoms: C_15  and  C_23
REMARK   12  A    between atoms: C_16  and  C_22
REMARK   13  A    between atoms: N_26  and  C_27
REMARK   14  A    between atoms: C_30  and  O_33
REMARK   15  A    between atoms: O_33  and  C_34
REMARK                            x       y       z     vdW  Elec       q    Type
REMARK                         _______ _______ _______ _____ _____    ______ ____
ROOT
ATOM      1  N   UNL     1       3.213   2.927  -0.123  0.00  0.00    -0.281 N 
ATOM      2  C   UNL     1       2.485   3.930   0.407  0.00  0.00    +0.307 C 
ATOM      3  O   UNL     1       1.698   4.543  -0.288  0.00  0.00    -0.252 OA
ATOM      4  N   UNL     1       2.630   4.254   1.707  0.00  0.00    -0.269 N 
ATOM      5  H   UNL     1       3.307   3.813   2.244  0.00  0.00    +0.156 HD
ENDROOT
BRANCH   4   6
ATOM      6  C   UNL     1       1.804   5.228   2.283  0.00  0.00    +0.035 A 
ATOM      7  C   UNL     1       1.401   6.327   1.537  0.00  0.00    +0.027 A 
ATOM      8  C   UNL     1       0.582   7.284   2.103  0.00  0.00    +0.047 A 
ATOM      9  C   UNL     1       0.171   7.153   3.421  0.00  0.00    +0.120 A 
ATOM     10  C   UNL     1       0.577   6.058   4.170  0.00  0.00    +0.047 A 
ATOM     11  C   UNL     1       1.391   5.097   3.603  0.00  0.00    +0.027 A 
BRANCH   9  12
ATOM     12  O   UNL     1      -0.631   8.098   3.980  0.00  0.00    -0.495 OA
ATOM     13  C   UNL     1      -1.010   9.199   3.152  0.00  0.00    +0.277 C 
ENDBRANCH   9  12
ENDBRANCH   4   6
BRANCH   1  14
ATOM     14  C   UNL     1       4.161   2.188   0.715  0.00  0.00    +0.108 C 
BRANCH  14  15
ATOM     15  C   UNL     1       5.530   2.869   0.657  0.00  0.00    +0.000 C 
BRANCH  15  16
ATOM     16  C   UNL     1       6.521   2.098   1.531  0.00  0.00    -0.077 C 
BRANCH  16  17
ATOM     17  N   UNL     1       7.842   2.755   1.448  0.00  0.00    +0.379 N 
ATOM     18  H   UNL     1       8.094   2.874   0.460  0.00  0.00    -0.082 HD
BRANCH  17  20
ATOM     19  C   UNL     1       7.401   3.949   3.567  0.00  0.00    -0.017 C 
ATOM     20  C   UNL     1       7.787   4.084   2.093  0.00  0.00    -0.082 C 
ENDBRANCH  17  20
BRANCH  17  21
ATOM     21  C   UNL     1       8.866   1.916   2.106  0.00  0.00    -0.082 C 
ATOM     22  C   UNL     1      10.252   2.419   1.695  0.00  0.00    -0.017 C 
ENDBRANCH  17  21
ENDBRANCH  16  17
ENDBRANCH  15  16
ENDBRANCH  14  15
ENDBRANCH   1  14
BRANCH   1  23
ATOM     23  C   UNL     1       3.055   2.575  -1.536  0.00  0.00    +0.150 C 
BRANCH  23  24
ATOM     24  C   UNL     1       1.978   1.530  -1.676  0.00  0.00    +0.035 A 
ATOM     25  C   UNL     1       0.707   1.905  -1.962  0.00  0.00    +0.020 A 
ATOM     26  C   UNL     1      -0.317   0.866  -2.092  0.00  0.00    -0.001 A 
ATOM     27  C   UNL     1      -1.645   1.190  -2.386  0.00  0.00    +0.010 A 
ATOM     28  C   UNL     1      -2.575   0.197  -2.501  0.00  0.00    +0.004 A 
ATOM     29  C   UNL     1      -2.215  -1.133  -2.329  0.00  0.00    -0.046 A 
ATOM     30  C   UNL     1      -0.912  -1.476  -2.038  0.00  0.00    -0.024 A 
ATOM     31  C   UNL     1       0.054  -0.482  -1.923  0.00  0.00    +0.052 A 
ATOM     32  N   UNL     1       1.364  -0.796  -1.628  0.00  0.00    -0.322 N 
ATOM     33  H   UNL     1       1.617  -1.725  -1.509  0.00  0.00    +0.169 HD
ATOM     34  C   UNL     1       2.296   0.165  -1.510  0.00  0.00    +0.254 A 
ATOM     35  O   UNL     1       3.446  -0.150  -1.254  0.00  0.00    -0.268 OA
ATOM     36  C   UNL     1      -0.534  -2.923  -1.853  0.00  0.00    +0.046 C 
ATOM     37  C   UNL     1      -3.258  -2.212  -2.460  0.00  0.00    +0.044 C 
ENDBRANCH  23  24
ENDBRANCH   1  23
TORSDOF 10
