REMARK  Name = ZINC32759618
REMARK  8 active torsions:
REMARK  status: ('A' for Active; 'I' for Inactive)
REMARK    1  A    between atoms: C_1  and  C_2
REMARK    2  A    between atoms: C_3  and  C_14
REMARK    3  A    between atoms: C_4  and  C_13
REMARK    4  A    between atoms: N_5  and  C_7
REMARK    5  A    between atoms: N_21  and  C_22
REMARK    6  A    between atoms: C_22  and  C_23
REMARK    7  A    between atoms: N_25  and  C_26
REMARK    8  A    between atoms: C_32  and  C_34
REMARK                            x       y       z     vdW  Elec       q    Type
REMARK                         _______ _______ _______ _____ _____    ______ ____
ROOT
ATOM      1  C   UNL     1      -0.663   3.253  -1.141  0.00  0.00    +0.054 C 
ATOM      2  C   UNL     1      -1.027   4.083   0.057  0.00  0.00    +0.204 C 
ATOM      3  O   UNL     1      -1.235   5.268  -0.098  0.00  0.00    -0.277 OA
ATOM      4  N   UNL     1      -1.132   3.570   1.287  0.00  0.00    -0.318 N 
ATOM      5  C   UNL     1      -0.933   2.152   1.577  0.00  0.00    +0.085 C 
ATOM      6  C   UNL     1      -0.185   1.481   0.423  0.00  0.00    -0.058 C 
ATOM      7  N   UNL     1      -0.853   1.828  -0.842  0.00  0.00    +0.397 N 
ATOM      8  H   UNL     1      -1.379   4.268   2.101  0.00  0.00    +0.149 HD
ATOM      9  H   UNL     1      -1.931   1.636  -0.733  0.00  0.00    -0.079 HD
ENDROOT
BRANCH   1  12
ATOM     10  C   UNL     1      -3.700   2.441  -1.535  0.00  0.00    +0.068 C 
ATOM     11  C   UNL     1      -2.881   3.284  -2.478  0.00  0.00    +0.063 A 
ATOM     12  C   UNL     1      -1.540   3.642  -2.304  0.00  0.00    -0.009 A 
ATOM     13  C   UNL     1      -1.167   4.393  -3.366  0.00  0.00    +0.044 A 
ATOM     14  N   UNL     1      -2.239   4.512  -4.182  0.00  0.00    -0.237 N 
ATOM     15  N   UNL     1      -3.303   3.809  -3.600  0.00  0.00    -0.171 NA
ATOM     16  C   UNL     1       0.197   4.991  -3.598  0.00  0.00    +0.066 C 
BRANCH  14  17
ATOM     17  C   UNL     1      -2.279   5.213  -5.395  0.00  0.00    +0.066 A 
ATOM     18  C   UNL     1      -3.382   5.995  -5.711  0.00  0.00    +0.028 A 
ATOM     19  C   UNL     1      -3.415   6.689  -6.904  0.00  0.00    +0.002 A 
ATOM     20  C   UNL     1      -2.357   6.596  -7.790  0.00  0.00    +0.000 A 
ATOM     21  C   UNL     1      -1.260   5.814  -7.480  0.00  0.00    +0.002 A 
ATOM     22  C   UNL     1      -1.218   5.122  -6.286  0.00  0.00    +0.028 A 
ENDBRANCH  14  17
ENDBRANCH   1  12
BRANCH   7  23
ATOM     23  C   UNL     1      -0.363   0.988  -1.943  0.00  0.00    +0.020 C 
BRANCH  23  24
ATOM     24  C   UNL     1      -0.769  -0.443  -1.703  0.00  0.00    +0.197 C 
ATOM     25  O   UNL     1      -1.405  -0.735  -0.713  0.00  0.00    -0.278 OA
ATOM     26  N   UNL     1      -0.426  -1.398  -2.590  0.00  0.00    -0.314 N 
ATOM     27  H   UNL     1       0.150  -1.133  -3.489  0.00  0.00    +0.149 HD
BRANCH  26  28
ATOM     28  C   UNL     1      -0.822  -2.790  -2.357  0.00  0.00    +0.076 C 
ATOM     29  C   UNL     1       0.208  -3.467  -1.451  0.00  0.00    +0.022 C 
ATOM     30  C   UNL     1      -0.204  -4.920  -1.207  0.00  0.00    +0.002 C 
ATOM     31  C   UNL     1      -0.274  -5.662  -2.544  0.00  0.00    +0.000 C 
ATOM     32  C   UNL     1      -1.303  -4.984  -3.450  0.00  0.00    +0.005 C 
ATOM     33  C   UNL     1      -0.891  -3.531  -3.693  0.00  0.00    +0.006 C 
ATOM     34  C   UNL     1      -1.921  -2.853  -4.600  0.00  0.00    +0.009 C 
ENDBRANCH  26  28
ENDBRANCH  23  24
ENDBRANCH   7  23
TORSDOF 5
