REMARK  Name = ZINC67408925
REMARK  10 active torsions:
REMARK  status: ('A' for Active; 'I' for Inactive)
REMARK    1  A    between atoms: C_1  and  C_2
REMARK    2  A    between atoms: C_6  and  C_8
REMARK    3  A    between atoms: N_10  and  N_11
REMARK    4  A    between atoms: N_14  and  C_15
REMARK    5  A    between atoms: C_15  and  C_16
REMARK    6  A    between atoms: C_16  and  C_17
REMARK    7  A    between atoms: C_16  and  C_18
REMARK    8  A    between atoms: C_16  and  N_19
REMARK    9  A    between atoms: C_21  and  C_28
REMARK   10  A    between atoms: C_24  and  C_27
REMARK                            x       y       z     vdW  Elec       q    Type
REMARK                         _______ _______ _______ _____ _____    ______ ____
ROOT
ATOM      1  N   UNL     1       2.760  -9.251   4.954  0.00  0.00    -0.218 N 
ATOM      2  C   UNL     1       1.642  -8.754   4.387  0.00  0.00    +0.316 C 
ATOM      3  O   UNL     1       0.870  -8.087   5.048  0.00  0.00    -0.251 OA
ATOM      4  N   UNL     1       1.381  -8.998   3.087  0.00  0.00    -0.300 N 
ATOM      5  H   UNL     1       2.947  -9.076   5.890  0.00  0.00    +0.174 HD
ATOM      6  H   UNL     1       1.997  -9.530   2.560  0.00  0.00    +0.150 HD
ENDROOT
BRANCH   1   9
ATOM      7  C   UNL     1       4.767 -10.516   4.760  0.00  0.00    +0.260 C 
ATOM      8  O   UNL     1       5.002 -10.297   5.932  0.00  0.00    -0.269 OA
ATOM      9  N   UNL     1       3.649 -10.020   4.193  0.00  0.00    -0.229 N 
ATOM     10  H   UNL     1       3.461 -10.195   3.257  0.00  0.00    +0.173 HD
BRANCH   7  16
ATOM     11  C   UNL     1       8.987 -13.156   4.415  0.00  0.00    +0.044 C 
ATOM     12  C   UNL     1       7.736 -12.599   3.785  0.00  0.00    -0.050 A 
ATOM     13  C   UNL     1       7.465 -12.847   2.451  0.00  0.00    +0.003 A 
ATOM     14  C   UNL     1       6.319 -12.339   1.866  0.00  0.00    +0.001 A 
ATOM     15  C   UNL     1       5.438 -11.581   2.611  0.00  0.00    +0.013 A 
ATOM     16  C   UNL     1       5.706 -11.328   3.957  0.00  0.00    +0.038 A 
ATOM     17  C   UNL     1       6.861 -11.847   4.542  0.00  0.00    +0.016 A 
ENDBRANCH   7  16
ENDBRANCH   1   9
BRANCH   4  18
ATOM     18  C   UNL     1       0.167  -8.458   2.471  0.00  0.00    +0.093 C 
BRANCH  18  19
ATOM     19  C   UNL     1       0.175  -8.766   0.972  0.00  0.00    -0.055 C 
ATOM     20  C   UNL     1       0.088 -10.279   0.762  0.00  0.00    -0.008 C 
ATOM     21  C   UNL     1      -1.024  -8.088   0.305  0.00  0.00    -0.008 C 
BRANCH  19  22
ATOM     22  N   UNL     1       1.418  -8.259   0.376  0.00  0.00    +0.384 N 
ATOM     23  C   UNL     1       1.522  -6.815   0.616  0.00  0.00    -0.075 C 
ATOM     24  C   UNL     1       2.853  -6.297   0.067  0.00  0.00    -0.031 C 
ATOM     25  C   UNL     1       2.920  -6.572  -1.438  0.00  0.00    +0.003 C 
ATOM     26  C   UNL     1       2.737  -8.073  -1.681  0.00  0.00    -0.031 C 
ATOM     27  C   UNL     1       1.410  -8.525  -1.068  0.00  0.00    -0.075 C 
ATOM     28  C   UNL     1       2.726  -8.349  -3.186  0.00  0.00    +0.005 C 
ATOM     29  C   UNL     1       4.008  -7.012   0.770  0.00  0.00    +0.005 C 
ATOM     30  H   UNL     1       2.207  -8.726   0.798  0.00  0.00    -0.081 HD
ENDBRANCH  19  22
ENDBRANCH  18  19
ENDBRANCH   4  18
TORSDOF 5
