REMARK  Name = ZINC39634596
REMARK  11 active torsions:
REMARK  status: ('A' for Active; 'I' for Inactive)
REMARK    1  A    between atoms: C_1  and  C_2
REMARK    2  A    between atoms: C_5  and  C_9
REMARK    3  A    between atoms: C_7  and  C_8
REMARK    4  A    between atoms: C_13  and  C_22
REMARK    5  A    between atoms: N_24  and  C_25
REMARK    6  A    between atoms: C_25  and  C_26
REMARK    7  A    between atoms: C_26  and  C_27
REMARK    8  A    between atoms: C_30  and  O_35
REMARK    9  A    between atoms: C_31  and  O_33
REMARK   10  A    between atoms: O_33  and  C_34
REMARK   11  A    between atoms: O_35  and  C_36
REMARK                            x       y       z     vdW  Elec       q    Type
REMARK                         _______ _______ _______ _____ _____    ______ ____
ROOT
ATOM      1  C   UNL     1       0.063  -4.258  -0.019  0.00  0.00    +0.247 C 
ATOM      2  O   UNL     1       0.186  -4.872   1.023  0.00  0.00    -0.270 OA
ATOM      3  N   UNL     1      -0.036  -4.925  -1.186  0.00  0.00    -0.296 N 
ATOM      4  C   UNL     1      -0.063  -4.359  -2.555  0.00  0.00    +0.121 C 
ATOM      5  C   UNL     1       0.782  -5.339  -3.399  0.00  0.00    +0.100 C 
ATOM      6  C   UNL     1       0.724  -6.670  -2.630  0.00  0.00    -0.004 C 
ATOM      7  C   UNL     1      -0.137  -6.389  -1.390  0.00  0.00    +0.115 C 
ATOM      8  C   UNL     1       2.126  -7.097  -2.206  0.00  0.00    -0.010 C 
ATOM      9  C   UNL     1       2.048  -8.450  -1.493  0.00  0.00    -0.082 C 
ATOM     10  N   UNL     1       1.463  -9.448  -2.397  0.00  0.00    +0.379 N 
ATOM     11  C   UNL     1       0.082  -9.077  -2.726  0.00  0.00    -0.082 C 
ATOM     12  C   UNL     1       0.076  -7.750  -3.491  0.00  0.00    -0.010 C 
ATOM     13  H   UNL     1       2.009  -9.494  -3.244  0.00  0.00    -0.086 HD
ATOM     14  H   UNL     1       1.469 -10.351  -1.947  0.00  0.00    -0.086 HD
ENDROOT
BRANCH   1  19
ATOM     15  C   UNL     1      -0.097   1.494   0.033  0.00  0.00    +0.044 C 
ATOM     16  C   UNL     1      -0.055  -0.012   0.020  0.00  0.00    -0.047 A 
ATOM     17  C   UNL     1      -0.642  -0.708  -1.022  0.00  0.00    +0.004 A 
ATOM     18  C   UNL     1      -0.607  -2.087  -1.041  0.00  0.00    +0.013 A 
ATOM     19  C   UNL     1       0.022  -2.780  -0.005  0.00  0.00    +0.037 A 
ATOM     20  C   UNL     1       0.612  -2.072   1.042  0.00  0.00    +0.016 A 
ATOM     21  C   UNL     1       0.575  -0.693   1.046  0.00  0.00    -0.047 A 
ATOM     22  C   UNL     1       1.216   0.074   2.174  0.00  0.00    +0.044 C 
ENDBRANCH   1  19
BRANCH   5  23
ATOM     23  C   UNL     1       2.204  -4.852  -3.502  0.00  0.00    +0.218 C 
ATOM     24  O   UNL     1       2.717  -4.275  -2.566  0.00  0.00    -0.275 OA
ATOM     25  N   UNL     1       2.907  -5.057  -4.634  0.00  0.00    -0.315 N 
ATOM     26  H   UNL     1       2.497  -5.518  -5.382  0.00  0.00    +0.149 HD
BRANCH  25  27
ATOM     27  C   UNL     1       4.290  -4.583  -4.734  0.00  0.00    +0.109 C 
BRANCH  27  28
ATOM     28  C   UNL     1       4.853  -4.941  -6.111  0.00  0.00    +0.054 C 
BRANCH  28  29
ATOM     29  C   UNL     1       6.275  -4.453  -6.213  0.00  0.00    -0.042 A 
ATOM     30  C   UNL     1       6.536  -3.181  -6.687  0.00  0.00    +0.007 A 
ATOM     31  C   UNL     1       7.839  -2.729  -6.783  0.00  0.00    +0.049 A 
ATOM     32  C   UNL     1       8.887  -3.552  -6.404  0.00  0.00    +0.161 A 
ATOM     33  C   UNL     1       8.625  -4.833  -5.927  0.00  0.00    +0.162 A 
ATOM     34  C   UNL     1       7.316  -5.277  -5.829  0.00  0.00    +0.053 A 
BRANCH  33  35
ATOM     35  O   UNL     1       9.650  -5.644  -5.554  0.00  0.00    -0.491 OA
ATOM     36  C   UNL     1       9.306  -6.946  -5.074  0.00  0.00    +0.277 C 
ENDBRANCH  33  35
BRANCH  32  37
ATOM     37  O   UNL     1      10.169  -3.109  -6.498  0.00  0.00    -0.491 OA
ATOM     38  C   UNL     1      10.363  -1.784  -6.997  0.00  0.00    +0.277 C 
ENDBRANCH  32  37
ENDBRANCH  28  29
ENDBRANCH  27  28
ENDBRANCH  25  27
ENDBRANCH   5  23
TORSDOF 7
