REMARK  Name = ZINC39676311
REMARK  6 active torsions:
REMARK  status: ('A' for Active; 'I' for Inactive)
REMARK    1  A    between atoms: C_1  and  C_2
REMARK    2  A    between atoms: C_4  and  C_13
REMARK    3  A    between atoms: C_6  and  C_9
REMARK    4  A    between atoms: C_17  and  C_26
REMARK    5  A    between atoms: N_28  and  C_29
REMARK    6  A    between atoms: C_29  and  C_30
REMARK                            x       y       z     vdW  Elec       q    Type
REMARK                         _______ _______ _______ _____ _____    ______ ____
ROOT
ATOM      1  C   UNL     1      -0.859  -2.759  -1.110  0.00  0.00    +0.226 C 
ATOM      2  O   UNL     1       0.143  -3.142  -1.677  0.00  0.00    -0.275 OA
ATOM      3  N   UNL     1      -2.072  -3.015  -1.639  0.00  0.00    -0.300 N 
ATOM      4  C   UNL     1      -3.397  -2.627  -1.101  0.00  0.00    +0.121 C 
ATOM      5  C   UNL     1      -4.221  -2.227  -2.346  0.00  0.00    +0.100 C 
ATOM      6  C   UNL     1      -3.551  -2.967  -3.515  0.00  0.00    -0.004 C 
ATOM      7  C   UNL     1      -2.382  -3.744  -2.892  0.00  0.00    +0.115 C 
ATOM      8  C   UNL     1      -3.026  -1.969  -4.542  0.00  0.00    -0.010 C 
ATOM      9  C   UNL     1      -2.415  -2.731  -5.722  0.00  0.00    -0.082 C 
ATOM     10  N   UNL     1      -3.434  -3.596  -6.328  0.00  0.00    +0.379 N 
ATOM     11  C   UNL     1      -3.867  -4.613  -5.361  0.00  0.00    -0.082 C 
ATOM     12  C   UNL     1      -4.539  -3.931  -4.166  0.00  0.00    -0.010 C 
ATOM     13  H   UNL     1      -4.228  -3.038  -6.604  0.00  0.00    -0.086 HD
ATOM     14  H   UNL     1      -3.047  -4.051  -7.141  0.00  0.00    -0.086 HD
ENDROOT
BRANCH   1  18
ATOM     15  C   UNL     1       2.758  -1.082   1.162  0.00  0.00    +0.085 C 
ATOM     16  C   UNL     1       1.397  -1.680   0.916  0.00  0.00    +0.092 C 
ATOM     17  C   UNL     1       0.476  -1.095   0.182  0.00  0.00    +0.030 C 
ATOM     18  C   UNL     1      -0.747  -1.996   0.185  0.00  0.00    +0.150 C 
ATOM     19  C   UNL     1      -0.431  -2.949   1.364  0.00  0.00    +0.292 C 
ATOM     20  O   UNL     1       1.008  -2.871   1.425  0.00  0.00    -0.484 OA
BRANCH  19  21
ATOM     21  C   UNL     1      -0.887  -4.375   1.053  0.00  0.00    +0.427 C 
ATOM     22  F   UNL     1      -0.133  -4.885  -0.009  0.00  0.00    -0.167 F 
ATOM     23  F   UNL     1      -0.704  -5.180   2.183  0.00  0.00    -0.167 F 
ATOM     24  F   UNL     1      -2.241  -4.366   0.702  0.00  0.00    -0.167 F 
ENDBRANCH  19  21
ENDBRANCH   1  18
BRANCH   5  25
ATOM     25  C   UNL     1      -5.653  -2.670  -2.192  0.00  0.00    +0.219 C 
ATOM     26  O   UNL     1      -5.914  -3.665  -1.550  0.00  0.00    -0.275 OA
ATOM     27  N   UNL     1      -6.644  -1.961  -2.769  0.00  0.00    -0.308 N 
ATOM     28  H   UNL     1      -6.435  -1.166  -3.283  0.00  0.00    +0.149 HD
BRANCH  27  29
ATOM     29  C   UNL     1      -8.036  -2.393  -2.619  0.00  0.00    +0.178 C 
BRANCH  29  30
ATOM     30  C   UNL     1      -8.940  -1.436  -3.353  0.00  0.00    +0.128 A 
ATOM     31  N   UNL     1     -10.279  -1.666  -3.327  0.00  0.00    -0.309 N 
ATOM     32  H   UNL     1     -10.625  -2.432  -2.843  0.00  0.00    +0.170 HD
ATOM     33  C   UNL     1     -11.133  -0.836  -3.971  0.00  0.00    +0.259 A 
ATOM     34  O   UNL     1     -12.334  -1.030  -3.955  0.00  0.00    -0.267 OA
ATOM     35  C   UNL     1     -10.553   0.308  -4.689  0.00  0.00    +0.065 A 
ATOM     36  C   UNL     1     -11.344   1.221  -5.383  0.00  0.00    +0.015 A 
ATOM     37  C   UNL     1     -10.748   2.276  -6.039  0.00  0.00    +0.001 A 
ATOM     38  C   UNL     1      -9.368   2.434  -6.013  0.00  0.00    +0.002 A 
ATOM     39  C   UNL     1      -8.569   1.543  -5.334  0.00  0.00    +0.028 A 
ATOM     40  C   UNL     1      -9.149   0.466  -4.660  0.00  0.00    +0.078 A 
ATOM     41  N   UNL     1      -8.400  -0.432  -3.974  0.00  0.00    -0.232 NA
ENDBRANCH  29  30
ENDBRANCH  27  29
ENDBRANCH   5  25
TORSDOF 5
