REMARK  Name = ZINC39631551
REMARK  12 active torsions:
REMARK  status: ('A' for Active; 'I' for Inactive)
REMARK    1  A    between atoms: C_1  and  C_2
REMARK    2  A    between atoms: C_2  and  C_4
REMARK    3  A    between atoms: C_2  and  N_11
REMARK    4  A    between atoms: C_4  and  C_5
REMARK    5  A    between atoms: C_5  and  C_6
REMARK    6  A    between atoms: C_6  and  C_7
REMARK    7  A    between atoms: C_7  and  C_8
REMARK    8  A    between atoms: C_7  and  C_9
REMARK    9  A    between atoms: C_7  and  O_10
REMARK   10  A    between atoms: C_12  and  C_14
REMARK   11  A    between atoms: C_25  and  C_27
REMARK   12  A    between atoms: C_27  and  C_28
REMARK                            x       y       z     vdW  Elec       q    Type
REMARK                         _______ _______ _______ _____ _____    ______ ____
ROOT
ATOM      1  C   UNL     1       2.783  -1.099   2.395  0.00  0.00    +0.100 C 
ATOM      2  C   UNL     1       2.274  -2.504   2.788  0.00  0.00    +0.121 C 
ATOM      3  N   UNL     1       3.225  -3.440   2.144  0.00  0.00    -0.300 N 
ATOM      4  C   UNL     1       4.548  -2.793   2.309  0.00  0.00    +0.115 C 
ATOM      5  C   UNL     1       4.277  -1.292   2.085  0.00  0.00    -0.004 C 
ATOM      6  C   UNL     1       5.126  -0.454   3.034  0.00  0.00    -0.010 C 
ATOM      7  C   UNL     1       6.604  -0.617   2.669  0.00  0.00    -0.082 C 
ATOM      8  N   UNL     1       6.818  -0.189   1.282  0.00  0.00    +0.379 N 
ATOM      9  C   UNL     1       6.069  -1.060   0.368  0.00  0.00    -0.082 C 
ATOM     10  C   UNL     1       4.569  -0.915   0.635  0.00  0.00    -0.010 C 
ATOM     11  C   UNL     1       2.949  -4.615   1.544  0.00  0.00    +0.220 C 
ATOM     12  O   UNL     1       3.844  -5.274   1.059  0.00  0.00    -0.275 OA
ATOM     13  H   UNL     1       6.500   0.763   1.173  0.00  0.00    -0.086 HD
ATOM     14  H   UNL     1       7.801  -0.239   1.063  0.00  0.00    -0.086 HD
ENDROOT
BRANCH   1  16
ATOM     15  N   UNL     1       1.886   0.724   0.983  0.00  0.00    -0.312 N 
ATOM     16  C   UNL     1       2.054  -0.600   1.174  0.00  0.00    +0.218 C 
ATOM     17  O   UNL     1       1.618  -1.389   0.362  0.00  0.00    -0.275 OA
ATOM     18  H   UNL     1       2.234   1.355   1.632  0.00  0.00    +0.149 HD
BRANCH  15  20
ATOM     19  C   UNL     1       2.156   1.314  -1.375  0.00  0.00    +0.028 C 
ATOM     20  C   UNL     1       1.177   1.209  -0.203  0.00  0.00    +0.070 C 
BRANCH  20  21
ATOM     21  C   UNL     1       0.580   2.588   0.087  0.00  0.00    +0.022 C 
BRANCH  21  22
ATOM     22  C   UNL     1      -0.490   2.461   1.174  0.00  0.00    +0.005 C 
BRANCH  22  23
ATOM     23  C   UNL     1      -1.087   3.840   1.464  0.00  0.00    +0.034 C 
BRANCH  23  24
ATOM     24  C   UNL     1      -2.156   3.713   2.551  0.00  0.00    +0.061 C 
ATOM     25  C   UNL     1      -2.840   5.067   2.753  0.00  0.00    +0.041 C 
ATOM     26  C   UNL     1      -3.196   2.676   2.124  0.00  0.00    +0.041 C 
BRANCH  24  27
ATOM     27  O   UNL     1      -1.546   3.300   3.775  0.00  0.00    -0.389 OA
ATOM     28  H   UNL     1      -2.166   3.200   4.510  0.00  0.00    +0.210 HD
ENDBRANCH  24  27
ENDBRANCH  23  24
ENDBRANCH  22  23
ENDBRANCH  21  22
ENDBRANCH  20  21
ENDBRANCH  15  20
ENDBRANCH   1  16
BRANCH  11  29
ATOM     29  C   UNL     1       1.527  -5.111   1.475  0.00  0.00    +0.131 C 
BRANCH  29  30
ATOM     30  C   UNL     1       1.491  -6.436   0.760  0.00  0.00    -0.039 A 
ATOM     31  C   UNL     1       1.332  -6.476  -0.613  0.00  0.00    +0.005 A 
ATOM     32  C   UNL     1       1.299  -7.692  -1.270  0.00  0.00    +0.020 A 
ATOM     33  C   UNL     1       1.424  -8.869  -0.554  0.00  0.00    +0.041 A 
ATOM     34  C   UNL     1       1.583  -8.828   0.820  0.00  0.00    +0.020 A 
ATOM     35  C   UNL     1       1.621  -7.612   1.475  0.00  0.00    +0.005 A 
ATOM     36 CL   UNL     1       1.382 -10.396  -1.378  0.00  0.00    -0.084 Cl
ENDBRANCH  29  30
ENDBRANCH  11  29
TORSDOF 9
