REMARK  Name = ZINC34785416
REMARK  8 active torsions:
REMARK  status: ('A' for Active; 'I' for Inactive)
REMARK    1  A    between atoms: C_1  and  C_2
REMARK    2  A    between atoms: C_2  and  O_3
REMARK    3  A    between atoms: O_3  and  C_4
REMARK    4  A    between atoms: C_4  and  C_6
REMARK    5  A    between atoms: C_10  and  N_11
REMARK    6  A    between atoms: N_17  and  C_20
REMARK    7  A    between atoms: C_20  and  C_21
REMARK    8  A    between atoms: N_23  and  C_24
REMARK                            x       y       z     vdW  Elec       q    Type
REMARK                         _______ _______ _______ _____ _____    ______ ____
ROOT
ATOM      1  N   UNL     1      -0.604  -2.454  -3.925  0.00  0.00    -0.263 N 
ATOM      2  C   UNL     1      -1.118  -2.782  -5.127  0.00  0.00    +0.307 C 
ATOM      3  O   UNL     1      -0.382  -3.140  -6.026  0.00  0.00    -0.252 OA
ATOM      4  N   UNL     1      -2.448  -2.712  -5.332  0.00  0.00    -0.283 N 
ATOM      5  C   UNL     1      -3.345  -2.173  -4.298  0.00  0.00    +0.124 C 
ATOM      6  C   UNL     1      -4.478  -3.178  -4.064  0.00  0.00    +0.104 C 
ATOM      7  N   UNL     1      -5.125  -3.489  -5.345  0.00  0.00    -0.291 NA
ATOM      8  C   UNL     1      -4.188  -4.139  -6.271  0.00  0.00    +0.104 C 
ATOM      9  C   UNL     1      -3.042  -3.168  -6.598  0.00  0.00    +0.124 C 
ATOM     10  H   UNL     1      -1.180  -2.098  -3.231  0.00  0.00    +0.157 HD
ENDROOT
BRANCH   1  15
ATOM     11  C   UNL     1       1.448  -2.347  -2.515  0.00  0.00    +0.091 A 
ATOM     12  C   UNL     1       2.874  -2.626  -2.513  0.00  0.00    -0.021 A 
ATOM     13  C   UNL     1       3.341  -3.126  -3.677  0.00  0.00    -0.004 A 
ATOM     14  S   UNL     1       1.921  -3.219  -4.728  0.00  0.00    -0.077 S 
ATOM     15  C   UNL     1       0.750  -2.627  -3.680  0.00  0.00    +0.087 A 
ATOM     16  C   UNL     1       4.754  -3.511  -3.988  0.00  0.00    +0.043 C 
ATOM     17  C   UNL     1       5.668  -2.900  -2.915  0.00  0.00    +0.005 C 
ATOM     18  C   UNL     1       5.079  -3.201  -1.534  0.00  0.00    +0.005 C 
ATOM     19  C   UNL     1       3.798  -2.390  -1.327  0.00  0.00    +0.037 C 
BRANCH  11  20
ATOM     20  C   UNL     1       0.776  -1.801  -1.335  0.00  0.00    +0.342 C 
ATOM     21  O   UNL     1       0.309  -2.551  -0.498  0.00  0.00    -0.245 OA
BRANCH  20  22
ATOM     22  O   UNL     1       0.674  -0.466  -1.175  0.00  0.00    -0.461 OA
BRANCH  22  24
ATOM     23  C   UNL     1      -0.013   1.528   0.007  0.00  0.00    +0.048 C 
ATOM     24  C   UNL     1       0.005  -0.002   0.000  0.00  0.00    +0.229 C 
ENDBRANCH  22  24
ENDBRANCH  20  22
ENDBRANCH  11  20
ENDBRANCH   1  15
BRANCH   7  25
ATOM     25  C   UNL     1      -6.324  -4.313  -5.144  0.00  0.00    +0.180 C 
BRANCH  25  26
ATOM     26  C   UNL     1      -7.092  -4.407  -6.437  0.00  0.00    +0.227 C 
ATOM     27  O   UNL     1      -6.682  -3.842  -7.428  0.00  0.00    -0.274 OA
ATOM     28  N   UNL     1      -8.236  -5.118  -6.491  0.00  0.00    -0.311 N 
ATOM     29  H   UNL     1      -8.564  -5.569  -5.698  0.00  0.00    +0.149 HD
BRANCH  28  30
ATOM     30  C   UNL     1      -8.983  -5.209  -7.748  0.00  0.00    +0.073 C 
ATOM     31  C   UNL     1      -9.904  -3.994  -7.882  0.00  0.00    +0.022 C 
ATOM     32  C   UNL     1     -10.684  -4.089  -9.195  0.00  0.00    +0.002 C 
ATOM     33  C   UNL     1     -11.524  -5.369  -9.198  0.00  0.00    +0.000 C 
ATOM     34  C   UNL     1     -10.603  -6.583  -9.063  0.00  0.00    +0.002 C 
ATOM     35  C   UNL     1      -9.822  -6.488  -7.751  0.00  0.00    +0.022 C 
ENDBRANCH  28  30
ENDBRANCH  25  26
ENDBRANCH   7  25
TORSDOF 7
