REMARK  Name = ZINC59112591
REMARK  16 active torsions:
REMARK  status: ('A' for Active; 'I' for Inactive)
REMARK    1  A    between atoms: C_1  and  C_2
REMARK    2  A    between atoms: C_2  and  C_3
REMARK    3  A    between atoms: C_8  and  N_9
REMARK    4  A    between atoms: N_9  and  C_10
REMARK    5  A    between atoms: C_10  and  N_12
REMARK    6  A    between atoms: N_12  and  C_13
REMARK    7  A    between atoms: C_13  and  C_14
REMARK    8  A    between atoms: C_14  and  C_35
REMARK    9  A    between atoms: C_16  and  N_23
REMARK   10  A    between atoms: C_19  and  C_21
REMARK   11  A    between atoms: C_19  and  C_22
REMARK   12  A    between atoms: N_23  and  C_24
REMARK   13  A    between atoms: C_24  and  N_26
REMARK   14  A    between atoms: N_26  and  C_27
REMARK   15  A    between atoms: C_32  and  C_33
REMARK   16  A    between atoms: C_33  and  C_34
REMARK                            x       y       z     vdW  Elec       q    Type
REMARK                         _______ _______ _______ _____ _____    ______ ____
ROOT
ATOM      1  C   UNL     1      -5.132  -0.138   4.135  0.00  0.00    -0.014 C 
ATOM      2  C   UNL     1      -5.778  -1.125   3.169  0.00  0.00    +0.030 C 
ATOM      3  C   UNL     1      -7.283  -0.886   3.077  0.00  0.00    +0.073 C 
ATOM      4  C   UNL     1      -7.903  -1.107   4.455  0.00  0.00    +0.028 C 
ATOM      5  C   UNL     1      -7.333  -0.121   5.469  0.00  0.00    -0.033 C 
ATOM      6  C   UNL     1      -5.816  -0.115   5.489  0.00  0.00    +0.014 C 
ATOM      7  C   UNL     1      -7.826  -0.553   6.868  0.00  0.00    +0.011 C 
ATOM      8  C   UNL     1      -7.887   1.281   5.204  0.00  0.00    +0.011 C 
ATOM      9  C   UNL     1      -5.097   1.260   3.510  0.00  0.00    +0.013 C 
ENDROOT
BRANCH   3  10
ATOM     10  N   UNL     1      -7.865  -1.846   2.130  0.00  0.00    -0.323 N 
ATOM     11  H   UNL     1      -7.420  -2.691   1.960  0.00  0.00    +0.148 HD
BRANCH  10  12
ATOM     12  C   UNL     1      -9.018  -1.553   1.495  0.00  0.00    +0.135 C 
ATOM     13  S   UNL     1      -9.804  -0.062   1.794  0.00  0.00    -0.019 S 
BRANCH  12  14
ATOM     14  N   UNL     1      -9.552  -2.434   0.626  0.00  0.00    -0.297 N 
ATOM     15  H   UNL     1      -9.144  -3.306   0.507  0.00  0.00    +0.154 HD
BRANCH  14  16
ATOM     16  C   UNL     1     -10.693  -2.090  -0.106  0.00  0.00    +0.036 A 
ATOM     17  C   UNL     1     -11.778  -1.504   0.533  0.00  0.00    +0.023 A 
ATOM     18  C   UNL     1     -12.904  -1.165  -0.192  0.00  0.00    +0.002 A 
ATOM     19  C   UNL     1     -12.952  -1.410  -1.552  0.00  0.00    +0.000 A 
ATOM     20  C   UNL     1     -11.873  -1.994  -2.191  0.00  0.00    +0.005 A 
ATOM     21  C   UNL     1     -10.742  -2.329  -1.472  0.00  0.00    -0.026 A 
BRANCH  21  22
ATOM     22  C   UNL     1      -9.565  -2.961  -2.170  0.00  0.00    +0.033 C 
ATOM     23  C   UNL     1      -9.656  -4.483  -2.049  0.00  0.00    +0.009 C 
ENDBRANCH  21  22
ENDBRANCH  14  16
ENDBRANCH  12  14
ENDBRANCH  10  12
ENDBRANCH   3  10
BRANCH   1  24
ATOM     24  C   UNL     1      -3.668  -0.583   4.348  0.00  0.00    +0.110 C 
BRANCH  24  25
ATOM     25  N   UNL     1      -2.975  -0.617   3.058  0.00  0.00    -0.326 N 
ATOM     26  H   UNL     1      -3.449  -0.378   2.246  0.00  0.00    +0.148 HD
BRANCH  25  27
ATOM     27  C   UNL     1      -1.678  -0.979   2.999  0.00  0.00    +0.135 C 
ATOM     28  S   UNL     1      -0.841  -1.400   4.431  0.00  0.00    -0.019 S 
BRANCH  27  29
ATOM     29  N   UNL     1      -1.041  -1.010   1.812  0.00  0.00    -0.297 N 
ATOM     30  H   UNL     1      -1.495  -0.708   1.009  0.00  0.00    +0.154 HD
BRANCH  29  36
ATOM     31  C   UNL     1       0.636  -2.388   0.752  0.00  0.00    -0.026 A 
ATOM     32  C   UNL     1       1.938  -2.843   0.677  0.00  0.00    +0.005 A 
ATOM     33  C   UNL     1       2.881  -2.396   1.584  0.00  0.00    +0.000 A 
ATOM     34  C   UNL     1       2.524  -1.494   2.570  0.00  0.00    +0.002 A 
ATOM     35  C   UNL     1       1.224  -1.035   2.650  0.00  0.00    +0.023 A 
ATOM     36  C   UNL     1       0.276  -1.477   1.737  0.00  0.00    +0.036 A 
BRANCH  31  38
ATOM     37  C   UNL     1      -0.492  -1.884  -1.398  0.00  0.00    +0.009 C 
ATOM     38  C   UNL     1      -0.392  -2.875  -0.237  0.00  0.00    +0.033 C 
ENDBRANCH  31  38
ENDBRANCH  29  36
ENDBRANCH  27  29
ENDBRANCH  25  27
ENDBRANCH  24  25
ENDBRANCH   1  24
TORSDOF 11
