REMARK  Name = ZINC36207693
REMARK  12 active torsions:
REMARK  status: ('A' for Active; 'I' for Inactive)
REMARK    1  A    between atoms: C_1  and  C_2
REMARK    2  A    between atoms: C_7  and  C_8
REMARK    3  A    between atoms: C_17  and  C_19
REMARK    4  A    between atoms: C_19  and  N_20
REMARK    5  A    between atoms: N_20  and  C_21
REMARK    6  A    between atoms: N_20  and  C_22
REMARK    7  A    between atoms: C_22  and  C_23
REMARK    8  A    between atoms: C_23  and  C_25
REMARK    9  A    between atoms: C_23  and  O_34
REMARK   10  A    between atoms: C_25  and  O_26
REMARK   11  A    between atoms: O_26  and  C_27
REMARK   12  A    between atoms: C_32  and  C_33
REMARK                            x       y       z     vdW  Elec       q    Type
REMARK                         _______ _______ _______ _____ _____    ______ ____
ROOT
ATOM      1  C   UNL     1      -0.592  -0.363   2.332  0.00  0.00    +0.004 A 
ATOM      2  C   UNL     1       0.573  -0.395   3.024  0.00  0.00    +0.056 A 
ATOM      3  S   UNL     1       0.287   0.745   4.364  0.00  0.00    -0.076 S 
ATOM      4  C   UNL     1      -1.372   1.232   3.968  0.00  0.00    +0.116 A 
ATOM      5  C   UNL     1      -1.664   0.505   2.803  0.00  0.00    +0.080 A 
ATOM      6  C   UNL     1      -2.968   0.715   2.251  0.00  0.00    +0.260 A 
ATOM      7  O   UNL     1      -3.316   0.124   1.243  0.00  0.00    -0.267 OA
ATOM      8  N   UNL     1      -3.804   1.574   2.862  0.00  0.00    -0.312 N 
ATOM      9  H   UNL     1      -4.689   1.720   2.493  0.00  0.00    +0.170 HD
ATOM     10  C   UNL     1      -3.434   2.239   3.986  0.00  0.00    +0.094 A 
ATOM     11  N   UNL     1      -2.255   2.062   4.518  0.00  0.00    -0.229 NA
ENDROOT
BRANCH   1  18
ATOM     12  C   UNL     1      -0.931   0.922  -0.238  0.00  0.00    +0.044 C 
ATOM     13  C   UNL     1      -0.934  -0.581  -0.128  0.00  0.00    -0.043 A 
ATOM     14  C   UNL     1      -1.093  -1.357  -1.258  0.00  0.00    +0.004 A 
ATOM     15  C   UNL     1      -1.096  -2.737  -1.159  0.00  0.00    +0.000 A 
ATOM     16  C   UNL     1      -0.939  -3.347   0.073  0.00  0.00    +0.001 A 
ATOM     17  C   UNL     1      -0.779  -2.582   1.210  0.00  0.00    +0.009 A 
ATOM     18  C   UNL     1      -0.769  -1.191   1.115  0.00  0.00    -0.014 A 
ENDBRANCH   1  18
BRANCH  10  19
ATOM     19  C   UNL     1      -4.405   3.192   4.636  0.00  0.00    -0.003 C 
BRANCH  19  20
ATOM     20  N   UNL     1      -3.783   3.787   5.827  0.00  0.00    +0.384 N 
ATOM     21  C   UNL     1      -3.538   2.739   6.827  0.00  0.00    -0.095 C 
ATOM     22  H   UNL     1      -2.908   4.218   5.569  0.00  0.00    -0.082 HD
BRANCH  20  23
ATOM     23  C   UNL     1      -4.681   4.803   6.392  0.00  0.00    -0.044 C 
BRANCH  23  24
ATOM     24  C   UNL     1      -4.820   5.966   5.408  0.00  0.00    +0.135 C 
BRANCH  24  25
ATOM     25  O   UNL     1      -3.534   6.541   5.166  0.00  0.00    -0.390 OA
ATOM     26  H   UNL     1      -3.103   6.888   5.959  0.00  0.00    +0.210 HD
ENDBRANCH  24  25
BRANCH  24  27
ATOM     27  C   UNL     1      -5.750   7.027   5.999  0.00  0.00    +0.258 C 
BRANCH  27  28
ATOM     28  O   UNL     1      -5.971   8.057   5.034  0.00  0.00    -0.489 OA
BRANCH  28  29
ATOM     29  C   UNL     1      -6.782   9.084   5.403  0.00  0.00    +0.124 A 
ATOM     30  C   UNL     1      -7.346   9.103   6.670  0.00  0.00    +0.046 A 
ATOM     31  C   UNL     1      -8.169  10.148   7.043  0.00  0.00    +0.004 A 
ATOM     32  C   UNL     1      -8.430  11.175   6.155  0.00  0.00    +0.000 A 
ATOM     33  C   UNL     1      -7.868  11.159   4.892  0.00  0.00    +0.007 A 
ATOM     34  C   UNL     1      -7.040  10.118   4.516  0.00  0.00    -0.009 A 
ATOM     35  C   UNL     1      -6.424  10.104   3.141  0.00  0.00    +0.047 C 
ENDBRANCH  28  29
ENDBRANCH  27  28
ENDBRANCH  24  27
ENDBRANCH  23  24
ENDBRANCH  20  23
ENDBRANCH  19  20
ENDBRANCH  10  19
TORSDOF 9
