REMARK  Name = ZINC04208922
REMARK  7 active torsions:
REMARK  status: ('A' for Active; 'I' for Inactive)
REMARK    1  A    between atoms: C_3  and  C_6
REMARK    2  A    between atoms: N_8  and  C_9
REMARK    3  A    between atoms: C_9  and  C_10
REMARK    4  A    between atoms: C_9  and  C_14
REMARK    5  A    between atoms: C_9  and  N_18
REMARK    6  A    between atoms: N_18  and  C_19
REMARK    7  A    between atoms: C_20  and  C_28
REMARK                            x       y       z     vdW  Elec       q    Type
REMARK                         _______ _______ _______ _____ _____    ______ ____
ROOT
ATOM      1  C   UNL     1       5.572  -0.588  -0.035  0.00  0.00    +0.293 C 
ENDROOT
BRANCH   1   4
ATOM      2  C   UNL     1       6.876  -0.220  -2.060  0.00  0.00    +0.281 C 
ATOM      3  O   UNL     1       6.457  -1.278  -2.490  0.00  0.00    -0.267 OA
ATOM      4  N   UNL     1       6.535   0.188  -0.821  0.00  0.00    -0.274 N 
ATOM      5  H   UNL     1       6.926   0.994  -0.450  0.00  0.00    +0.152 HD
BRANCH   2   8
ATOM      6  C   UNL     1       8.993   1.386  -4.564  0.00  0.00    +0.042 A 
ATOM      7  C   UNL     1       8.176   0.321  -4.154  0.00  0.00    +0.054 A 
ATOM      8  C   UNL     1       7.754   0.613  -2.889  0.00  0.00    +0.189 A 
ATOM      9  O   UNL     1       8.286   1.801  -2.536  0.00  0.00    -0.458 OA
ATOM     10  C   UNL     1       9.033   2.271  -3.543  0.00  0.00    +0.196 A 
ENDBRANCH   2   8
ENDBRANCH   1   4
BRANCH   1  11
ATOM     11  C   UNL     1       5.589  -0.101   1.416  0.00  0.00    +0.436 C 
ATOM     12  F   UNL     1       5.119   1.216   1.471  0.00  0.00    -0.166 F 
ATOM     13  F   UNL     1       4.765  -0.923   2.193  0.00  0.00    -0.166 F 
ATOM     14  F   UNL     1       6.897  -0.151   1.909  0.00  0.00    -0.166 F 
ENDBRANCH   1  11
BRANCH   1  15
ATOM     15  C   UNL     1       4.170  -0.402  -0.619  0.00  0.00    +0.436 C 
ATOM     16  F   UNL     1       4.178  -0.757  -1.972  0.00  0.00    -0.166 F 
ATOM     17  F   UNL     1       3.266  -1.217   0.072  0.00  0.00    -0.166 F 
ATOM     18  F   UNL     1       3.784   0.936  -0.490  0.00  0.00    -0.166 F 
ENDBRANCH   1  15
BRANCH   1  19
ATOM     19  N   UNL     1       5.936  -2.006  -0.078  0.00  0.00    -0.303 N 
ATOM     20  H   UNL     1       5.250  -2.678  -0.218  0.00  0.00    +0.149 HD
BRANCH  19  21
ATOM     21  C   UNL     1       7.255  -2.386   0.080  0.00  0.00    +0.080 A 
ATOM     22  C   UNL     1       7.787  -3.666   0.018  0.00  0.00    +0.068 A 
ATOM     23  C   UNL     1       9.220  -3.799   0.221  0.00  0.00    -0.023 A 
ATOM     24  C   UNL     1       9.857  -2.631   0.449  0.00  0.00    -0.005 A 
ATOM     25  S   UNL     1       8.583  -1.405   0.385  0.00  0.00    -0.078 S 
ATOM     26  C   UNL     1      11.321  -2.437   0.695  0.00  0.00    +0.043 C 
ATOM     27  C   UNL     1      11.940  -3.803   1.024  0.00  0.00    +0.005 C 
ATOM     28  C   UNL     1      11.466  -4.825  -0.013  0.00  0.00    +0.005 C 
ATOM     29  C   UNL     1       9.977  -5.118   0.188  0.00  0.00    +0.037 C 
BRANCH  22  30
ATOM     30  C   UNL     1       6.941  -4.833  -0.240  0.00  0.00    +0.244 C 
ATOM     31  O   UNL     1       6.747  -5.203  -1.384  0.00  0.00    -0.270 OA
ATOM     32  N   UNL     1       6.377  -5.498   0.788  0.00  0.00    -0.325 N 
ATOM     33  H   UNL     1       6.532  -5.203   1.699  0.00  0.00    +0.145 HD
ATOM     34  H   UNL     1       5.817  -6.271   0.617  0.00  0.00    +0.145 HD
ENDBRANCH  22  30
ENDBRANCH  19  21
ENDBRANCH   1  19
TORSDOF 7
