REMARK  Name = ZINC21240009
REMARK  7 active torsions:
REMARK  status: ('A' for Active; 'I' for Inactive)
REMARK    1  A    between atoms: C_1  and  C_2
REMARK    2  A    between atoms: C_2  and  C_3
REMARK    3  A    between atoms: C_6  and  C_9
REMARK    4  A    between atoms: C_14  and  C_24
REMARK    5  A    between atoms: C_26  and  O_32
REMARK    6  A    between atoms: C_27  and  O_31
REMARK    7  A    between atoms: O_32  and  C_33
REMARK                            x       y       z     vdW  Elec       q    Type
REMARK                         _______ _______ _______ _____ _____    ______ ____
ROOT
ATOM      1  C   UNL     1      -1.210   2.318  -0.566  0.00  0.00    +0.032 C 
ATOM      2  C   UNL     1      -1.213   3.092   0.751  0.00  0.00    +0.059 C 
ATOM      3  C   UNL     1      -2.561   3.764   0.954  0.00  0.00    +0.017 C 
ATOM      4  C   UNL     1      -3.272   4.195  -0.101  0.00  0.00    +0.036 C 
ATOM      5  C   UNL     1      -4.621   4.872  -0.044  0.00  0.00    +0.136 C 
ATOM      6  N   UNL     1      -5.028   5.281   1.283  0.00  0.00    -0.331 N 
ATOM      7  C   UNL     1      -5.264   4.341   2.282  0.00  0.00    +0.049 A 
ATOM      8  C   UNL     1      -6.538   4.132   2.789  0.00  0.00    +0.025 A 
ATOM      9  C   UNL     1      -6.744   3.132   3.723  0.00  0.00    +0.002 A 
ATOM     10  C   UNL     1      -5.690   2.345   4.152  0.00  0.00    +0.002 A 
ATOM     11  C   UNL     1      -4.412   2.566   3.665  0.00  0.00    +0.025 A 
ATOM     12  C   UNL     1      -4.203   3.578   2.745  0.00  0.00    +0.052 A 
ATOM     13  N   UNL     1      -2.940   3.889   2.252  0.00  0.00    -0.316 N 
ATOM     14  C   UNL     1      -2.778   4.015  -1.415  0.00  0.00    +0.163 C 
ATOM     15  O   UNL     1      -3.429   4.441  -2.349  0.00  0.00    -0.292 OA
ATOM     16  C   UNL     1      -1.480   3.319  -1.696  0.00  0.00    +0.088 C 
ATOM     17  H   UNL     1      -5.155   6.349   1.514  0.00  0.00    +0.147 HD
ATOM     18  H   UNL     1      -2.224   4.258   3.001  0.00  0.00    +0.152 HD
ENDROOT
BRANCH   5  19
ATOM     19  C   UNL     1      -5.656   3.921  -0.590  0.00  0.00    -0.018 A 
ATOM     20  C   UNL     1      -6.354   4.247  -1.739  0.00  0.00    +0.055 A 
ATOM     21  C   UNL     1      -7.305   3.375  -2.242  0.00  0.00    +0.163 A 
ATOM     22  C   UNL     1      -7.556   2.172  -1.590  0.00  0.00    +0.173 A 
ATOM     23  C   UNL     1      -6.854   1.851  -0.439  0.00  0.00    +0.063 A 
ATOM     24  C   UNL     1      -5.901   2.724   0.055  0.00  0.00    +0.025 A 
ATOM     25 BR   UNL     1      -7.191   0.217   0.451  0.00  0.00    -0.046 Br
BRANCH  22  26
ATOM     26  O   UNL     1      -8.490   1.313  -2.080  0.00  0.00    -0.503 OA
ATOM     27  H   UNL     1      -8.688   0.362  -1.563  0.00  0.00    +0.292 HD
ENDBRANCH  22  26
BRANCH  21  28
ATOM     28  O   UNL     1      -7.993   3.695  -3.371  0.00  0.00    -0.491 OA
ATOM     29  C   UNL     1      -7.683   4.946  -3.987  0.00  0.00    +0.277 C 
ENDBRANCH  21  28
ENDBRANCH   5  19
BRANCH   1  33
ATOM     30  C   UNL     1       2.594   0.468  -1.161  0.00  0.00    -0.048 A 
ATOM     31  C   UNL     1       1.448  -0.305  -1.119  0.00  0.00    +0.004 A 
ATOM     32  C   UNL     1       0.218   0.293  -0.925  0.00  0.00    +0.004 A 
ATOM     33  C   UNL     1       0.132   1.665  -0.771  0.00  0.00    -0.043 A 
ATOM     34  C   UNL     1       1.278   2.437  -0.813  0.00  0.00    +0.004 A 
ATOM     35  C   UNL     1       2.508   1.839  -1.009  0.00  0.00    +0.004 A 
BRANCH  30  37
ATOM     36  C   UNL     1       4.236  -0.256  -2.873  0.00  0.00    +0.009 C 
ATOM     37  C   UNL     1       3.936  -0.184  -1.374  0.00  0.00    +0.032 C 
ENDBRANCH  30  37
ENDBRANCH   1  33
TORSDOF 5
