REMARK  Name = ZINC39637311
REMARK  6 active torsions:
REMARK  status: ('A' for Active; 'I' for Inactive)
REMARK    1  A    between atoms: C_1  and  C_2
REMARK    2  A    between atoms: C_4  and  C_9
REMARK    3  A    between atoms: C_13  and  C_22
REMARK    4  A    between atoms: N_24  and  C_25
REMARK    5  A    between atoms: C_30  and  C_35
REMARK    6  A    between atoms: C_32  and  C_34
REMARK                            x       y       z     vdW  Elec       q    Type
REMARK                         _______ _______ _______ _____ _____    ______ ____
ROOT
ATOM      1  C   UNL     1       0.027  -2.817  -2.481  0.00  0.00    +0.247 C 
ATOM      2  O   UNL     1      -0.095  -2.213  -3.529  0.00  0.00    -0.270 OA
ATOM      3  N   UNL     1       0.148  -4.159  -2.487  0.00  0.00    -0.296 N 
ATOM      4  C   UNL     1       0.176  -5.074  -1.322  0.00  0.00    +0.121 C 
ATOM      5  C   UNL     1      -0.645  -6.304  -1.770  0.00  0.00    +0.100 C 
ATOM      6  C   UNL     1      -0.570  -6.286  -3.306  0.00  0.00    -0.004 C 
ATOM      7  C   UNL     1       0.276  -5.055  -3.662  0.00  0.00    +0.115 C 
ATOM      8  C   UNL     1       0.103  -7.556  -3.817  0.00  0.00    -0.010 C 
ATOM      9  C   UNL     1       0.114  -7.543  -5.348  0.00  0.00    -0.082 C 
ATOM     10  N   UNL     1      -1.264  -7.461  -5.848  0.00  0.00    +0.379 N 
ATOM     11  C   UNL     1      -1.874  -6.193  -5.429  0.00  0.00    -0.082 C 
ATOM     12  C   UNL     1      -1.968  -6.149  -3.902  0.00  0.00    -0.010 C 
ATOM     13  H   UNL     1      -1.258  -7.513  -6.856  0.00  0.00    -0.086 HD
ATOM     14  H   UNL     1      -1.802  -8.229  -5.477  0.00  0.00    -0.086 HD
ENDROOT
BRANCH   1  18
ATOM     15  C   UNL     1      -1.213   1.205   0.198  0.00  0.00    +0.045 C 
ATOM     16  C   UNL     1      -0.553  -0.145   0.093  0.00  0.00    -0.036 A 
ATOM     17  C   UNL     1      -0.570  -0.829  -1.105  0.00  0.00    +0.017 A 
ATOM     18  C   UNL     1       0.042  -2.080  -1.200  0.00  0.00    +0.037 A 
ATOM     19  C   UNL     1       0.668  -2.631  -0.081  0.00  0.00    +0.014 A 
ATOM     20  C   UNL     1       0.679  -1.939   1.111  0.00  0.00    +0.016 A 
ATOM     21  C   UNL     1       0.075  -0.696   1.198  0.00  0.00    +0.021 A 
ATOM     22 BR   UNL     1       0.100   0.251   2.835  0.00  0.00    -0.050 Br
ENDBRANCH   1  18
BRANCH   5  23
ATOM     23  C   UNL     1      -0.034  -7.569  -1.227  0.00  0.00    +0.218 C 
ATOM     24  O   UNL     1       1.147  -7.603  -0.952  0.00  0.00    -0.275 OA
ATOM     25  N   UNL     1      -0.799  -8.664  -1.047  0.00  0.00    -0.312 N 
ATOM     26  H   UNL     1      -1.743  -8.637  -1.266  0.00  0.00    +0.149 HD
BRANCH  25  27
ATOM     27  C   UNL     1      -0.205  -9.895  -0.519  0.00  0.00    +0.076 C 
ATOM     28  C   UNL     1      -0.185  -9.836   1.010  0.00  0.00    +0.022 C 
ATOM     29  C   UNL     1       0.435 -11.121   1.562  0.00  0.00    +0.002 C 
ATOM     30  C   UNL     1      -0.394 -12.324   1.108  0.00  0.00    +0.003 C 
ATOM     31  C   UNL     1      -0.414 -12.382  -0.421  0.00  0.00    -0.009 C 
ATOM     32  C   UNL     1      -1.034 -11.097  -0.973  0.00  0.00    +0.009 C 
ATOM     33  C   UNL     1      -1.054 -11.155  -2.501  0.00  0.00    +0.009 C 
ATOM     34  C   UNL     1       1.017 -12.523  -0.944  0.00  0.00    +0.008 C 
ENDBRANCH  25  27
ENDBRANCH   5  23
TORSDOF 3
