REMARK  Name = ZINC39942500
REMARK  7 active torsions:
REMARK  status: ('A' for Active; 'I' for Inactive)
REMARK    1  A    between atoms: C_1  and  C_2
REMARK    2  A    between atoms: C_2  and  C_4
REMARK    3  A    between atoms: C_2  and  N_14
REMARK    4  A    between atoms: C_15  and  C_17
REMARK    5  A    between atoms: C_17  and  S_18
REMARK    6  A    between atoms: S_18  and  C_19
REMARK    7  A    between atoms: C_23  and  C_25
REMARK                            x       y       z     vdW  Elec       q    Type
REMARK                         _______ _______ _______ _____ _____    ______ ____
ROOT
ATOM      1  C   UNL     1      -3.465  -1.164  -1.134  0.00  0.00    +0.170 C 
ENDROOT
BRANCH   1   3
ATOM      2  N   UNL     1      -1.372  -0.511   0.012  0.00  0.00    -0.308 N 
ATOM      3  C   UNL     1      -2.051  -0.643  -1.145  0.00  0.00    +0.223 C 
ATOM      4  O   UNL     1      -1.524  -0.341  -2.194  0.00  0.00    -0.275 OA
ATOM      5  H   UNL     1      -1.794  -0.752   0.852  0.00  0.00    +0.149 HD
BRANCH   2   7
ATOM      6  C   UNL     1      -0.019   1.526   0.010  0.00  0.00    +0.033 C 
ATOM      7  C   UNL     1       0.002  -0.004   0.002  0.00  0.00    +0.100 C 
BRANCH   7   8
ATOM      8  C   UNL     1       0.731  -0.503   1.223  0.00  0.00    -0.027 A 
ATOM      9  C   UNL     1       0.083  -0.559   2.443  0.00  0.00    +0.006 A 
ATOM     10  C   UNL     1       0.758  -1.015   3.557  0.00  0.00    +0.004 A 
ATOM     11  C   UNL     1       2.083  -1.419   3.462  0.00  0.00    -0.044 A 
ATOM     12  C   UNL     1       2.727  -1.368   2.247  0.00  0.00    -0.044 A 
ATOM     13  C   UNL     1       2.045  -0.911   1.126  0.00  0.00    +0.009 A 
ATOM     14  C   UNL     1       4.157  -1.805   2.067  0.00  0.00    +0.035 C 
ATOM     15  C   UNL     1       4.873  -1.866   3.415  0.00  0.00    +0.005 C 
ATOM     16  C   UNL     1       4.019  -2.696   4.380  0.00  0.00    +0.005 C 
ATOM     17  C   UNL     1       2.762  -1.898   4.719  0.00  0.00    +0.035 C 
ENDBRANCH   7   8
ENDBRANCH   2   7
ENDBRANCH   1   3
BRANCH   1  18
ATOM     18  S   UNL     1      -4.100  -1.225  -2.832  0.00  0.00    -0.087 S 
BRANCH  18  19
ATOM     19  C   UNL     1      -5.787  -1.865  -2.647  0.00  0.00    +0.339 C 
ATOM     20  N   UNL     1      -5.768  -3.182  -1.989  0.00  0.00    -0.219 N 
ATOM     21  N   UNL     1      -6.495  -3.019  -0.801  0.00  0.00    -0.145 NA
ATOM     22  C   UNL     1      -6.922  -1.788  -0.700  0.00  0.00    +0.238 C 
ATOM     23  O   UNL     1      -6.545  -1.029  -1.762  0.00  0.00    -0.443 OA
ATOM     24  H   UNL     1      -5.342  -3.992  -2.309  0.00  0.00    +0.173 HD
BRANCH  22  25
ATOM     25  C   UNL     1      -7.681  -1.307   0.376  0.00  0.00    +0.043 C 
ATOM     26  C   UNL     1      -8.101  -2.022   1.499  0.00  0.00    +0.008 A 
ATOM     27  C   UNL     1      -7.918  -3.363   1.898  0.00  0.00    +0.010 A 
ATOM     28  C   UNL     1      -8.451  -3.796   3.069  0.00  0.00    +0.001 A 
ATOM     29  C   UNL     1      -9.183  -2.944   3.899  0.00  0.00    +0.002 A 
ATOM     30  C   UNL     1      -9.397  -1.644   3.578  0.00  0.00    +0.026 A 
ATOM     31  C   UNL     1      -8.871  -1.119   2.369  0.00  0.00    +0.043 A 
ATOM     32  N   UNL     1      -8.938   0.086   1.839  0.00  0.00    -0.380 N 
ATOM     33  C   UNL     1      -8.211   0.097   0.566  0.00  0.00    +0.154 C 
ATOM     34  H   UNL     1      -9.394   0.847   2.232  0.00  0.00    +0.160 HD
ENDBRANCH  22  25
ENDBRANCH  18  19
ENDBRANCH   1  18
TORSDOF 6
