REMARK  Name = ZINC16095944
REMARK  10 active torsions:
REMARK  status: ('A' for Active; 'I' for Inactive)
REMARK    1  A    between atoms: C_1  and  C_2
REMARK    2  A    between atoms: C_6  and  N_8
REMARK    3  A    between atoms: N_8  and  S_9
REMARK    4  A    between atoms: S_9  and  C_12
REMARK    5  A    between atoms: C_14  and  N_19
REMARK    6  A    between atoms: C_17  and  C_18
REMARK    7  A    between atoms: N_19  and  S_20
REMARK    8  A    between atoms: S_20  and  C_23
REMARK    9  A    between atoms: C_26  and  C_29
REMARK   10  A    between atoms: C_29  and  C_31
REMARK                            x       y       z     vdW  Elec       q    Type
REMARK                         _______ _______ _______ _____ _____    ______ ____
ROOT
ATOM      1  C   UNL     1       0.281  -2.900   2.519  0.00  0.00    +0.113 A 
ATOM      2  C   UNL     1      -0.503  -2.532   1.442  0.00  0.00    +0.053 A 
ATOM      3  C   UNL     1      -0.203  -1.378   0.729  0.00  0.00    +0.050 A 
ATOM      4  C   UNL     1       0.888  -0.601   1.098  0.00  0.00    +0.025 A 
ATOM      5  C   UNL     1       1.664  -0.972   2.179  0.00  0.00    +0.007 A 
ATOM      6  C   UNL     1       1.363  -2.121   2.887  0.00  0.00    -0.024 A 
ATOM      7  C   UNL     1       2.215  -2.526   4.062  0.00  0.00    +0.046 C 
ENDROOT
BRANCH   1   8
ATOM      8  S   UNL     1      -0.099  -4.363   3.424  0.00  0.00    +0.073 S 
ATOM      9  O   UNL     1      -1.269  -4.913   2.835  0.00  0.00    -0.150 OA
ATOM     10  O   UNL     1       1.113  -5.096   3.538  0.00  0.00    -0.150 OA
BRANCH   8  11
ATOM     11  N   UNL     1      -0.515  -3.896   4.957  0.00  0.00    -0.216 N 
ATOM     12  H   UNL     1       0.009  -4.197   5.715  0.00  0.00    +0.174 HD
BRANCH  11  18
ATOM     13  C   UNL     1      -2.518   0.039   7.117  0.00  0.00    +0.044 C 
ATOM     14  C   UNL     1      -2.622  -1.153   6.200  0.00  0.00    -0.049 A 
ATOM     15  C   UNL     1      -3.816  -1.429   5.559  0.00  0.00    +0.003 A 
ATOM     16  C   UNL     1      -3.915  -2.522   4.718  0.00  0.00    +0.002 A 
ATOM     17  C   UNL     1      -2.822  -3.342   4.516  0.00  0.00    +0.024 A 
ATOM     18  C   UNL     1      -1.622  -3.068   5.159  0.00  0.00    +0.048 A 
ATOM     19  C   UNL     1      -1.527  -1.972   6.007  0.00  0.00    +0.027 A 
ENDBRANCH  11  18
ENDBRANCH   8  11
ENDBRANCH   1   8
BRANCH   3  20
ATOM     20  N   UNL     1      -0.993  -1.004  -0.360  0.00  0.00    -0.216 N 
ATOM     21  H   UNL     1      -0.654  -1.106  -1.263  0.00  0.00    +0.174 HD
BRANCH  20  22
ATOM     22  S   UNL     1      -2.508  -0.384  -0.110  0.00  0.00    +0.072 S 
ATOM     23  O   UNL     1      -3.024  -0.044  -1.389  0.00  0.00    -0.150 OA
ATOM     24  O   UNL     1      -3.174  -1.281   0.767  0.00  0.00    -0.150 OA
BRANCH  22  25
ATOM     25  C   UNL     1      -2.312   1.129   0.772  0.00  0.00    +0.109 A 
ATOM     26  C   UNL     1      -2.220   1.115   2.153  0.00  0.00    +0.029 A 
ATOM     27  C   UNL     1      -2.062   2.294   2.850  0.00  0.00    +0.013 A 
ATOM     28  C   UNL     1      -2.005   3.508   2.158  0.00  0.00    +0.017 A 
ATOM     29  C   UNL     1      -2.105   3.515   0.763  0.00  0.00    +0.013 A 
ATOM     30  C   UNL     1      -2.258   2.327   0.081  0.00  0.00    +0.029 A 
BRANCH  28  31
ATOM     31  C   UNL     1      -1.842   4.772   2.895  0.00  0.00    +0.160 C 
ATOM     32  O   UNL     1      -1.793   5.823   2.292  0.00  0.00    -0.292 OA
ATOM     33  C   UNL     1      -1.735   4.760   4.398  0.00  0.00    +0.091 C 
ENDBRANCH  28  31
ENDBRANCH  22  25
ENDBRANCH  20  22
ENDBRANCH   3  20
TORSDOF 7
