REMARK  Name = ZINC13636065
REMARK  3 active torsions:
REMARK  status: ('A' for Active; 'I' for Inactive)
REMARK    1  A    between atoms: C_10  and  N_11
REMARK    2  A    between atoms: N_13  and  C_18
REMARK    3  A    between atoms: C_18  and  C_19
REMARK                            x       y       z     vdW  Elec       q    Type
REMARK                         _______ _______ _______ _____ _____    ______ ____
ROOT
ATOM      1  N   UNL     1       4.871   0.098  -0.044  0.00  0.00    -0.267 N 
ATOM      2  C   UNL     1       5.535   0.474   1.214  0.00  0.00    +0.201 C 
ATOM      3  N   UNL     1       5.995   1.867   1.080  0.00  0.00    -0.265 NA
ATOM      4  C   UNL     1       6.982   1.982  -0.000  0.00  0.00    +0.204 C 
ATOM      5  N   UNL     1       6.469   1.386  -1.231  0.00  0.00    -0.354 N 
ATOM      6  C   UNL     1       5.465   0.464  -1.225  0.00  0.00    +0.148 C 
ATOM      7  S   UNL     1       4.954  -0.213  -2.651  0.00  0.00    -0.016 SA
ATOM      8  H   UNL     1       6.858   1.651  -2.079  0.00  0.00    +0.163 HD
ENDROOT
BRANCH   1  18
ATOM      9  C   UNL     1      -0.016   1.357   0.009  0.00  0.00    +0.001 A 
ATOM     10  C   UNL     1       1.169   2.090   0.002  0.00  0.00    +0.001 A 
ATOM     11  C   UNL     1       2.378   1.466  -0.013  0.00  0.00    +0.010 A 
ATOM     12  C   UNL     1       2.437   0.064  -0.021  0.00  0.00    +0.004 A 
ATOM     13  C   UNL     1       1.233  -0.683  -0.013  0.00  0.00    -0.016 A 
ATOM     14  C   UNL     1       0.002  -0.004   0.002  0.00  0.00    +0.008 A 
ATOM     15  C   UNL     1       1.290  -2.087  -0.020  0.00  0.00    +0.008 A 
ATOM     16  C   UNL     1       2.496  -2.719  -0.034  0.00  0.00    +0.002 A 
ATOM     17  C   UNL     1       3.685  -1.996  -0.041  0.00  0.00    +0.024 A 
ATOM     18  C   UNL     1       3.672  -0.618  -0.036  0.00  0.00    +0.045 A 
ENDBRANCH   1  18
BRANCH   3  19
ATOM     19  C   UNL     1       6.543   2.364   2.349  0.00  0.00    +0.124 C 
BRANCH  19  20
ATOM     20  C   UNL     1       6.775   3.850   2.249  0.00  0.00    -0.015 A 
ATOM     21  C   UNL     1       7.989   4.342   1.796  0.00  0.00    +0.008 A 
ATOM     22  C   UNL     1       8.157   5.716   1.720  0.00  0.00    +0.020 A 
ATOM     23  C   UNL     1       7.116   6.544   2.096  0.00  0.00    +0.111 A 
ATOM     24  N   UNL     1       5.974   6.040   2.522  0.00  0.00    -0.263 NA
ATOM     25  C   UNL     1       5.777   4.739   2.602  0.00  0.00    +0.115 A 
ENDBRANCH  19  20
ENDBRANCH   3  19
TORSDOF 3
