REMARK  Name = ZINC14244171
REMARK  9 active torsions:
REMARK  status: ('A' for Active; 'I' for Inactive)
REMARK    1  A    between atoms: C_4  and  C_7
REMARK    2  A    between atoms: C_7  and  C_8
REMARK    3  A    between atoms: C_8  and  C_10
REMARK    4  A    between atoms: C_8  and  N_22
REMARK    5  A    between atoms: N_12  and  C_13
REMARK    6  A    between atoms: C_16  and  C_19
REMARK    7  A    between atoms: C_23  and  C_25
REMARK    8  A    between atoms: C_25  and  C_26
REMARK    9  A    between atoms: C_25  and  C_32
REMARK                            x       y       z     vdW  Elec       q    Type
REMARK                         _______ _______ _______ _____ _____    ______ ____
ROOT
ATOM      1  C   UNL     1       0.554   2.592  -0.400  0.00  0.00    +0.163 C 
ENDROOT
BRANCH   1   2
ATOM      2  C   UNL     1       0.307   4.068  -0.583  0.00  0.00    +0.238 C 
ATOM      3  O   UNL     1       0.628   4.612  -1.618  0.00  0.00    -0.273 OA
ATOM      4  N   UNL     1      -0.269   4.782   0.404  0.00  0.00    -0.284 N 
ATOM      5  H   UNL     1      -0.593   4.334   1.201  0.00  0.00    +0.155 HD
BRANCH   4   6
ATOM      6  C   UNL     1      -0.400   6.164   0.280  0.00  0.00    +0.033 A 
ATOM      7  C   UNL     1       0.577   6.896  -0.389  0.00  0.00    +0.024 A 
ATOM      8  C   UNL     1       0.449   8.261  -0.518  0.00  0.00    +0.015 A 
ATOM      9  C   UNL     1      -0.658   8.912   0.033  0.00  0.00    +0.037 A 
ATOM     10  C   UNL     1      -1.634   8.175   0.709  0.00  0.00    +0.015 A 
ATOM     11  C   UNL     1      -1.503   6.810   0.830  0.00  0.00    +0.024 A 
BRANCH   9  12
ATOM     12  C   UNL     1      -0.796  10.376  -0.098  0.00  0.00    +0.242 C 
ATOM     13  O   UNL     1      -1.760  10.941   0.381  0.00  0.00    -0.270 OA
ATOM     14  N   UNL     1       0.146  11.086  -0.750  0.00  0.00    -0.325 N 
ATOM     15  H   UNL     1       0.915  10.635  -1.133  0.00  0.00    +0.145 HD
ATOM     16  H   UNL     1       0.055  12.047  -0.837  0.00  0.00    +0.145 HD
ENDBRANCH   9  12
ENDBRANCH   4   6
ENDBRANCH   1   2
BRANCH   1  17
ATOM     17  N   UNL     1       1.186   2.050  -1.606  0.00  0.00    -0.303 N 
ATOM     18  C   UNL     1       1.944   0.938  -1.528  0.00  0.00    +0.225 C 
ATOM     19  O   UNL     1       2.103   0.387  -0.459  0.00  0.00    -0.275 OA
ATOM     20  H   UNL     1       1.058   2.491  -2.460  0.00  0.00    +0.149 HD
BRANCH  18  21
ATOM     21  C   UNL     1       2.593   0.380  -2.768  0.00  0.00    +0.135 C 
BRANCH  21  22
ATOM     22  C   UNL     1       3.520   1.412  -3.357  0.00  0.00    -0.031 A 
ATOM     23  C   UNL     1       4.451   2.044  -2.553  0.00  0.00    +0.005 A 
ATOM     24  C   UNL     1       5.305   2.986  -3.095  0.00  0.00    +0.000 A 
ATOM     25  C   UNL     1       5.221   3.305  -4.437  0.00  0.00    +0.000 A 
ATOM     26  C   UNL     1       4.285   2.678  -5.239  0.00  0.00    +0.000 A 
ATOM     27  C   UNL     1       3.436   1.731  -4.699  0.00  0.00    +0.005 A 
ENDBRANCH  21  22
BRANCH  21  28
ATOM     28  C   UNL     1       3.379  -0.855  -2.411  0.00  0.00    -0.031 A 
ATOM     29  C   UNL     1       4.322  -0.807  -1.401  0.00  0.00    +0.005 A 
ATOM     30  C   UNL     1       5.039  -1.942  -1.071  0.00  0.00    +0.000 A 
ATOM     31  C   UNL     1       4.820  -3.122  -1.756  0.00  0.00    +0.000 A 
ATOM     32  C   UNL     1       3.881  -3.169  -2.769  0.00  0.00    +0.000 A 
ATOM     33  C   UNL     1       3.160  -2.035  -3.096  0.00  0.00    +0.005 A 
ENDBRANCH  21  28
ENDBRANCH  18  21
ENDBRANCH   1  17
BRANCH   1  34
ATOM     34  C   UNL     1      -0.777   1.879  -0.157  0.00  0.00    +0.067 C 
BRANCH  34  38
ATOM     35  C   UNL     1      -0.049  -2.241   0.705  0.00  0.00    +0.000 A 
ATOM     36  C   UNL     1      -0.092  -1.317   1.732  0.00  0.00    +0.000 A 
ATOM     37  C   UNL     1      -0.327   0.016   1.453  0.00  0.00    +0.004 A 
ATOM     38  C   UNL     1      -0.520   0.425   0.147  0.00  0.00    -0.045 A 
ATOM     39  C   UNL     1      -0.483  -0.499  -0.880  0.00  0.00    +0.004 A 
ATOM     40  C   UNL     1      -0.243  -1.832  -0.601  0.00  0.00    +0.000 A 
ENDBRANCH  34  38
ENDBRANCH   1  34
TORSDOF 9
