REMARK  Name = ZINC21120801
REMARK  8 active torsions:
REMARK  status: ('A' for Active; 'I' for Inactive)
REMARK    1  A    between atoms: C_1  and  C_2
REMARK    2  A    between atoms: C_2  and  N_3
REMARK    3  A    between atoms: C_7  and  C_9
REMARK    4  A    between atoms: C_9  and  C_11
REMARK    5  A    between atoms: C_9  and  S_12
REMARK    6  A    between atoms: S_12  and  C_13
REMARK    7  A    between atoms: N_23  and  C_24
REMARK    8  A    between atoms: C_29  and  C_30
REMARK                            x       y       z     vdW  Elec       q    Type
REMARK                         _______ _______ _______ _____ _____    ______ ____
ROOT
ATOM      1  C   UNL     1      -5.117   0.712  -0.707  0.00  0.00    +0.177 A 
ATOM      2  N   UNL     1      -4.890  -0.497  -0.256  0.00  0.00    -0.223 NA
ATOM      3  C   UNL     1      -5.860  -1.441  -0.239  0.00  0.00    +0.079 A 
ATOM      4  C   UNL     1      -5.620  -2.731   0.242  0.00  0.00    +0.028 A 
ATOM      5  C   UNL     1      -6.629  -3.652   0.241  0.00  0.00    +0.002 A 
ATOM      6  C   UNL     1      -7.894  -3.326  -0.232  0.00  0.00    +0.001 A 
ATOM      7  C   UNL     1      -8.160  -2.072  -0.709  0.00  0.00    +0.015 A 
ATOM      8  C   UNL     1      -7.148  -1.112  -0.720  0.00  0.00    +0.065 A 
ATOM      9  C   UNL     1      -7.376   0.250  -1.220  0.00  0.00    +0.267 A 
ATOM     10  O   UNL     1      -8.464   0.592  -1.646  0.00  0.00    -0.267 OA
ATOM     11  N   UNL     1      -6.334   1.113  -1.184  0.00  0.00    -0.255 N 
ENDROOT
BRANCH  11  12
ATOM     12  C   UNL     1      -6.503   2.425  -1.644  0.00  0.00    +0.064 A 
ATOM     13  C   UNL     1      -6.261   2.731  -2.977  0.00  0.00    +0.027 A 
ATOM     14  C   UNL     1      -6.433   4.025  -3.428  0.00  0.00    +0.002 A 
ATOM     15  C   UNL     1      -6.834   5.017  -2.552  0.00  0.00    +0.001 A 
ATOM     16  C   UNL     1      -7.069   4.716  -1.224  0.00  0.00    +0.014 A 
ATOM     17  C   UNL     1      -6.905   3.423  -0.767  0.00  0.00    +0.079 A 
BRANCH  17  18
ATOM     18  C   UNL     1      -7.163   3.096   0.681  0.00  0.00    +0.419 C 
ATOM     19  F   UNL     1      -7.554   4.256   1.359  0.00  0.00    -0.166 F 
ATOM     20  F   UNL     1      -8.180   2.139   0.769  0.00  0.00    -0.166 F 
ATOM     21  F   UNL     1      -5.994   2.590   1.260  0.00  0.00    -0.166 F 
ENDBRANCH  17  18
ENDBRANCH  11  12
BRANCH   1  22
ATOM     22  S   UNL     1      -3.795   1.877  -0.691  0.00  0.00    -0.075 S 
BRANCH  22  23
ATOM     23  C   UNL     1      -2.482   0.853   0.018  0.00  0.00    +0.137 C 
ATOM     24  C   UNL     1      -2.849   0.476   1.455  0.00  0.00    +0.029 C 
BRANCH  23  29
ATOM     25  N   UNL     1       2.323   0.998  -0.015  0.00  0.00    -0.299 N 
ATOM     26  C   UNL     1       1.147   1.655   0.000  0.00  0.00    +0.306 C 
ATOM     27  O   UNL     1       1.130   2.871   0.007  0.00  0.00    -0.252 OA
ATOM     28  N   UNL     1      -0.011   0.966   0.007  0.00  0.00    -0.239 N 
ATOM     29  C   UNL     1      -1.187   1.624   0.017  0.00  0.00    +0.233 C 
ATOM     30  O   UNL     1      -1.204   2.836   0.023  0.00  0.00    -0.274 OA
ATOM     31  H   UNL     1       2.338  -0.102  -0.021  0.00  0.00    +0.150 HD
ATOM     32  H   UNL     1       0.004  -0.134   0.006  0.00  0.00    +0.159 HD
BRANCH  25  34
ATOM     33  C   UNL     1       4.758   0.769  -0.039  0.00  0.00    +0.024 C 
ATOM     34  C   UNL     1       3.582   1.747  -0.023  0.00  0.00    +0.102 C 
ENDBRANCH  25  34
ENDBRANCH  23  29
ENDBRANCH  22  23
ENDBRANCH   1  22
TORSDOF 6
