REMARK  Name = ZINC39218228
REMARK  8 active torsions:
REMARK  status: ('A' for Active; 'I' for Inactive)
REMARK    1  A    between atoms: C_1  and  O_2
REMARK    2  A    between atoms: O_2  and  C_3
REMARK    3  A    between atoms: C_6  and  C_9
REMARK    4  A    between atoms: C_11  and  C_36
REMARK    5  A    between atoms: C_12  and  N_35
REMARK    6  A    between atoms: N_13  and  N_21
REMARK    7  A    between atoms: N_21  and  C_22
REMARK    8  A    between atoms: C_23  and  C_29
REMARK                            x       y       z     vdW  Elec       q    Type
REMARK                         _______ _______ _______ _____ _____    ______ ____
ROOT
ATOM      1  C   UNL     1       3.450  -2.692   3.491  0.00  0.00    +0.097 C 
ATOM      2  C   UNL     1       2.392  -3.244   4.400  0.00  0.00    +0.078 C 
ATOM      3  C   UNL     1       2.115  -4.574   4.428  0.00  0.00    +0.119 C 
ATOM      4  N   UNL     1       2.812  -5.441   3.621  0.00  0.00    -0.211 N 
ATOM      5  C   UNL     1       4.021  -5.080   3.091  0.00  0.00    +0.039 C 
ATOM      6  C   UNL     1       4.377  -3.782   3.013  0.00  0.00    +0.026 C 
ATOM      7  C   UNL     1       5.624  -3.404   2.485  0.00  0.00    +0.162 C 
ATOM      8  O   UNL     1       5.913  -2.226   2.422  0.00  0.00    -0.292 OA
ATOM      9  C   UNL     1       6.608  -4.432   1.997  0.00  0.00    +0.080 C 
ATOM     10  C   UNL     1       6.394  -5.736   2.772  0.00  0.00    +0.014 C 
ATOM     11  C   UNL     1       4.940  -6.170   2.595  0.00  0.00    +0.053 C 
ENDROOT
BRANCH   1  15
ATOM     12  C   UNL     1       1.579  -0.863   0.112  0.00  0.00    +0.120 A 
ATOM     13  C   UNL     1       2.048  -0.079   1.156  0.00  0.00    +0.046 A 
ATOM     14  C   UNL     1       2.652  -0.673   2.247  0.00  0.00    +0.008 A 
ATOM     15  C   UNL     1       2.790  -2.047   2.299  0.00  0.00    -0.034 A 
ATOM     16  C   UNL     1       2.324  -2.831   1.260  0.00  0.00    +0.008 A 
ATOM     17  C   UNL     1       1.714  -2.243   0.169  0.00  0.00    +0.046 A 
BRANCH  12  19
ATOM     18  C   UNL     1       0.879   1.144  -0.954  0.00  0.00    +0.277 C 
ATOM     19  O   UNL     1       0.984  -0.281  -0.963  0.00  0.00    -0.495 OA
ENDBRANCH  12  19
ENDBRANCH   1  15
BRANCH   3  20
ATOM     20  N   UNL     1       1.137  -5.053   5.266  0.00  0.00    -0.344 N 
ATOM     21  H   UNL     1       0.645  -4.442   5.836  0.00  0.00    +0.144 HD
ATOM     22  H   UNL     1       0.938  -6.002   5.287  0.00  0.00    +0.144 HD
ENDBRANCH   3  20
BRANCH   4  23
ATOM     23  N   UNL     1       2.280  -6.706   3.338  0.00  0.00    -0.260 N 
ATOM     24  H   UNL     1       2.679  -7.499   3.729  0.00  0.00    +0.170 HD
BRANCH  23  25
ATOM     25  C   UNL     1       1.211  -6.821   2.521  0.00  0.00    +0.059 C 
ATOM     26  C   UNL     1       0.569  -8.040   2.319  0.00  0.00    +0.110 C 
ATOM     27  N   UNL     1      -0.479  -8.138   1.514  0.00  0.00    -0.155 NA
ATOM     28  N   UNL     1      -1.010  -7.183   0.854  0.00  0.00    -0.080 NA
ATOM     29  C   UNL     1      -0.560  -5.920   0.893  0.00  0.00    +0.260 C 
ATOM     30  O   UNL     1      -1.096  -5.042   0.248  0.00  0.00    -0.272 OA
ATOM     31  C   UNL     1       0.639  -5.626   1.776  0.00  0.00    +0.153 C 
BRANCH  26  32
ATOM     32  C   UNL     1       1.068  -9.250   3.017  0.00  0.00    +0.003 A 
ATOM     33  C   UNL     1       1.344  -9.206   4.383  0.00  0.00    +0.010 A 
ATOM     34  C   UNL     1       1.807 -10.335   5.027  0.00  0.00    +0.001 A 
ATOM     35  C   UNL     1       1.997 -11.509   4.320  0.00  0.00    +0.000 A 
ATOM     36  C   UNL     1       1.725 -11.558   2.965  0.00  0.00    +0.001 A 
ATOM     37  C   UNL     1       1.256 -10.437   2.311  0.00  0.00    +0.010 A 
ENDBRANCH  26  32
ENDBRANCH  23  25
ENDBRANCH   4  23
BRANCH   2  38
ATOM     38  C   UNL     1       1.663  -2.355   5.253  0.00  0.00    +0.099 C 
ATOM     39  N   UNL     1       1.084  -1.649   5.930  0.00  0.00    -0.191 NA
ENDBRANCH   2  38
TORSDOF 7
