REMARK  Name = ZINC26197018
REMARK  11 active torsions:
REMARK  status: ('A' for Active; 'I' for Inactive)
REMARK    1  A    between atoms: C_1  and  C_2
REMARK    2  A    between atoms: C_2  and  C_3
REMARK    3  A    between atoms: C_3  and  C_5
REMARK    4  A    between atoms: C_3  and  C_6
REMARK    5  A    between atoms: C_6  and  C_7
REMARK    6  A    between atoms: C_8  and  C_35
REMARK    7  A    between atoms: C_16  and  S_18
REMARK    8  A    between atoms: S_18  and  C_19
REMARK    9  A    between atoms: C_19  and  C_20
REMARK   10  A    between atoms: C_22  and  O_23
REMARK   11  A    between atoms: C_32  and  C_34
REMARK                            x       y       z     vdW  Elec       q    Type
REMARK                         _______ _______ _______ _____ _____    ______ ____
ROOT
ATOM      1  S   UNL     1       1.300  -7.405   0.930  0.00  0.00    -0.083 S 
ENDROOT
BRANCH   1  11
ATOM      2  C   UNL     1      -0.212 -10.197   5.967  0.00  0.00    -0.023 A 
ATOM      3  C   UNL     1      -1.539 -10.259   6.150  0.00  0.00    -0.007 A 
ATOM      4  S   UNL     1      -2.195  -9.430   4.714  0.00  0.00    -0.073 S 
ATOM      5  C   UNL     1      -0.666  -9.024   3.909  0.00  0.00    +0.117 A 
ATOM      6  C   UNL     1       0.311  -9.544   4.779  0.00  0.00    +0.075 A 
ATOM      7  C   UNL     1       1.669  -9.357   4.372  0.00  0.00    +0.261 A 
ATOM      8  O   UNL     1       2.583  -9.774   5.062  0.00  0.00    -0.267 OA
ATOM      9  N   UNL     1       1.925  -8.719   3.215  0.00  0.00    -0.301 N 
ATOM     10  H   UNL     1       2.964  -8.575   2.885  0.00  0.00    +0.171 HD
ATOM     11  C   UNL     1       0.914  -8.240   2.432  0.00  0.00    +0.170 A 
ATOM     12  N   UNL     1      -0.346  -8.399   2.783  0.00  0.00    -0.216 NA
ATOM     13  C   UNL     1      -2.295 -10.881   7.295  0.00  0.00    +0.052 C 
BRANCH   2  14
ATOM     14  C   UNL     1       0.726 -10.797   6.982  0.00  0.00    +0.040 C 
BRANCH  14  15
ATOM     15  C   UNL     1       1.006 -12.257   6.618  0.00  0.00    -0.010 C 
ATOM     16  C   UNL     1      -0.287 -13.067   6.733  0.00  0.00    +0.008 C 
BRANCH  15  18
ATOM     17  C   UNL     1       2.424 -14.248   7.135  0.00  0.00    +0.004 C 
ATOM     18  C   UNL     1       2.053 -12.830   7.574  0.00  0.00    +0.000 C 
ENDBRANCH  15  18
ENDBRANCH  14  15
ENDBRANCH   2  14
ENDBRANCH   1  11
BRANCH   1  19
ATOM     19  C   UNL     1      -0.370  -7.024   0.344  0.00  0.00    +0.113 C 
BRANCH  19  20
ATOM     20  C   UNL     1      -0.286  -6.287  -0.968  0.00  0.00    -0.020 A 
ATOM     21  C   UNL     1      -0.279  -6.960  -2.147  0.00  0.00    +0.092 A 
ATOM     22  C   UNL     1      -0.200  -6.248  -3.361  0.00  0.00    +0.285 A 
ATOM     23  O   UNL     1      -0.132  -4.908  -3.389  0.00  0.00    -0.425 OA
ATOM     24  C   UNL     1      -0.136  -4.178  -2.253  0.00  0.00    +0.141 A 
ATOM     25  C   UNL     1      -0.211  -4.825  -1.005  0.00  0.00    +0.022 A 
ATOM     26  C   UNL     1      -0.215  -4.073   0.175  0.00  0.00    +0.013 A 
ATOM     27  C   UNL     1      -0.140  -2.712   0.112  0.00  0.00    +0.024 A 
ATOM     28  C   UNL     1      -0.071  -2.064  -1.121  0.00  0.00    +0.037 A 
ATOM     29  C   UNL     1      -0.065  -2.794  -2.300  0.00  0.00    +0.070 A 
ATOM     30  N   UNL     1       0.000  -0.672  -1.169  0.00  0.00    -0.286 N 
ATOM     31  C   UNL     1      -0.605  -0.000  -2.168  0.00  0.00    +0.214 C 
ATOM     32  O   UNL     1      -1.141  -0.609  -3.070  0.00  0.00    -0.276 OA
ATOM     33  C   UNL     1      -0.617   1.507  -2.165  0.00  0.00    +0.109 C 
ATOM     34  H   UNL     1       0.550  -0.122  -0.391  0.00  0.00    +0.155 HD
BRANCH  22  35
ATOM     35  O   UNL     1      -0.194  -6.865  -4.412  0.00  0.00    -0.480 OA
ATOM     36  H   UNL     1      -0.133  -6.323  -5.367  0.00  0.00    +0.295 HD
ENDBRANCH  22  35
ENDBRANCH  19  20
ENDBRANCH   1  19
TORSDOF 7
