REMARK  Name = ZINC20726724
REMARK  8 active torsions:
REMARK  status: ('A' for Active; 'I' for Inactive)
REMARK    1  A    between atoms: C_4  and  C_7
REMARK    2  A    between atoms: C_7  and  C_8
REMARK    3  A    between atoms: N_11  and  C_14
REMARK    4  A    between atoms: C_14  and  C_15
REMARK    5  A    between atoms: C_15  and  N_16
REMARK    6  A    between atoms: C_17  and  C_19
REMARK    7  A    between atoms: C_19  and  N_20
REMARK    8  A    between atoms: C_29  and  C_30
REMARK                            x       y       z     vdW  Elec       q    Type
REMARK                         _______ _______ _______ _____ _____    ______ ____
ROOT
ATOM      1  N   UNL     1       3.912  -0.147  -1.514  0.00  0.00    -0.316 N 
ATOM      2  C   UNL     1       2.799   0.605  -1.410  0.00  0.00    +0.231 C 
ATOM      3  O   UNL     1       2.127   0.834  -2.394  0.00  0.00    -0.274 OA
ATOM      4  H   UNL     1       4.521  -0.354  -0.622  0.00  0.00    +0.149 HD
ENDROOT
BRANCH   1   5
ATOM      5  C   UNL     1       4.311  -0.688  -2.815  0.00  0.00    +0.086 C 
BRANCH   5   6
ATOM      6  C   UNL     1       5.599  -1.499  -2.657  0.00  0.00    -0.060 C 
BRANCH   6  10
ATOM      7  C   UNL     1       7.593  -2.273  -6.359  0.00  0.00    -0.010 C 
ATOM      8  C   UNL     1       7.673  -3.304  -5.230  0.00  0.00    -0.015 C 
ATOM      9  C   UNL     1       7.347  -2.622  -3.899  0.00  0.00    -0.078 C 
ATOM     10  N   UNL     1       6.000  -2.041  -3.962  0.00  0.00    +0.381 N 
ATOM     11  C   UNL     1       5.912  -1.015  -5.008  0.00  0.00    -0.078 C 
ATOM     12  C   UNL     1       6.195  -1.649  -6.372  0.00  0.00    -0.015 C 
ATOM     13  H   UNL     1       5.299  -2.848  -4.224  0.00  0.00    -0.082 HD
BRANCH   7  14
ATOM     14  C   UNL     1       7.859  -2.962  -7.700  0.00  0.00    +0.038 C 
BRANCH  14  18
ATOM     15  C   UNL     1       7.981  -0.033 -10.806  0.00  0.00    +0.000 A 
ATOM     16  C   UNL     1       9.139  -0.377 -10.136  0.00  0.00    +0.000 A 
ATOM     17  C   UNL     1       9.100  -1.325  -9.130  0.00  0.00    +0.003 A 
ATOM     18  C   UNL     1       7.902  -1.928  -8.796  0.00  0.00    -0.047 A 
ATOM     19  C   UNL     1       6.744  -1.587  -9.470  0.00  0.00    +0.003 A 
ATOM     20  C   UNL     1       6.783  -0.636 -10.472  0.00  0.00    +0.000 A 
ENDBRANCH  14  18
ENDBRANCH   7  14
ENDBRANCH   6  10
ENDBRANCH   5   6
ENDBRANCH   1   5
BRANCH   2  21
ATOM     21  C   UNL     1       2.388   1.162  -0.071  0.00  0.00    +0.209 C 
BRANCH  21  22
ATOM     22  N   UNL     1       1.154   1.938  -0.223  0.00  0.00    -0.257 N 
ATOM     23  C   UNL     1       1.299   3.290  -0.506  0.00  0.00    +0.051 A 
ATOM     24  C   UNL     1       2.507   3.731  -1.044  0.00  0.00    +0.024 A 
ATOM     25  C   UNL     1       2.694   5.065  -1.343  0.00  0.00    +0.002 A 
ATOM     26  C   UNL     1       1.686   5.984  -1.114  0.00  0.00    +0.001 A 
ATOM     27  C   UNL     1       0.482   5.564  -0.580  0.00  0.00    +0.017 A 
ATOM     28  C   UNL     1       0.289   4.226  -0.277  0.00  0.00    +0.034 A 
ATOM     29  S   UNL     1      -1.250   3.690   0.409  0.00  0.00    -0.082 S 
ATOM     30  C   UNL     1      -1.289   1.991  -0.109  0.00  0.00    +0.076 C 
ATOM     31  C   UNL     1      -2.433   1.386  -0.508  0.00  0.00    +0.028 C 
ATOM     32  C   UNL     1       0.005   1.273  -0.074  0.00  0.00    +0.258 C 
ATOM     33  O   UNL     1       0.022   0.067   0.087  0.00  0.00    -0.269 OA
BRANCH  31  34
ATOM     34  C   UNL     1      -3.720   2.087  -0.378  0.00  0.00    -0.024 A 
ATOM     35  C   UNL     1      -4.740   1.862  -1.307  0.00  0.00    +0.008 A 
ATOM     36  C   UNL     1      -5.945   2.519  -1.175  0.00  0.00    +0.001 A 
ATOM     37  C   UNL     1      -6.142   3.408  -0.132  0.00  0.00    +0.000 A 
ATOM     38  C   UNL     1      -5.135   3.640   0.788  0.00  0.00    +0.001 A 
ATOM     39  C   UNL     1      -3.926   2.987   0.673  0.00  0.00    +0.008 A 
ENDBRANCH  31  34
ENDBRANCH  21  22
ENDBRANCH   2  21
TORSDOF 8
