REMARK  Name = ZINC09386826
REMARK  8 active torsions:
REMARK  status: ('A' for Active; 'I' for Inactive)
REMARK    1  A    between atoms: C_1  and  C_2
REMARK    2  A    between atoms: C_2  and  C_27
REMARK    3  A    between atoms: N_5  and  N_9
REMARK    4  A    between atoms: C_10  and  C_12
REMARK    5  A    between atoms: C_12  and  N_72
REMARK    6  A    between atoms: C_15  and  C_18
REMARK    7  A    between atoms: C_27  and  C_28
REMARK    8  A    between atoms: C_28  and  C_29
REMARK                            x       y       z     vdW  Elec       q    Type
REMARK                         _______ _______ _______ _____ _____    ______ ____
ROOT
ATOM      1  N   UNL     1       4.334   2.024   0.607  0.00  0.00    -0.225 N 
ATOM      2  C   UNL     1       4.884   2.265  -0.600  0.00  0.00    +0.213 C 
ATOM      3  O   UNL     1       4.245   2.842  -1.453  0.00  0.00    -0.276 OA
ATOM      4  H   UNL     1       4.846   1.562   1.290  0.00  0.00    +0.173 HD
ENDROOT
BRANCH   1   9
ATOM      5  C   UNL     1       0.131   2.086   2.572  0.00  0.00    +0.041 C 
ATOM      6  C   UNL     1       0.770   2.494   1.243  0.00  0.00    +0.112 C 
ATOM      7  C   UNL     1       1.962   1.612   0.928  0.00  0.00    +0.263 C 
ATOM      8  O   UNL     1       1.960   0.412   0.758  0.00  0.00    -0.271 OA
ATOM      9  N   UNL     1       3.024   2.440   0.875  0.00  0.00    -0.137 N 
ATOM     10  C   UNL     1       2.672   3.709   1.111  0.00  0.00    +0.326 C 
ATOM     11  O   UNL     1       3.456   4.638   1.116  0.00  0.00    -0.251 OA
ATOM     12  N   UNL     1       1.353   3.843   1.340  0.00  0.00    -0.284 N 
ATOM     13  H   UNL     1       0.878   4.667   1.528  0.00  0.00    +0.151 HD
BRANCH   6  14
ATOM     14  C   UNL     1      -0.259   2.432   0.112  0.00  0.00    +0.040 C 
BRANCH  14  15
ATOM     15  C   UNL     1      -1.332   3.498   0.339  0.00  0.00    +0.038 C 
BRANCH  15  16
ATOM     16  C   UNL     1      -2.345   3.438  -0.775  0.00  0.00    -0.047 A 
ATOM     17  C   UNL     1      -2.166   4.200  -1.914  0.00  0.00    +0.003 A 
ATOM     18  C   UNL     1      -3.093   4.141  -2.938  0.00  0.00    +0.000 A 
ATOM     19  C   UNL     1      -4.204   3.327  -2.818  0.00  0.00    +0.000 A 
ATOM     20  C   UNL     1      -4.385   2.568  -1.677  0.00  0.00    +0.000 A 
ATOM     21  C   UNL     1      -3.456   2.624  -0.655  0.00  0.00    +0.003 A 
ENDBRANCH  15  16
ENDBRANCH  14  15
ENDBRANCH   6  14
ENDBRANCH   1   9
BRANCH   2  22
ATOM     22  C   UNL     1       6.294   1.817  -0.888  0.00  0.00    +0.020 C 
BRANCH  22  28
ATOM     23  C   UNL     1       5.844   1.462  -3.240  0.00  0.00    -0.077 C 
ATOM     24  C   UNL     1       6.145   1.984  -4.647  0.00  0.00    -0.006 C 
ATOM     25  C   UNL     1       7.634   1.796  -4.948  0.00  0.00    +0.072 C 
ATOM     26  C   UNL     1       8.459   2.528  -3.886  0.00  0.00    -0.006 C 
ATOM     27  C   UNL     1       8.091   1.990  -2.501  0.00  0.00    -0.077 C 
ATOM     28  N   UNL     1       6.651   2.224  -2.263  0.00  0.00    +0.385 N 
ATOM     29  H   UNL     1       6.452   3.225  -2.376  0.00  0.00    -0.081 HD
BRANCH  25  30
ATOM     30  C   UNL     1       7.949   2.363  -6.309  0.00  0.00    +0.219 C 
ATOM     31  O   UNL     1       8.251   3.532  -6.423  0.00  0.00    -0.275 OA
ATOM     32  N   UNL     1       7.894   1.571  -7.398  0.00  0.00    -0.301 N 
ATOM     33  C   UNL     1       8.305   2.116  -8.672  0.00  0.00    +0.108 C 
ATOM     34  C   UNL     1       7.100   2.772  -9.377  0.00  0.00    +0.019 C 
ATOM     35  C   UNL     1       6.160   1.742  -9.845  0.00  0.00    +0.002 C 
ATOM     36  C   UNL     1       5.539   0.905  -8.730  0.00  0.00    +0.002 C 
ATOM     37  C   UNL     1       6.467  -0.233  -8.383  0.00  0.00    +0.019 C 
ATOM     38  C   UNL     1       7.411   0.185  -7.241  0.00  0.00    +0.108 C 
ENDBRANCH  25  30
ENDBRANCH  22  28
ENDBRANCH   2  22
TORSDOF 7
