REMARK  Name = ZINC12790964
REMARK  11 active torsions:
REMARK  status: ('A' for Active; 'I' for Inactive)
REMARK    1  A    between atoms: C_1  and  N_57
REMARK    2  A    between atoms: C_2  and  N_57
REMARK    3  A    between atoms: C_3  and  C_5
REMARK    4  A    between atoms: C_3  and  C_26
REMARK    5  A    between atoms: C_3  and  N_57
REMARK    6  A    between atoms: C_5  and  N_6
REMARK    7  A    between atoms: C_7  and  C_9
REMARK    8  A    between atoms: C_9  and  C_11
REMARK    9  A    between atoms: C_9  and  N_18
REMARK   10  A    between atoms: C_11  and  C_12
REMARK   11  A    between atoms: C_19  and  C_21
REMARK                            x       y       z     vdW  Elec       q    Type
REMARK                         _______ _______ _______ _____ _____    ______ ____
ROOT
ATOM      1  N   UNL     1      -6.037   4.517  -1.030  0.00  0.00    -0.315 N 
ATOM      2  C   UNL     1      -5.169   5.544  -1.122  0.00  0.00    +0.234 C 
ATOM      3  O   UNL     1      -5.573   6.658  -1.381  0.00  0.00    -0.274 OA
ATOM      4  H   UNL     1      -5.714   3.626  -0.823  0.00  0.00    +0.149 HD
ENDROOT
BRANCH   1   5
ATOM      5  C   UNL     1      -7.468   4.746  -1.243  0.00  0.00    +0.093 C 
BRANCH   5   6
ATOM      6  C   UNL     1      -8.213   3.411  -1.182  0.00  0.00    -0.020 C 
BRANCH   6   7
ATOM      7  C   UNL     1      -8.132   2.854   0.215  0.00  0.00    -0.041 A 
ATOM      8  C   UNL     1      -7.149   1.937   0.538  0.00  0.00    +0.003 A 
ATOM      9  C   UNL     1      -7.071   1.429   1.821  0.00  0.00    +0.000 A 
ATOM     10  C   UNL     1      -7.983   1.830   2.780  0.00  0.00    +0.001 A 
ATOM     11  C   UNL     1      -8.969   2.742   2.458  0.00  0.00    +0.020 A 
ATOM     12  C   UNL     1      -9.044   3.255   1.175  0.00  0.00    +0.043 A 
ATOM     13 CL   UNL     1     -10.284   4.401   0.768  0.00  0.00    -0.083 Cl
ENDBRANCH   6   7
BRANCH   6  16
ATOM     14  C   UNL     1      -8.387   1.228  -2.216  0.00  0.00    -0.096 C 
ATOM     15  C   UNL     1      -7.425   3.078  -3.447  0.00  0.00    -0.096 C 
ATOM     16  N   UNL     1      -7.574   2.458  -2.113  0.00  0.00    +0.382 N 
ATOM     17  H   UNL     1      -6.644   2.213  -1.754  0.00  0.00    -0.082 HD
ENDBRANCH   6  16
ENDBRANCH   5   6
ENDBRANCH   1   5
BRANCH   2  18
ATOM     18  C   UNL     1      -3.697   5.309  -0.903  0.00  0.00    +0.163 C 
BRANCH  18  19
ATOM     19  N   UNL     1      -2.933   6.404  -1.504  0.00  0.00    -0.299 N 
ATOM     20  C   UNL     1      -3.126   7.670  -1.085  0.00  0.00    +0.251 C 
ATOM     21  O   UNL     1      -3.935   7.903  -0.206  0.00  0.00    -0.270 OA
ATOM     22  H   UNL     1      -2.287   6.218  -2.204  0.00  0.00    +0.150 HD
BRANCH  20  23
ATOM     23  C   UNL     1      -2.360   8.766  -1.686  0.00  0.00    +0.074 A 
ATOM     24  C   UNL     1      -2.407  10.122  -1.403  0.00  0.00    +0.021 A 
ATOM     25  C   UNL     1      -1.572  10.940  -2.123  0.00  0.00    +0.008 A 
ATOM     26  C   UNL     1      -0.756  10.394  -3.062  0.00  0.00    +0.046 A 
ATOM     27  S   UNL     1      -1.121   8.702  -2.968  0.00  0.00    -0.092 S 
ENDBRANCH  20  23
ENDBRANCH  18  19
BRANCH  18  28
ATOM     28  C   UNL     1      -3.408   5.248   0.598  0.00  0.00    +0.067 C 
BRANCH  28  29
ATOM     29  C   UNL     1      -1.960   4.891   0.817  0.00  0.00    -0.045 A 
ATOM     30  C   UNL     1      -1.584   3.565   0.921  0.00  0.00    +0.004 A 
ATOM     31  C   UNL     1      -0.256   3.238   1.126  0.00  0.00    +0.000 A 
ATOM     32  C   UNL     1       0.696   4.236   1.218  0.00  0.00    +0.000 A 
ATOM     33  C   UNL     1       0.320   5.562   1.109  0.00  0.00    +0.000 A 
ATOM     34  C   UNL     1      -1.008   5.889   0.908  0.00  0.00    +0.004 A 
ENDBRANCH  28  29
ENDBRANCH  18  28
ENDBRANCH   2  18
TORSDOF 9
