REMARK  Name = ZINC33547341
REMARK  15 active torsions:
REMARK  status: ('A' for Active; 'I' for Inactive)
REMARK    1  A    between atoms: C_1  and  C_2
REMARK    2  A    between atoms: C_5  and  C_8
REMARK    3  A    between atoms: C_8  and  C_9
REMARK    4  A    between atoms: C_8  and  C_16
REMARK    5  A    between atoms: C_8  and  N_23
REMARK    6  A    between atoms: C_12  and  C_15
REMARK    7  A    between atoms: C_19  and  C_22
REMARK    8  A    between atoms: N_23  and  C_24
REMARK    9  A    between atoms: C_24  and  C_26
REMARK   10  A    between atoms: C_24  and  C_33
REMARK   11  A    between atoms: C_26  and  C_27
REMARK   12  A    between atoms: C_27  and  C_28
REMARK   13  A    between atoms: C_28  and  N_29
REMARK   14  A    between atoms: C_33  and  O_35
REMARK   15  A    between atoms: O_35  and  C_36
REMARK                            x       y       z     vdW  Elec       q    Type
REMARK                         _______ _______ _______ _____ _____    ______ ____
ROOT
ATOM      1  C   UNL     1      -0.498  -2.745   0.366  0.00  0.00    +0.096 C 
ENDROOT
BRANCH   1   6
ATOM      2  C   UNL     1      -0.363   2.190   3.370  0.00  0.00    +0.044 C 
ATOM      3  C   UNL     1      -0.398   0.903   2.587  0.00  0.00    -0.050 A 
ATOM      4  C   UNL     1       0.358  -0.178   2.999  0.00  0.00    +0.004 A 
ATOM      5  C   UNL     1       0.325  -1.359   2.280  0.00  0.00    +0.006 A 
ATOM      6  C   UNL     1      -0.463  -1.458   1.149  0.00  0.00    -0.019 A 
ATOM      7  C   UNL     1      -1.220  -0.377   0.738  0.00  0.00    +0.006 A 
ATOM      8  C   UNL     1      -1.191   0.802   1.459  0.00  0.00    +0.004 A 
ENDBRANCH   1   6
BRANCH   1   9
ATOM      9  C   UNL     1      -1.868  -2.932  -0.233  0.00  0.00    -0.019 A 
ATOM     10  C   UNL     1      -2.983  -2.451   0.429  0.00  0.00    +0.006 A 
ATOM     11  C   UNL     1      -4.240  -2.622  -0.120  0.00  0.00    +0.004 A 
ATOM     12  C   UNL     1      -4.383  -3.275  -1.330  0.00  0.00    -0.050 A 
ATOM     13  C   UNL     1      -3.268  -3.756  -1.992  0.00  0.00    +0.004 A 
ATOM     14  C   UNL     1      -2.011  -3.580  -1.445  0.00  0.00    +0.006 A 
ATOM     15  C   UNL     1      -5.753  -3.463  -1.928  0.00  0.00    +0.044 C 
ENDBRANCH   1   9
BRANCH   1  16
ATOM     16  C   UNL     1       0.528  -2.689  -0.737  0.00  0.00    -0.019 A 
ATOM     17  C   UNL     1       1.534  -3.636  -0.794  0.00  0.00    +0.006 A 
ATOM     18  C   UNL     1       2.475  -3.584  -1.805  0.00  0.00    +0.004 A 
ATOM     19  C   UNL     1       2.410  -2.587  -2.760  0.00  0.00    -0.050 A 
ATOM     20  C   UNL     1       1.404  -1.641  -2.703  0.00  0.00    +0.004 A 
ATOM     21  C   UNL     1       0.460  -1.694  -1.694  0.00  0.00    +0.006 A 
ATOM     22  C   UNL     1       3.436  -2.530  -3.862  0.00  0.00    +0.044 C 
ENDBRANCH   1  16
BRANCH   1  23
ATOM     23  N   UNL     1      -0.196  -3.871   1.259  0.00  0.00    -0.287 NA
ATOM     24  H   UNL     1      -0.066  -4.723   0.735  0.00  0.00    +0.124 HD
BRANCH  23  25
ATOM     25  C   UNL     1      -1.244  -4.032   2.276  0.00  0.00    +0.165 C 
BRANCH  25  26
ATOM     26  C   UNL     1      -2.356  -4.884   1.720  0.00  0.00    +0.324 C 
ATOM     27  O   UNL     1      -2.131  -5.661   0.822  0.00  0.00    -0.249 OA
BRANCH  26  28
ATOM     28  O   UNL     1      -3.596  -4.780   2.222  0.00  0.00    -0.467 OA
ATOM     29  C   UNL     1      -4.575  -5.697   1.729  0.00  0.00    +0.280 C 
ENDBRANCH  26  28
ENDBRANCH  25  26
BRANCH  25  30
ATOM     30  C   UNL     1      -0.653  -4.709   3.514  0.00  0.00    +0.032 C 
BRANCH  30  31
ATOM     31  C   UNL     1       0.404  -3.796   4.140  0.00  0.00    +0.023 C 
BRANCH  31  32
ATOM     32  C   UNL     1       0.891  -4.407   5.455  0.00  0.00    +0.115 C 
BRANCH  32  33
ATOM     33  N   UNL     1       1.903  -3.533   6.053  0.00  0.00    -0.358 N 
ATOM     34  C   UNL     1       2.487  -3.876   7.242  0.00  0.00    +0.166 C 
ATOM     35  N   UNL     1       3.407  -3.081   7.786  0.00  0.00    -0.372 N 
ATOM     36  N   UNL     1       2.136  -5.005   7.855  0.00  0.00    -0.372 N 
ATOM     37  H   UNL     1       2.159  -2.710   5.607  0.00  0.00    +0.162 HD
ATOM     38  H   UNL     1       3.662  -2.259   7.340  0.00  0.00    +0.159 HD
ATOM     39  H   UNL     1       1.466  -5.584   7.458  0.00  0.00    +0.159 HD
ATOM     40  H   UNL     1       2.550  -5.249   8.697  0.00  0.00    +0.159 HD
ATOM     41  H   UNL     1       3.821  -3.325   8.629  0.00  0.00    +0.159 HD
ENDBRANCH  32  33
ENDBRANCH  31  32
ENDBRANCH  30  31
ENDBRANCH  25  30
ENDBRANCH  23  25
ENDBRANCH   1  23
TORSDOF 11
