REMARK  Name = ZINC38636207
REMARK  11 active torsions:
REMARK  status: ('A' for Active; 'I' for Inactive)
REMARK    1  A    between atoms: C_1  and  C_2
REMARK    2  A    between atoms: C_5  and  N_11
REMARK    3  A    between atoms: C_6  and  N_8
REMARK    4  A    between atoms: C_12  and  C_14
REMARK    5  A    between atoms: N_16  and  C_17
REMARK    6  A    between atoms: C_17  and  C_18
REMARK    7  A    between atoms: C_18  and  C_20
REMARK    8  A    between atoms: C_18  and  N_29
REMARK    9  A    between atoms: C_23  and  N_26
REMARK   10  A    between atoms: N_26  and  C_27
REMARK   11  A    between atoms: N_26  and  C_28
REMARK                            x       y       z     vdW  Elec       q    Type
REMARK                         _______ _______ _______ _____ _____    ______ ____
ROOT
ATOM      1  C   UNL     1      -1.008  -8.616  -0.342  0.00  0.00    +0.299 C 
ATOM      2  O   UNL     1      -0.251  -7.917   0.300  0.00  0.00    -0.265 OA
ATOM      3  N   UNL     1      -0.693  -8.969  -1.604  0.00  0.00    -0.309 N 
ATOM      4  H   UNL     1      -1.298  -9.527  -2.116  0.00  0.00    +0.149 HD
ENDROOT
BRANCH   1   6
ATOM      5  N   UNL     1      -2.604  -8.731   1.529  0.00  0.00    -0.276 N 
ATOM      6  C   UNL     1      -2.289  -9.084   0.267  0.00  0.00    +0.303 C 
ATOM      7  O   UNL     1      -3.046  -9.783  -0.374  0.00  0.00    -0.265 OA
ATOM      8  H   UNL     1      -2.042  -8.105   2.012  0.00  0.00    +0.155 HD
BRANCH   5  13
ATOM      9  C   UNL     1      -7.214 -10.905   4.016  0.00  0.00    +0.044 C 
ATOM     10  C   UNL     1      -5.989 -10.328   3.356  0.00  0.00    -0.048 A 
ATOM     11  C   UNL     1      -5.364 -11.020   2.334  0.00  0.00    +0.005 A 
ATOM     12  C   UNL     1      -4.242 -10.494   1.727  0.00  0.00    +0.026 A 
ATOM     13  C   UNL     1      -3.740  -9.266   2.142  0.00  0.00    +0.064 A 
ATOM     14  C   UNL     1      -4.370  -8.573   3.167  0.00  0.00    +0.148 A 
ATOM     15  C   UNL     1      -5.495  -9.103   3.767  0.00  0.00    +0.038 A 
BRANCH  14  16
ATOM     16  N   UNL     1      -3.840  -7.265   3.613  0.00  0.00    +0.058 N 
ATOM     17  O   UNL     1      -4.328  -6.708   4.568  0.00  0.00    -0.126 OA
ATOM     18  O   UNL     1      -2.918  -6.753   3.021  0.00  0.00    -0.126 OA
ENDBRANCH  14  16
ENDBRANCH   5  13
ENDBRANCH   1   6
BRANCH   3  19
ATOM     19  C   UNL     1       0.563  -8.509  -2.201  0.00  0.00    +0.094 C 
BRANCH  19  20
ATOM     20  C   UNL     1       0.735  -9.148  -3.581  0.00  0.00    -0.020 C 
BRANCH  20  21
ATOM     21  C   UNL     1       0.786 -10.647  -3.438  0.00  0.00    -0.059 A 
ATOM     22  C   UNL     1       1.958 -11.262  -3.039  0.00  0.00    +0.004 A 
ATOM     23  C   UNL     1       2.009 -12.636  -2.907  0.00  0.00    +0.023 A 
ATOM     24  C   UNL     1       0.880 -13.400  -3.176  0.00  0.00    +0.029 A 
ATOM     25  C   UNL     1      -0.296 -12.778  -3.577  0.00  0.00    +0.023 A 
ATOM     26  C   UNL     1      -0.341 -11.404  -3.701  0.00  0.00    +0.004 A 
BRANCH  24  27
ATOM     27  N   UNL     1       0.927 -14.790  -3.044  0.00  0.00    -0.336 N 
ATOM     28  C   UNL     1       2.168 -15.443  -2.621  0.00  0.00    +0.129 C 
ATOM     29  C   UNL     1      -0.264 -15.593  -3.328  0.00  0.00    +0.129 C 
ENDBRANCH  24  27
ENDBRANCH  20  21
BRANCH  20  30
ATOM     30  N   UNL     1       1.985  -8.671  -4.188  0.00  0.00    +0.385 N 
ATOM     31  C   UNL     1       2.070  -9.119  -5.602  0.00  0.00    -0.078 C 
ATOM     32  C   UNL     1       3.073  -8.119  -6.231  0.00  0.00    -0.020 C 
ATOM     33  C   UNL     1       2.715  -6.786  -5.534  0.00  0.00    -0.020 C 
ATOM     34  C   UNL     1       1.999  -7.192  -4.232  0.00  0.00    -0.078 C 
ATOM     35  H   UNL     1       2.778  -9.011  -3.666  0.00  0.00    -0.081 HD
ENDBRANCH  20  30
ENDBRANCH  19  20
ENDBRANCH   3  19
TORSDOF 8
