REMARK  Name = ZINC59112345
REMARK  18 active torsions:
REMARK  status: ('A' for Active; 'I' for Inactive)
REMARK    1  A    between atoms: C_1  and  C_2
REMARK    2  A    between atoms: C_2  and  C_3
REMARK    3  A    between atoms: C_7  and  C_37
REMARK    4  A    between atoms: C_8  and  N_9
REMARK    5  A    between atoms: N_9  and  C_10
REMARK    6  A    between atoms: C_10  and  N_12
REMARK    7  A    between atoms: N_12  and  C_13
REMARK    8  A    between atoms: C_13  and  C_14
REMARK    9  A    between atoms: C_14  and  C_36
REMARK   10  A    between atoms: C_16  and  N_23
REMARK   11  A    between atoms: C_19  and  C_21
REMARK   12  A    between atoms: C_19  and  C_22
REMARK   13  A    between atoms: N_23  and  C_24
REMARK   14  A    between atoms: C_24  and  N_26
REMARK   15  A    between atoms: N_26  and  C_27
REMARK   16  A    between atoms: C_28  and  C_35
REMARK   17  A    between atoms: C_32  and  C_33
REMARK   18  A    between atoms: C_33  and  C_34
REMARK                            x       y       z     vdW  Elec       q    Type
REMARK                         _______ _______ _______ _____ _____    ______ ____
ROOT
ATOM      1  C   UNL     1       1.871  14.656  10.553  0.00  0.00    -0.014 C 
ATOM      2  C   UNL     1       1.180  13.448   9.940  0.00  0.00    +0.030 C 
ATOM      3  C   UNL     1       1.029  12.284  10.904  0.00  0.00    +0.073 C 
ATOM      4  C   UNL     1       0.367  12.707  12.203  0.00  0.00    +0.028 C 
ATOM      5  C   UNL     1       1.025  13.908  12.862  0.00  0.00    -0.033 C 
ATOM      6  C   UNL     1       1.293  15.048  11.899  0.00  0.00    +0.014 C 
ATOM      7  C   UNL     1       2.303  13.493  13.597  0.00  0.00    +0.011 C 
ATOM      8  C   UNL     1       0.044  14.434  13.940  0.00  0.00    +0.011 C 
ATOM      9  C   UNL     1       3.383  14.438  10.640  0.00  0.00    +0.013 C 
ENDROOT
BRANCH   3  10
ATOM     10  N   UNL     1       2.291  11.588  11.131  0.00  0.00    -0.323 N 
ATOM     11  H   UNL     1       3.094  12.094  11.332  0.00  0.00    +0.148 HD
BRANCH  10  12
ATOM     12  C   UNL     1       2.341  10.243  11.062  0.00  0.00    +0.135 C 
ATOM     13  S   UNL     1       0.924   9.351  10.707  0.00  0.00    -0.019 S 
BRANCH  12  14
ATOM     14  N   UNL     1       3.507   9.601  11.272  0.00  0.00    -0.296 N 
ATOM     15  H   UNL     1       4.024   9.274  10.518  0.00  0.00    +0.154 HD
BRANCH  14  16
ATOM     16  C   UNL     1       3.973   9.404  12.576  0.00  0.00    +0.039 A 
ATOM     17  C   UNL     1       5.303   9.072  12.798  0.00  0.00    -0.029 A 
ATOM     18  C   UNL     1       5.760   8.879  14.087  0.00  0.00    +0.005 A 
ATOM     19  C   UNL     1       4.894   9.017  15.156  0.00  0.00    +0.001 A 
ATOM     20  C   UNL     1       3.569   9.347  14.939  0.00  0.00    +0.005 A 
ATOM     21  C   UNL     1       3.107   9.547  13.653  0.00  0.00    -0.026 A 
ATOM     22  C   UNL     1       6.247   8.921  11.633  0.00  0.00    +0.045 C 
BRANCH  21  23
ATOM     23  C   UNL     1       1.665   9.913  13.417  0.00  0.00    +0.033 C 
ATOM     24  C   UNL     1       0.858   8.646  13.125  0.00  0.00    +0.009 C 
ENDBRANCH  21  23
ENDBRANCH  14  16
ENDBRANCH  12  14
ENDBRANCH  10  12
ENDBRANCH   3  10
BRANCH   1  25
ATOM     25  C   UNL     1       1.647  15.848   9.589  0.00  0.00    +0.110 C 
BRANCH  25  26
ATOM     26  N   UNL     1       2.190  15.518   8.270  0.00  0.00    -0.326 N 
ATOM     27  H   UNL     1       2.609  14.655   8.119  0.00  0.00    +0.148 HD
BRANCH  26  28
ATOM     28  C   UNL     1       2.108  16.411   7.264  0.00  0.00    +0.135 C 
ATOM     29  S   UNL     1       1.370  17.933   7.529  0.00  0.00    -0.019 S 
BRANCH  28  30
ATOM     30  N   UNL     1       2.608  16.107   6.050  0.00  0.00    -0.296 N 
ATOM     31  H   UNL     1       2.920  15.207   5.865  0.00  0.00    +0.154 HD
BRANCH  30  37
ATOM     32  C   UNL     1       1.821  17.035   3.964  0.00  0.00    -0.026 A 
ATOM     33  C   UNL     1       1.887  18.009   2.987  0.00  0.00    +0.005 A 
ATOM     34  C   UNL     1       2.809  19.035   3.093  0.00  0.00    +0.001 A 
ATOM     35  C   UNL     1       3.667  19.088   4.176  0.00  0.00    +0.005 A 
ATOM     36  C   UNL     1       3.605  18.117   5.156  0.00  0.00    -0.029 A 
ATOM     37  C   UNL     1       2.677  17.089   5.056  0.00  0.00    +0.039 A 
ATOM     38  C   UNL     1       4.540  18.176   6.336  0.00  0.00    +0.045 C 
BRANCH  32  40
ATOM     39  C   UNL     1      -0.446  16.282   4.632  0.00  0.00    +0.009 C 
ATOM     40  C   UNL     1       0.816  15.918   3.847  0.00  0.00    +0.033 C 
ENDBRANCH  32  40
ENDBRANCH  30  37
ENDBRANCH  28  30
ENDBRANCH  26  28
ENDBRANCH  25  26
ENDBRANCH   1  25
TORSDOF 11
