REMARK  Name = ZINC03153727
REMARK  4 active torsions:
REMARK  status: ('A' for Active; 'I' for Inactive)
REMARK    1  A    between atoms: C_4  and  C_7
REMARK    2  A    between atoms: N_12  and  N_21
REMARK    3  A    between atoms: C_13  and  C_14
REMARK    4  A    between atoms: C_13  and  O_20
REMARK                            x       y       z     vdW  Elec       q    Type
REMARK                         _______ _______ _______ _____ _____    ______ ____
ROOT
ATOM      1  C   UNL     1      -0.185   5.817  -1.405  0.00  0.00    +0.122 C 
ATOM      2  N   UNL     1       0.776   6.541  -1.892  0.00  0.00    -0.178 NA
ATOM      3  N   UNL     1       1.856   6.943  -1.107  0.00  0.00    -0.189 N 
ATOM      4  C   UNL     1       1.983   6.621   0.188  0.00  0.00    +0.338 C 
ATOM      5  O   UNL     1       2.955   7.011   0.804  0.00  0.00    -0.249 OA
ATOM      6  N   UNL     1       1.057   5.872   0.821  0.00  0.00    -0.181 N 
ATOM      7  C   UNL     1      -0.112   5.413   0.052  0.00  0.00    +0.222 C 
ATOM      8  H   UNL     1       2.549   7.483  -1.518  0.00  0.00    +0.179 HD
ENDROOT
BRANCH   1  12
ATOM      9  C   UNL     1      -3.453   4.617  -3.834  0.00  0.00    +0.000 A 
ATOM     10  C   UNL     1      -3.645   4.840  -2.482  0.00  0.00    +0.001 A 
ATOM     11  C   UNL     1      -2.588   5.230  -1.686  0.00  0.00    +0.010 A 
ATOM     12  C   UNL     1      -1.321   5.400  -2.249  0.00  0.00    +0.003 A 
ATOM     13  C   UNL     1      -1.135   5.178  -3.615  0.00  0.00    +0.010 A 
ATOM     14  C   UNL     1      -2.200   4.784  -4.398  0.00  0.00    +0.001 A 
ENDBRANCH   1  12
BRANCH   7  15
ATOM     15  C   UNL     1      -0.145   3.908   0.117  0.00  0.00    +0.010 A 
ATOM     16  C   UNL     1       1.033   3.187   0.057  0.00  0.00    +0.008 A 
ATOM     17  C   UNL     1       1.002   1.806   0.116  0.00  0.00    +0.000 A 
ATOM     18  C   UNL     1      -0.207   1.146   0.234  0.00  0.00    +0.000 A 
ATOM     19  C   UNL     1      -1.385   1.867   0.289  0.00  0.00    +0.000 A 
ATOM     20  C   UNL     1      -1.354   3.248   0.235  0.00  0.00    +0.008 A 
ENDBRANCH   7  15
BRANCH   6  21
ATOM     21  N   UNL     1       1.200   5.550   2.140  0.00  0.00    -0.247 NA
ATOM     22  H   UNL     1       2.050   5.941   2.518  0.00  0.00    +0.141 HD
ATOM     23  H   UNL     1       0.397   5.848   2.674  0.00  0.00    +0.141 HD
ENDBRANCH   6  21
BRANCH   7  24
ATOM     24  O   UNL     1      -1.285   5.902   0.704  0.00  0.00    -0.362 OA
ATOM     25  H   UNL     1      -1.357   5.642   1.633  0.00  0.00    +0.213 HD
ENDBRANCH   7  24
TORSDOF 4
