REMARK  Name = ZINC36003964
REMARK  11 active torsions:
REMARK  status: ('A' for Active; 'I' for Inactive)
REMARK    1  A    between atoms: C_1  and  C_2
REMARK    2  A    between atoms: C_2  and  O_3
REMARK    3  A    between atoms: O_3  and  C_4
REMARK    4  A    between atoms: C_4  and  C_6
REMARK    5  A    between atoms: C_7  and  C_22
REMARK    6  A    between atoms: N_8  and  C_21
REMARK    7  A    between atoms: C_12  and  C_14
REMARK    8  A    between atoms: C_22  and  N_23
REMARK    9  A    between atoms: N_32  and  C_33
REMARK   10  A    between atoms: C_33  and  C_34
REMARK   11  A    between atoms: C_33  and  C_35
REMARK                            x       y       z     vdW  Elec       q    Type
REMARK                         _______ _______ _______ _____ _____    ______ ____
ROOT
ATOM      1  C   UNL     1       0.906  -3.335  -2.990  0.00  0.00    +0.077 C 
ATOM      2  C   UNL     1       1.596  -4.462  -2.709  0.00  0.00    +0.010 C 
ATOM      3  N   UNL     1       2.813  -4.704  -3.280  0.00  0.00    -0.264 N 
ATOM      4  C   UNL     1       3.409  -3.870  -4.141  0.00  0.00    +0.307 C 
ATOM      5  O   UNL     1       4.494  -4.172  -4.598  0.00  0.00    -0.252 OA
ATOM      6  N   UNL     1       2.844  -2.705  -4.518  0.00  0.00    -0.288 N 
ATOM      7  C   UNL     1       1.526  -2.353  -3.963  0.00  0.00    +0.146 C 
ATOM      8  C   UNL     1       3.505  -5.947  -2.931  0.00  0.00    +0.139 C 
ATOM      9  H   UNL     1       3.293  -2.115  -5.143  0.00  0.00    +0.151 HD
ENDROOT
BRANCH   7  10
ATOM     10  C   UNL     1       0.567  -2.169  -5.111  0.00  0.00    +0.013 A 
ATOM     11  C   UNL     1       0.732  -2.899  -6.273  0.00  0.00    +0.008 A 
ATOM     12  C   UNL     1      -0.147  -2.730  -7.326  0.00  0.00    +0.001 A 
ATOM     13  C   UNL     1      -1.192  -1.831  -7.218  0.00  0.00    +0.003 A 
ATOM     14  C   UNL     1      -1.359  -1.101  -6.058  0.00  0.00    +0.039 A 
ATOM     15  C   UNL     1      -0.482  -1.273  -5.000  0.00  0.00    +0.129 A 
ATOM     16  F   UNL     1      -0.647  -0.563  -3.862  0.00  0.00    -0.205 F 
ENDBRANCH   7  10
BRANCH   1  17
ATOM     17  C   UNL     1      -0.354  -3.083  -2.400  0.00  0.00    +0.339 C 
ATOM     18  O   UNL     1      -0.439  -2.338  -1.442  0.00  0.00    -0.245 OA
BRANCH  17  19
ATOM     19  O   UNL     1      -1.462  -3.669  -2.899  0.00  0.00    -0.462 OA
BRANCH  19  21
ATOM     20  C   UNL     1      -3.836  -4.120  -2.955  0.00  0.00    +0.048 C 
ATOM     21  C   UNL     1      -2.702  -3.370  -2.254  0.00  0.00    +0.229 C 
ENDBRANCH  19  21
ENDBRANCH  17  19
ENDBRANCH   1  17
BRANCH   2  22
ATOM     22  C   UNL     1       1.014  -5.468  -1.751  0.00  0.00    -0.026 C 
BRANCH  22  23
ATOM     23  N   UNL     1       0.099  -6.362  -2.474  0.00  0.00    +0.384 N 
ATOM     24  C   UNL     1      -0.614  -7.181  -1.497  0.00  0.00    -0.077 C 
ATOM     25  C   UNL     1      -1.976  -7.543  -2.047  0.00  0.00    +0.000 C 
ATOM     26  C   UNL     1      -1.896  -8.907  -2.756  0.00  0.00    +0.107 C 
ATOM     27  N   UNL     1      -0.640  -9.035  -3.522  0.00  0.00    -0.287 N 
ATOM     28  C   UNL     1      -0.095  -7.945  -4.305  0.00  0.00    +0.091 C 
ATOM     29  C   UNL     1       0.846  -7.088  -3.428  0.00  0.00    -0.059 C 
ATOM     30  C   UNL     1       0.024 -10.207  -3.492  0.00  0.00    +0.302 C 
ATOM     31  O   UNL     1      -0.456 -11.162  -2.911  0.00  0.00    -0.253 OA
ATOM     32  N   UNL     1       1.219 -10.322  -4.104  0.00  0.00    -0.297 N 
ATOM     33  H   UNL     1       1.634  -9.543  -4.507  0.00  0.00    +0.150 HD
ATOM     34  H   UNL     1      -0.577  -5.794  -2.964  0.00  0.00    -0.081 HD
BRANCH  32  35
ATOM     35  C   UNL     1       1.891 -11.622  -4.163  0.00  0.00    +0.068 C 
ATOM     36  C   UNL     1       1.365 -12.414  -5.362  0.00  0.00    +0.027 C 
ATOM     37  C   UNL     1       3.398 -11.411  -4.313  0.00  0.00    +0.027 C 
ENDBRANCH  32  35
ENDBRANCH  22  23
ENDBRANCH   2  22
TORSDOF 7
