REMARK  Name = ZINC36586369
REMARK  20 active torsions:
REMARK  status: ('A' for Active; 'I' for Inactive)
REMARK    1  A    between atoms: C_1  and  C_2
REMARK    2  A    between atoms: C_2  and  C_3
REMARK    3  A    between atoms: C_2  and  C_4
REMARK    4  A    between atoms: C_2  and  C_5
REMARK    5  A    between atoms: C_5  and  C_6
REMARK    6  A    between atoms: C_6  and  C_7
REMARK    7  A    between atoms: C_6  and  C_8
REMARK    8  A    between atoms: C_6  and  N_9
REMARK    9  A    between atoms: C_10  and  C_12
REMARK   10  A    between atoms: C_12  and  C_14
REMARK   11  A    between atoms: C_12  and  N_23
REMARK   12  A    between atoms: C_15  and  O_22
REMARK   13  A    between atoms: C_17  and  O_21
REMARK   14  A    between atoms: C_19  and  O_20
REMARK   15  A    between atoms: N_23  and  C_33
REMARK   16  A    between atoms: C_24  and  C_26
REMARK   17  A    between atoms: C_29  and  O_32
REMARK   18  A    between atoms: C_33  and  C_34
REMARK   19  A    between atoms: C_33  and  C_35
REMARK   20  A    between atoms: C_33  and  C_36
REMARK                            x       y       z     vdW  Elec       q    Type
REMARK                         _______ _______ _______ _____ _____    ______ ____
ROOT
ATOM      1  C   UNL     1       3.950  -0.842  -2.065  0.00  0.00    +0.200 C 
ENDROOT
BRANCH   1   2
ATOM      2  C   UNL     1       2.931  -0.354  -3.062  0.00  0.00    +0.065 A 
ATOM      3  C   UNL     1       3.110   0.866  -3.697  0.00  0.00    +0.129 A 
ATOM      4  C   UNL     1       2.172   1.315  -4.614  0.00  0.00    +0.091 A 
ATOM      5  C   UNL     1       1.055   0.543  -4.898  0.00  0.00    +0.124 A 
ATOM      6  C   UNL     1       0.876  -0.677  -4.264  0.00  0.00    +0.091 A 
ATOM      7  C   UNL     1       1.817  -1.128  -3.349  0.00  0.00    +0.129 A 
BRANCH   7   8
ATOM      8  O   UNL     1       1.644  -2.326  -2.731  0.00  0.00    -0.506 OA
ATOM      9  H   UNL     1       1.149  -2.273  -1.902  0.00  0.00    +0.292 HD
ENDBRANCH   7   8
BRANCH   5  10
ATOM     10  O   UNL     1       0.135   0.983  -5.796  0.00  0.00    -0.507 OA
ATOM     11  H   UNL     1       0.312   0.708  -6.706  0.00  0.00    +0.292 HD
ENDBRANCH   5  10
BRANCH   3  12
ATOM     12  O   UNL     1       4.205   1.622  -3.419  0.00  0.00    -0.506 OA
ATOM     13  H   UNL     1       4.938   1.494  -4.036  0.00  0.00    +0.292 HD
ENDBRANCH   3  12
ENDBRANCH   1   2
BRANCH   1  15
ATOM     14  N   UNL     1       2.389  -0.768  -0.148  0.00  0.00    -0.308 N 
ATOM     15  C   UNL     1       3.563  -0.379  -0.684  0.00  0.00    +0.239 C 
ATOM     16  O   UNL     1       4.307   0.342  -0.055  0.00  0.00    -0.273 OA
ATOM     17  H   UNL     1       1.793  -1.345  -0.651  0.00  0.00    +0.149 HD
BRANCH  14  18
ATOM     18  C   UNL     1       2.012  -0.319   1.195  0.00  0.00    +0.030 C 
ATOM     19  C   UNL     1       1.945   1.209   1.221  0.00  0.00    +0.031 C 
ATOM     20  C   UNL     1       3.055  -0.801   2.205  0.00  0.00    +0.031 C 
BRANCH  18  21
ATOM     21  C   UNL     1       0.643  -0.896   1.560  0.00  0.00    +0.031 C 
BRANCH  21  23
ATOM     22  C   UNL     1      -0.161  -1.536  -0.717  0.00  0.00    +0.010 C 
ATOM     23  C   UNL     1      -0.360  -0.569   0.452  0.00  0.00    -0.036 C 
ATOM     24  C   UNL     1      -0.139   0.866  -0.029  0.00  0.00    +0.010 C 
ATOM     25  C   UNL     1      -1.784  -0.712   0.995  0.00  0.00    +0.010 C 
ENDBRANCH  21  23
ENDBRANCH  18  21
ENDBRANCH  14  18
ENDBRANCH   1  15
BRANCH   1  26
ATOM     26  N   UNL     1       5.268  -0.301  -2.409  0.00  0.00    -0.277 N 
ATOM     27  C   UNL     1       5.739  -0.424  -3.666  0.00  0.00    +0.248 C 
ATOM     28  O   UNL     1       6.762   0.148  -3.990  0.00  0.00    -0.270 OA
BRANCH  27  29
ATOM     29  C   UNL     1       5.014  -1.253  -4.648  0.00  0.00    +0.037 A 
ATOM     30  C   UNL     1       3.956  -2.066  -4.234  0.00  0.00    +0.016 A 
ATOM     31  C   UNL     1       3.281  -2.837  -5.154  0.00  0.00    +0.046 A 
ATOM     32  C   UNL     1       3.652  -2.808  -6.493  0.00  0.00    +0.117 A 
ATOM     33  C   UNL     1       4.704  -2.001  -6.909  0.00  0.00    +0.046 A 
ATOM     34  C   UNL     1       5.380  -1.222  -5.997  0.00  0.00    +0.016 A 
BRANCH  32  35
ATOM     35  O   UNL     1       2.985  -3.571  -7.396  0.00  0.00    -0.507 OA
ATOM     36  H   UNL     1       2.226  -3.128  -7.800  0.00  0.00    +0.292 HD
ENDBRANCH  32  35
ENDBRANCH  27  29
BRANCH  26  37
ATOM     37  C   UNL     1       6.072   0.374  -1.388  0.00  0.00    +0.030 C 
ATOM     38  C   UNL     1       6.180  -0.520  -0.151  0.00  0.00    +0.031 C 
ATOM     39  C   UNL     1       7.471   0.651  -1.941  0.00  0.00    +0.031 C 
ATOM     40  C   UNL     1       5.404   1.696  -1.004  0.00  0.00    +0.031 C 
ENDBRANCH  26  37
ENDBRANCH   1  26
TORSDOF 12
