REMARK  Name = ZINC35450341
REMARK  12 active torsions:
REMARK  status: ('A' for Active; 'I' for Inactive)
REMARK    1  A    between atoms: C_1  and  C_2
REMARK    2  A    between atoms: C_2  and  C_3
REMARK    3  A    between atoms: C_3  and  C_5
REMARK    4  A    between atoms: C_3  and  S_6
REMARK    5  A    between atoms: S_6  and  C_7
REMARK    6  A    between atoms: C_14  and  C_26
REMARK    7  A    between atoms: C_20  and  C_24
REMARK    8  A    between atoms: C_20  and  C_25
REMARK    9  A    between atoms: C_30  and  O_34
REMARK   10  A    between atoms: C_31  and  O_32
REMARK   11  A    between atoms: O_32  and  C_33
REMARK   12  A    between atoms: O_34  and  C_35
REMARK                            x       y       z     vdW  Elec       q    Type
REMARK                         _______ _______ _______ _____ _____    ______ ____
ROOT
ATOM      1  C   UNL     1       0.422  -1.324   4.738  0.00  0.00    +0.171 A 
ATOM      2  N   UNL     1       1.603  -1.529   4.191  0.00  0.00    -0.208 NA
ATOM      3  C   UNL     1       2.683  -1.760   4.946  0.00  0.00    +0.135 A 
ATOM      4  C   UNL     1       2.567  -1.781   6.325  0.00  0.00    +0.069 A 
ATOM      5  C   UNL     1       1.310  -1.565   6.900  0.00  0.00    +0.258 A 
ATOM      6  O   UNL     1       1.171  -1.580   8.113  0.00  0.00    -0.267 OA
ATOM      7  N   UNL     1       0.256  -1.335   6.090  0.00  0.00    -0.302 N 
ATOM      8  C   UNL     1       3.766  -2.027   7.191  0.00  0.00    +0.096 C 
ATOM      9  C   UNL     1       4.895  -2.644   6.405  0.00  0.00    +0.024 C 
ATOM     10  C   UNL     1       4.917  -2.595   5.057  0.00  0.00    +0.017 C 
ATOM     11  N   UNL     1       3.914  -1.980   4.359  0.00  0.00    -0.302 N 
ATOM     12  C   UNL     1       6.047  -3.221   4.275  0.00  0.00    +0.058 C 
ATOM     13  C   UNL     1       7.337  -3.159   5.097  0.00  0.00    -0.023 C 
ATOM     14  C   UNL     1       7.103  -3.895   6.420  0.00  0.00    +0.086 C 
ATOM     15  C   UNL     1       5.928  -3.273   7.124  0.00  0.00    +0.162 C 
ATOM     16  O   UNL     1       5.869  -3.316   8.337  0.00  0.00    -0.292 OA
ATOM     17  C   UNL     1       8.472  -3.834   4.325  0.00  0.00    +0.011 C 
ATOM     18  C   UNL     1       7.700  -1.699   5.376  0.00  0.00    +0.011 C 
ATOM     19  H   UNL     1       4.068  -1.697   3.444  0.00  0.00    +0.153 HD
ATOM     20  H   UNL     1      -0.623  -1.180   6.470  0.00  0.00    +0.171 HD
ENDROOT
BRANCH   8  21
ATOM     21  C   UNL     1       4.231  -0.717   7.773  0.00  0.00    +0.010 A 
ATOM     22  C   UNL     1       4.215  -0.523   9.142  0.00  0.00    +0.008 A 
ATOM     23  C   UNL     1       4.640   0.677   9.678  0.00  0.00    +0.004 A 
ATOM     24  C   UNL     1       5.084   1.691   8.848  0.00  0.00    +0.049 A 
ATOM     25  C   UNL     1       5.103   1.503   7.476  0.00  0.00    +0.162 A 
ATOM     26  C   UNL     1       4.680   0.292   6.936  0.00  0.00    +0.166 A 
BRANCH  26  27
ATOM     27  O   UNL     1       4.702   0.101   5.590  0.00  0.00    -0.491 OA
ATOM     28  C   UNL     1       3.691   0.759   4.825  0.00  0.00    +0.277 C 
ENDBRANCH  26  27
BRANCH  25  29
ATOM     29  O   UNL     1       5.539   2.499   6.658  0.00  0.00    -0.491 OA
ATOM     30  C   UNL     1       5.963   3.712   7.283  0.00  0.00    +0.277 C 
ENDBRANCH  25  29
ENDBRANCH   8  21
BRANCH   1  31
ATOM     31  S   UNL     1      -0.969  -1.024   3.699  0.00  0.00    -0.085 S 
BRANCH  31  32
ATOM     32  C   UNL     1      -0.288  -1.102   2.020  0.00  0.00    +0.051 C 
ATOM     33  C   UNL     1       0.209  -2.521   1.737  0.00  0.00    +0.019 C 
BRANCH  32  35
ATOM     34  C   UNL     1      -1.786   0.728   1.213  0.00  0.00    +0.005 C 
ATOM     35  C   UNL     1      -1.377  -0.733   1.010  0.00  0.00    +0.011 C 
ENDBRANCH  32  35
ENDBRANCH  31  32
ENDBRANCH   1  31
TORSDOF 6
