REMARK  Name = ZINC54624508
REMARK  15 active torsions:
REMARK  status: ('A' for Active; 'I' for Inactive)
REMARK    1  A    between atoms: C_1  and  C_2
REMARK    2  A    between atoms: C_2  and  C_3
REMARK    3  A    between atoms: C_3  and  C_4
REMARK    4  A    between atoms: C_4  and  O_5
REMARK    5  A    between atoms: O_5  and  C_6
REMARK    6  A    between atoms: C_6  and  C_8
REMARK    7  A    between atoms: C_9  and  C_37
REMARK    8  A    between atoms: C_13  and  S_28
REMARK    9  A    between atoms: C_16  and  C_18
REMARK   10  A    between atoms: C_21  and  O_27
REMARK   11  A    between atoms: C_22  and  O_24
REMARK   12  A    between atoms: O_24  and  C_25
REMARK   13  A    between atoms: C_25  and  C_26
REMARK   14  A    between atoms: S_28  and  C_29
REMARK   15  A    between atoms: C_29  and  C_30
REMARK                            x       y       z     vdW  Elec       q    Type
REMARK                         _______ _______ _______ _____ _____    ______ ____
ROOT
ATOM      1  C   UNL     1      -4.213  -4.488   0.225  0.00  0.00    +0.082 C 
ATOM      2  C   UNL     1      -4.334  -5.788  -0.085  0.00  0.00    +0.020 C 
ATOM      3  N   UNL     1      -5.554  -6.377  -0.307  0.00  0.00    -0.287 N 
ATOM      4  C   UNL     1      -6.650  -5.539  -0.460  0.00  0.00    +0.219 A 
ATOM      5  N   UNL     1      -7.854  -5.801  -0.889  0.00  0.00    -0.187 NA
ATOM      6  C   UNL     1      -8.589  -4.679  -0.876  0.00  0.00    +0.211 A 
ATOM      7  N   UNL     1      -7.848  -3.687  -0.432  0.00  0.00    -0.141 NA
ATOM      8  N   UNL     1      -6.590  -4.220  -0.153  0.00  0.00    -0.220 N 
ATOM      9  C   UNL     1      -5.394  -3.566   0.376  0.00  0.00    +0.179 C 
ATOM     10  C   UNL     1      -3.089  -6.630  -0.194  0.00  0.00    +0.061 C 
ATOM     11  H   UNL     1      -5.647  -7.341  -0.354  0.00  0.00    +0.155 HD
ENDROOT
BRANCH   9  12
ATOM     12  C   UNL     1      -5.596  -3.242   1.834  0.00  0.00    -0.015 A 
ATOM     13  C   UNL     1      -5.841  -4.258   2.739  0.00  0.00    +0.010 A 
ATOM     14  C   UNL     1      -6.027  -3.966   4.077  0.00  0.00    +0.049 A 
ATOM     15  C   UNL     1      -5.967  -2.653   4.514  0.00  0.00    +0.158 A 
ATOM     16  C   UNL     1      -5.720  -1.630   3.603  0.00  0.00    +0.162 A 
ATOM     17  C   UNL     1      -5.530  -1.930   2.264  0.00  0.00    +0.055 A 
BRANCH  15  18
ATOM     18  O   UNL     1      -6.150  -2.364   5.830  0.00  0.00    -0.503 OA
ATOM     19  H   UNL     1      -5.335  -2.366   6.351  0.00  0.00    +0.292 HD
ENDBRANCH  15  18
BRANCH  16  20
ATOM     20  O   UNL     1      -5.660  -0.340   4.028  0.00  0.00    -0.489 OA
BRANCH  20  21
ATOM     21  C   UNL     1      -5.403   0.658   3.037  0.00  0.00    +0.226 C 
ATOM     22  C   UNL     1      -5.373   2.037   3.698  0.00  0.00    +0.048 C 
ENDBRANCH  20  21
ENDBRANCH  16  20
ENDBRANCH   9  12
BRANCH   1  23
ATOM     23  C   UNL     1      -2.918  -3.962   0.426  0.00  0.00    +0.339 C 
ATOM     24  O   UNL     1      -2.414  -3.247  -0.421  0.00  0.00    -0.245 OA
BRANCH  23  25
ATOM     25  O   UNL     1      -2.239  -4.251   1.556  0.00  0.00    -0.461 OA
BRANCH  25  26
ATOM     26  C   UNL     1      -0.935  -3.684   1.692  0.00  0.00    +0.232 C 
BRANCH  26  27
ATOM     27  C   UNL     1      -0.326  -4.120   3.027  0.00  0.00    +0.041 C 
BRANCH  27  29
ATOM     28  C   UNL     1       1.679  -3.949   4.507  0.00  0.00    +0.004 C 
ATOM     29  C   UNL     1       1.071  -3.513   3.173  0.00  0.00    -0.000 C 
ENDBRANCH  27  29
ENDBRANCH  26  27
ENDBRANCH  25  26
ENDBRANCH  23  25
ENDBRANCH   1  23
BRANCH   6  30
ATOM     30  S   UNL     1     -10.274  -4.553  -1.374  0.00  0.00    -0.080 S 
BRANCH  30  31
ATOM     31  C   UNL     1     -10.711  -6.242  -1.874  0.00  0.00    +0.114 C 
BRANCH  31  32
ATOM     32  C   UNL     1     -12.147  -6.275  -2.329  0.00  0.00    -0.019 A 
ATOM     33  C   UNL     1     -13.156  -6.526  -1.417  0.00  0.00    +0.006 A 
ATOM     34  C   UNL     1     -14.473  -6.557  -1.834  0.00  0.00    +0.000 A 
ATOM     35  C   UNL     1     -14.783  -6.337  -3.163  0.00  0.00    +0.001 A 
ATOM     36  C   UNL     1     -13.776  -6.086  -4.075  0.00  0.00    +0.020 A 
ATOM     37  C   UNL     1     -12.458  -6.049  -3.658  0.00  0.00    +0.045 A 
ATOM     38 CL   UNL     1     -11.193  -5.728  -4.802  0.00  0.00    -0.083 Cl
ENDBRANCH  31  32
ENDBRANCH  30  31
ENDBRANCH   6  30
TORSDOF 12
