REMARK  Name = ZINC12613274
REMARK  9 active torsions:
REMARK  status: ('A' for Active; 'I' for Inactive)
REMARK    1  A    between atoms: C_1  and  C_2
REMARK    2  A    between atoms: C_3  and  C_9
REMARK    3  A    between atoms: C_4  and  C_8
REMARK    4  A    between atoms: C_9  and  C_10
REMARK    5  A    between atoms: C_10  and  N_52
REMARK    6  A    between atoms: C_11  and  C_12
REMARK    7  A    between atoms: C_11  and  N_52
REMARK    8  A    between atoms: N_14  and  C_24
REMARK    9  A    between atoms: C_16  and  C_17
REMARK                            x       y       z     vdW  Elec       q    Type
REMARK                         _______ _______ _______ _____ _____    ______ ____
ROOT
ATOM      1  C   UNL     1       2.865  -5.674  -2.668  0.00  0.00    -0.019 A 
ATOM      2  C   UNL     1       4.103  -6.176  -2.873  0.00  0.00    +0.116 A 
ATOM      3  N   UNL     1       3.996  -7.528  -2.947  0.00  0.00    -0.239 N 
ATOM      4  N   UNL     1       2.646  -7.866  -2.792  0.00  0.00    -0.166 NA
ATOM      5  C   UNL     1       1.962  -6.754  -2.624  0.00  0.00    +0.096 A 
ENDROOT
BRANCH   5   6
ATOM      6  C   UNL     1       0.495  -6.655  -2.423  0.00  0.00    +0.021 A 
ATOM      7  C   UNL     1      -0.252  -5.737  -3.159  0.00  0.00    +0.011 A 
ATOM      8  C   UNL     1      -1.615  -5.649  -2.968  0.00  0.00    +0.001 A 
ATOM      9  C   UNL     1      -2.243  -6.470  -2.048  0.00  0.00    +0.001 A 
ATOM     10  C   UNL     1      -1.508  -7.384  -1.315  0.00  0.00    +0.020 A 
ATOM     11  C   UNL     1      -0.143  -7.485  -1.502  0.00  0.00    +0.050 A 
ATOM     12 CL   UNL     1       0.777  -8.637  -0.586  0.00  0.00    -0.083 Cl
ENDBRANCH   5   6
BRANCH   3  13
ATOM     13  C   UNL     1       5.052  -8.428  -3.149  0.00  0.00    +0.066 A 
ATOM     14  C   UNL     1       6.350  -7.955  -3.295  0.00  0.00    +0.030 A 
ATOM     15  C   UNL     1       7.390  -8.843  -3.489  0.00  0.00    +0.040 A 
ATOM     16  C   UNL     1       7.137 -10.203  -3.549  0.00  0.00    +0.124 A 
ATOM     17  C   UNL     1       5.843 -10.676  -3.410  0.00  0.00    +0.040 A 
ATOM     18  C   UNL     1       4.802  -9.792  -3.210  0.00  0.00    +0.030 A 
ATOM     19  F   UNL     1       8.155 -11.070  -3.745  0.00  0.00    -0.205 F 
ENDBRANCH   3  13
BRANCH   1  20
ATOM     20  C   UNL     1       2.513  -4.216  -2.521  0.00  0.00    -0.043 C 
BRANCH  20  21
ATOM     21  N   UNL     1       2.245  -3.925  -1.100  0.00  0.00    +0.382 N 
ATOM     22  H   UNL     1       1.477  -4.521  -0.771  0.00  0.00    -0.085 HD
ATOM     23  H   UNL     1       3.090  -4.120  -0.549  0.00  0.00    -0.085 HD
BRANCH  21  24
ATOM     24  C   UNL     1       1.869  -2.509  -0.930  0.00  0.00    -0.077 C 
BRANCH  24  25
ATOM     25  C   UNL     1       1.560  -2.246   0.546  0.00  0.00    +0.020 C 
BRANCH  25  28
ATOM     26  C   UNL     1      -1.336  -1.076   0.368  0.00  0.00    +0.065 C 
ATOM     27  C   UNL     1      -0.079  -0.295   0.651  0.00  0.00    +0.036 A 
ATOM     28  C   UNL     1       1.174  -0.801   0.729  0.00  0.00    -0.006 A 
ATOM     29  C   UNL     1       2.048   0.255   1.008  0.00  0.00    +0.063 A 
ATOM     30  N   UNL     1       1.345   1.355   1.096  0.00  0.00    -0.179 NA
ATOM     31  N   UNL     1       0.000   1.034   0.874  0.00  0.00    -0.281 N 
ATOM     32  H   UNL     1      -0.767   1.675   0.880  0.00  0.00    +0.189 HD
ATOM     33  C   UNL     1       3.541   0.144   1.180  0.00  0.00    +0.068 C 
ENDBRANCH  25  28
ENDBRANCH  24  25
ENDBRANCH  21  24
ENDBRANCH  20  21
ENDBRANCH   1  20
TORSDOF 7
