REMARK  Name = ZINC32913875
REMARK  9 active torsions:
REMARK  status: ('A' for Active; 'I' for Inactive)
REMARK    1  A    between atoms: C_1  and  C_2
REMARK    2  A    between atoms: C_3  and  C_14
REMARK    3  A    between atoms: C_5  and  C_7
REMARK    4  A    between atoms: C_7  and  C_8
REMARK    5  A    between atoms: N_16  and  C_17
REMARK    6  A    between atoms: C_17  and  C_19
REMARK    7  A    between atoms: C_17  and  C_20
REMARK    8  A    between atoms: C_23  and  S_26
REMARK    9  A    between atoms: S_26  and  N_29
REMARK                            x       y       z     vdW  Elec       q    Type
REMARK                         _______ _______ _______ _____ _____    ______ ____
ROOT
ATOM      1  C   UNL     1      -3.608  -0.760   5.209  0.00  0.00    +0.253 C 
ATOM      2  O   UNL     1      -4.277  -0.233   6.079  0.00  0.00    -0.270 OA
ATOM      3  N   UNL     1      -3.005  -1.942   5.445  0.00  0.00    -0.304 N 
ATOM      4  H   UNL     1      -2.401  -2.417   4.658  0.00  0.00    +0.150 HD
ENDROOT
BRANCH   1   7
ATOM      5  C   UNL     1      -4.849   1.939   4.336  0.00  0.00    +0.067 C 
ATOM      6  C   UNL     1      -3.980   1.084   3.450  0.00  0.00    +0.058 A 
ATOM      7  C   UNL     1      -3.460  -0.108   3.903  0.00  0.00    +0.096 A 
ATOM      8  S   UNL     1      -2.559  -0.642   2.455  0.00  0.00    -0.067 S 
ATOM      9  C   UNL     1      -2.939   0.715   1.441  0.00  0.00    +0.084 A 
ATOM     10  N   UNL     1      -3.697   1.451   2.226  0.00  0.00    -0.248 NA
BRANCH   9  11
ATOM     11  C   UNL     1      -2.514   0.980   0.019  0.00  0.00    +0.098 C 
BRANCH  11  12
ATOM     12  C   UNL     1      -1.219   1.751   0.017  0.00  0.00    -0.041 A 
ATOM     13  C   UNL     1      -0.013   1.076   0.008  0.00  0.00    +0.004 A 
ATOM     14  C   UNL     1       1.175   1.783   0.000  0.00  0.00    +0.000 A 
ATOM     15  C   UNL     1       1.156   3.165   0.008  0.00  0.00    +0.000 A 
ATOM     16  C   UNL     1      -0.050   3.840   0.022  0.00  0.00    +0.000 A 
ATOM     17  C   UNL     1      -1.238   3.133   0.030  0.00  0.00    +0.004 A 
ENDBRANCH  11  12
ENDBRANCH   9  11
ENDBRANCH   1   7
BRANCH   3  18
ATOM     18  C   UNL     1      -3.154  -2.592   6.749  0.00  0.00    +0.100 C 
ATOM     19  C   UNL     1      -2.112  -2.033   7.720  0.00  0.00    +0.033 C 
BRANCH  18  20
ATOM     20  C   UNL     1      -2.950  -4.078   6.595  0.00  0.00    -0.027 A 
ATOM     21  C   UNL     1      -1.966  -4.557   5.752  0.00  0.00    +0.007 A 
ATOM     22  C   UNL     1      -1.776  -5.919   5.614  0.00  0.00    +0.029 A 
ATOM     23  C   UNL     1      -2.578  -6.803   6.312  0.00  0.00    +0.105 A 
ATOM     24  C   UNL     1      -3.567  -6.323   7.152  0.00  0.00    +0.029 A 
ATOM     25  C   UNL     1      -3.753  -4.961   7.293  0.00  0.00    +0.007 A 
BRANCH  23  26
ATOM     26  S   UNL     1      -2.342  -8.539   6.131  0.00  0.00    +0.056 S 
ATOM     27  O   UNL     1      -0.998  -8.724   5.709  0.00  0.00    -0.153 OA
ATOM     28  O   UNL     1      -2.861  -9.145   7.308  0.00  0.00    -0.153 OA
BRANCH  26  29
ATOM     29  N   UNL     1      -3.304  -9.037   4.879  0.00  0.00    -0.204 NA
ATOM     30  H   UNL     1      -3.185 -10.120   4.733  0.00  0.00    +0.144 HD
ATOM     31  H   UNL     1      -3.012  -8.509   3.959  0.00  0.00    +0.144 HD
ENDBRANCH  26  29
ENDBRANCH  23  26
ENDBRANCH  18  20
ENDBRANCH   3  18
TORSDOF 7
