REMARK  Name = ZINC36704335
REMARK  12 active torsions:
REMARK  status: ('A' for Active; 'I' for Inactive)
REMARK    1  A    between atoms: C_1  and  C_2
REMARK    2  A    between atoms: C_2  and  O_3
REMARK    3  A    between atoms: O_3  and  C_4
REMARK    4  A    between atoms: C_4  and  C_6
REMARK    5  A    between atoms: C_10  and  N_11
REMARK    6  A    between atoms: C_12  and  C_14
REMARK    7  A    between atoms: N_19  and  S_20
REMARK    8  A    between atoms: S_20  and  C_23
REMARK    9  A    between atoms: C_28  and  C_34
REMARK   10  A    between atoms: C_28  and  C_35
REMARK   11  A    between atoms: C_30  and  C_32
REMARK   12  A    between atoms: C_30  and  C_33
REMARK                            x       y       z     vdW  Elec       q    Type
REMARK                         _______ _______ _______ _____ _____    ______ ____
ROOT
ATOM      1  C   UNL     1       1.449  -2.344  -2.516  0.00  0.00    +0.091 A 
ATOM      2  C   UNL     1       2.868  -2.619  -2.533  0.00  0.00    -0.024 A 
ATOM      3  C   UNL     1       3.334  -3.112  -3.704  0.00  0.00    -0.016 A 
ATOM      4  S   UNL     1       1.905  -3.210  -4.739  0.00  0.00    -0.079 S 
ATOM      5  C   UNL     1       0.741  -2.622  -3.680  0.00  0.00    +0.086 A 
ATOM      6  C   UNL     1       4.750  -3.471  -4.011  0.00  0.00    -0.041 C 
ATOM      7  N   UNL     1       5.600  -3.454  -2.822  0.00  0.00    +0.389 N 
ATOM      8  C   UNL     1       4.923  -3.514  -1.533  0.00  0.00    -0.069 C 
ATOM      9  C   UNL     1       3.854  -2.423  -1.392  0.00  0.00    +0.024 C 
ATOM     10  C   UNL     1       5.969  -3.297  -0.424  0.00  0.00    -0.010 C 
ATOM     11  C   UNL     1       4.282  -4.886  -1.312  0.00  0.00    -0.010 C 
ATOM     12  C   UNL     1       5.299  -2.447  -5.024  0.00  0.00    -0.005 C 
ATOM     13  C   UNL     1       4.793  -4.856  -4.672  0.00  0.00    -0.005 C 
ATOM     14  H   UNL     1       6.254  -4.237  -2.880  0.00  0.00    -0.084 HD
ATOM     15  H   UNL     1       6.177  -2.612  -2.846  0.00  0.00    -0.084 HD
ENDROOT
BRANCH   5  16
ATOM     16  N   UNL     1      -0.615  -2.452  -3.911  0.00  0.00    -0.278 N 
ATOM     17  C   UNL     1      -1.140  -2.776  -5.109  0.00  0.00    +0.236 C 
ATOM     18  O   UNL     1      -0.426  -3.215  -5.986  0.00  0.00    -0.274 OA
ATOM     19  H   UNL     1      -1.186  -2.100  -3.211  0.00  0.00    +0.155 HD
BRANCH  17  20
ATOM     20  C   UNL     1      -2.614  -2.591  -5.361  0.00  0.00    +0.166 C 
ATOM     21  C   UNL     1      -2.987  -1.099  -5.226  0.00  0.00    +0.031 C 
ATOM     22  C   UNL     1      -2.978  -0.604  -6.696  0.00  0.00    +0.019 C 
ATOM     23  C   UNL     1      -3.522  -1.846  -7.446  0.00  0.00    +0.110 C 
ATOM     24  N   UNL     1      -2.943  -3.004  -6.733  0.00  0.00    -0.164 NA
BRANCH  24  25
ATOM     25  S   UNL     1      -2.702  -4.513  -7.371  0.00  0.00    +0.068 S 
ATOM     26  O   UNL     1      -2.613  -4.349  -8.780  0.00  0.00    -0.152 OA
ATOM     27  O   UNL     1      -1.667  -5.116  -6.607  0.00  0.00    -0.152 OA
BRANCH  25  28
ATOM     28  C   UNL     1      -4.164  -5.447  -7.064  0.00  0.00    +0.143 A 
ATOM     29  C   UNL     1      -5.270  -5.580  -7.837  0.00  0.00    +0.036 A 
ATOM     30  C   UNL     1      -6.309  -6.375  -7.390  0.00  0.00    +0.010 A 
ATOM     31  C   UNL     1      -6.190  -6.999  -6.193  0.00  0.00    +0.047 A 
ATOM     32  S   UNL     1      -4.571  -6.471  -5.660  0.00  0.00    -0.077 S 
ENDBRANCH  25  28
ENDBRANCH  24  25
ENDBRANCH  17  20
ENDBRANCH   5  16
BRANCH   1  33
ATOM     33  C   UNL     1       0.776  -1.800  -1.335  0.00  0.00    +0.342 C 
ATOM     34  O   UNL     1       0.312  -2.552  -0.499  0.00  0.00    -0.245 OA
BRANCH  33  35
ATOM     35  O   UNL     1       0.671  -0.465  -1.174  0.00  0.00    -0.461 OA
BRANCH  35  37
ATOM     36  C   UNL     1      -0.019   1.526   0.010  0.00  0.00    +0.048 C 
ATOM     37  C   UNL     1       0.002  -0.004   0.002  0.00  0.00    +0.229 C 
ENDBRANCH  35  37
ENDBRANCH  33  35
ENDBRANCH   1  33
TORSDOF 7
