REMARK  Name = ZINC39668989
REMARK  4 active torsions:
REMARK  status: ('A' for Active; 'I' for Inactive)
REMARK    1  A    between atoms: C_10  and  C_12
REMARK    2  A    between atoms: C_12  and  N_13
REMARK    3  A    between atoms: C_14  and  C_16
REMARK    4  A    between atoms: C_27  and  C_29
REMARK                            x       y       z     vdW  Elec       q    Type
REMARK                         _______ _______ _______ _____ _____    ______ ____
ROOT
ATOM      1  C   UNL     1       8.206  -0.333  -1.514  0.00  0.00    +0.100 C 
ATOM      2  C   UNL     1       9.041  -0.466  -0.221  0.00  0.00    +0.121 C 
ATOM      3  N   UNL     1      10.449  -0.372  -0.673  0.00  0.00    -0.296 N 
ATOM      4  C   UNL     1      10.429   0.672  -1.726  0.00  0.00    +0.115 C 
ATOM      5  C   UNL     1       9.120   0.415  -2.499  0.00  0.00    -0.004 C 
ATOM      6  C   UNL     1       8.483   1.739  -2.911  0.00  0.00    -0.010 C 
ATOM      7  C   UNL     1       9.382   2.437  -3.934  0.00  0.00    -0.082 C 
ATOM      8  N   UNL     1       9.557   1.571  -5.106  0.00  0.00    +0.379 N 
ATOM      9  C   UNL     1      10.255   0.339  -4.718  0.00  0.00    -0.082 C 
ATOM     10  C   UNL     1       9.393  -0.448  -3.727  0.00  0.00    -0.010 C 
ATOM     11  C   UNL     1      11.509  -1.076  -0.228  0.00  0.00    +0.247 C 
ATOM     12  O   UNL     1      11.345  -1.992   0.554  0.00  0.00    -0.270 OA
ATOM     13  H   UNL     1       8.653   1.337  -5.489  0.00  0.00    -0.086 HD
ATOM     14  H   UNL     1      10.100   2.057  -5.805  0.00  0.00    -0.086 HD
ENDROOT
BRANCH  11  15
ATOM     15  C   UNL     1      12.870  -0.734  -0.691  0.00  0.00    +0.037 A 
ATOM     16  C   UNL     1      13.134   0.532  -1.218  0.00  0.00    +0.014 A 
ATOM     17  C   UNL     1      14.406   0.845  -1.648  0.00  0.00    +0.016 A 
ATOM     18  C   UNL     1      15.421  -0.093  -1.557  0.00  0.00    +0.018 A 
ATOM     19  C   UNL     1      15.166  -1.349  -1.035  0.00  0.00    +0.016 A 
ATOM     20  C   UNL     1      13.899  -1.673  -0.596  0.00  0.00    +0.014 A 
ATOM     21 BR   UNL     1      17.163   0.345  -2.149  0.00  0.00    -0.050 Br
ENDBRANCH  11  15
BRANCH   1  23
ATOM     22  N   UNL     1       5.839   0.223  -1.968  0.00  0.00    -0.312 N 
ATOM     23  C   UNL     1       6.955   0.464  -1.251  0.00  0.00    +0.218 C 
ATOM     24  O   UNL     1       6.951   1.323  -0.394  0.00  0.00    -0.275 OA
ATOM     25  H   UNL     1       5.841  -0.463  -2.653  0.00  0.00    +0.149 HD
BRANCH  22  26
ATOM     26  C   UNL     1       4.622   0.998  -1.712  0.00  0.00    +0.140 C 
BRANCH  26  36
ATOM     27  C   UNL     1      -0.029   2.779  -1.826  0.00  0.00    +0.000 A 
ATOM     28  C   UNL     1       0.747   2.286  -0.793  0.00  0.00    +0.000 A 
ATOM     29  C   UNL     1       1.888   1.562  -1.074  0.00  0.00    +0.006 A 
ATOM     30  C   UNL     1       2.262   1.329  -2.388  0.00  0.00    -0.014 A 
ATOM     31  C   UNL     1       1.490   1.823  -3.418  0.00  0.00    -0.040 A 
ATOM     32  C   UNL     1       0.342   2.546  -3.136  0.00  0.00    +0.004 A 
ATOM     33  C   UNL     1       1.871   1.601  -4.860  0.00  0.00    +0.063 C 
ATOM     34  C   UNL     1       2.890   0.464  -4.957  0.00  0.00    +0.165 C 
ATOM     35  O   UNL     1       3.933   0.707  -4.006  0.00  0.00    -0.370 OA
ATOM     36  C   UNL     1       3.511   0.530  -2.654  0.00  0.00    +0.165 C 
ENDBRANCH  26  36
ENDBRANCH  22  26
ENDBRANCH   1  23
TORSDOF 4
