REMARK  Name = ZINC63776821
REMARK  9 active torsions:
REMARK  status: ('A' for Active; 'I' for Inactive)
REMARK    1  A    between atoms: C_1  and  C_2
REMARK    2  A    between atoms: C_4  and  C_29
REMARK    3  A    between atoms: C_5  and  C_9
REMARK    4  A    between atoms: C_6  and  C_8
REMARK    5  A    between atoms: C_9  and  N_10
REMARK    6  A    between atoms: N_13  and  C_14
REMARK    7  A    between atoms: C_14  and  C_15
REMARK    8  A    between atoms: C_18  and  N_21
REMARK    9  A    between atoms: C_22  and  C_24
REMARK                            x       y       z     vdW  Elec       q    Type
REMARK                         _______ _______ _______ _____ _____    ______ ____
ROOT
ATOM      1  N   UNL     1       1.454  -4.747  -0.445  0.00  0.00    -0.295 N 
ATOM      2  C   UNL     1       1.716  -6.057  -0.267  0.00  0.00    +0.300 C 
ATOM      3  O   UNL     1       0.802  -6.846  -0.128  0.00  0.00    -0.253 OA
ATOM      4  N   UNL     1       2.991  -6.492  -0.242  0.00  0.00    -0.295 N 
ATOM      5  H   UNL     1       2.184  -4.117  -0.555  0.00  0.00    +0.151 HD
ATOM      6  H   UNL     1       3.721  -5.862  -0.353  0.00  0.00    +0.151 HD
ENDROOT
BRANCH   1   7
ATOM      7  C   UNL     1       0.068  -4.274  -0.471  0.00  0.00    +0.141 C 
BRANCH   7  12
ATOM      8  C   UNL     1      -0.003   1.448  -1.279  0.00  0.00    +0.044 C 
ATOM      9  C   UNL     1       0.015  -0.044  -1.069  0.00  0.00    -0.050 A 
ATOM     10  C   UNL     1      -0.009  -0.896  -2.157  0.00  0.00    +0.007 A 
ATOM     11  C   UNL     1       0.008  -2.265  -1.963  0.00  0.00    -0.045 A 
ATOM     12  C   UNL     1       0.050  -2.781  -0.682  0.00  0.00    -0.024 A 
ATOM     13  C   UNL     1       0.076  -1.929   0.406  0.00  0.00    -0.045 A 
ATOM     14  C   UNL     1       0.063  -0.561   0.213  0.00  0.00    +0.007 A 
ATOM     15  C   UNL     1       0.122  -2.493   1.803  0.00  0.00    +0.044 C 
ATOM     16  C   UNL     1      -0.021  -3.194  -3.150  0.00  0.00    +0.044 C 
ENDBRANCH   7  12
ENDBRANCH   1   7
BRANCH   4  17
ATOM     17  C   UNL     1       3.276  -7.916  -0.049  0.00  0.00    +0.141 C 
BRANCH  17  18
ATOM     18  C   UNL     1       4.767  -8.136  -0.061  0.00  0.00    -0.030 A 
ATOM     19  C   UNL     1       5.415  -8.400  -1.254  0.00  0.00    +0.007 A 
ATOM     20  C   UNL     1       6.781  -8.602  -1.268  0.00  0.00    +0.023 A 
ATOM     21  C   UNL     1       7.504  -8.541  -0.084  0.00  0.00    +0.034 A 
ATOM     22  C   UNL     1       6.849  -8.276   1.113  0.00  0.00    +0.023 A 
ATOM     23  C   UNL     1       5.484  -8.069   1.120  0.00  0.00    +0.007 A 
BRANCH  21  24
ATOM     24  N   UNL     1       8.887  -8.746  -0.095  0.00  0.00    -0.279 N 
ATOM     25  C   UNL     1       9.489  -9.341   0.954  0.00  0.00    +0.284 C 
ATOM     26  O   UNL     1       8.819  -9.786   1.868  0.00  0.00    -0.266 OA
ATOM     27  H   UNL     1       9.413  -8.460  -0.858  0.00  0.00    +0.155 HD
BRANCH  25  28
ATOM     28  C   UNL     1      10.950  -9.452   0.995  0.00  0.00    +0.189 A 
ATOM     29  C   UNL     1      11.683 -10.033   1.990  0.00  0.00    +0.054 A 
ATOM     30  C   UNL     1      13.032  -9.916   1.619  0.00  0.00    +0.042 A 
ATOM     31  C   UNL     1      13.062  -9.278   0.428  0.00  0.00    +0.196 A 
ATOM     32  O   UNL     1      11.806  -9.004   0.053  0.00  0.00    -0.458 OA
ENDBRANCH  25  28
ENDBRANCH  21  24
ENDBRANCH  17  18
ENDBRANCH   4  17
TORSDOF 6
