REMARK  Name = ZINC59170602
REMARK  6 active torsions:
REMARK  status: ('A' for Active; 'I' for Inactive)
REMARK    1  A    between atoms: C_1  and  C_2
REMARK    2  A    between atoms: C_9  and  C_23
REMARK    3  A    between atoms: N_11  and  C_12
REMARK    4  A    between atoms: C_15  and  S_18
REMARK    5  A    between atoms: S_18  and  N_21
REMARK    6  A    between atoms: N_25  and  C_26
REMARK                            x       y       z     vdW  Elec       q    Type
REMARK                         _______ _______ _______ _____ _____    ______ ____
ROOT
ATOM      1  C   UNL     1      -1.190   1.316  -0.004  0.00  0.00    +0.044 C 
ATOM      2  C   UNL     1      -0.663  -0.094  -0.063  0.00  0.00    -0.050 A 
ATOM      3  C   UNL     1       0.213  -0.459  -1.075  0.00  0.00    +0.007 A 
ATOM      4  C   UNL     1       0.706  -1.747  -1.149  0.00  0.00    +0.047 A 
ATOM      5  C   UNL     1       0.325  -2.686  -0.203  0.00  0.00    +0.137 A 
ATOM      6  C   UNL     1      -0.559  -2.313   0.827  0.00  0.00    +0.018 A 
ATOM      7  C   UNL     1      -1.046  -1.001   0.884  0.00  0.00    +0.015 A 
ATOM      8  C   UNL     1      -0.953  -3.304   1.831  0.00  0.00    +0.030 A 
ATOM      9  C   UNL     1      -0.225  -4.486   1.879  0.00  0.00    +0.098 A 
ATOM     10  C   UNL     1       0.879  -4.637   0.911  0.00  0.00    +0.212 A 
ATOM     11  N   UNL     1       1.911  -5.407   1.175  0.00  0.00    -0.325 N 
ATOM     12  O   UNL     1       0.795  -3.956  -0.261  0.00  0.00    -0.439 OA
ATOM     13  H   UNL     1       2.048  -5.744   2.074  0.00  0.00    +0.169 HD
ENDROOT
BRANCH  11  14
ATOM     14  C   UNL     1       2.793  -5.734   0.181  0.00  0.00    +0.042 A 
ATOM     15  C   UNL     1       2.321  -6.125  -1.074  0.00  0.00    +0.027 A 
ATOM     16  C   UNL     1       3.216  -6.453  -2.072  0.00  0.00    +0.030 A 
ATOM     17  C   UNL     1       4.578  -6.394  -1.831  0.00  0.00    +0.105 A 
ATOM     18  C   UNL     1       5.052  -6.007  -0.590  0.00  0.00    +0.030 A 
ATOM     19  C   UNL     1       4.169  -5.671   0.415  0.00  0.00    +0.027 A 
BRANCH  17  20
ATOM     20  S   UNL     1       5.713  -6.814  -3.111  0.00  0.00    +0.056 S 
ATOM     21  O   UNL     1       6.920  -7.204  -2.471  0.00  0.00    -0.153 OA
ATOM     22  O   UNL     1       5.016  -7.667  -4.009  0.00  0.00    -0.153 OA
BRANCH  20  23
ATOM     23  N   UNL     1       6.048  -5.422  -3.945  0.00  0.00    -0.204 NA
ATOM     24  H   UNL     1       5.632  -4.587  -3.680  0.00  0.00    +0.144 HD
ATOM     25  H   UNL     1       6.660  -5.443  -4.697  0.00  0.00    +0.144 HD
ENDBRANCH  20  23
ENDBRANCH  17  20
ENDBRANCH  11  14
BRANCH   9  26
ATOM     26  C   UNL     1      -0.542  -5.543   2.854  0.00  0.00    +0.253 C 
ATOM     27  O   UNL     1      -1.378  -5.346   3.715  0.00  0.00    -0.270 OA
ATOM     28  N   UNL     1       0.095  -6.729   2.792  0.00  0.00    -0.281 N 
ATOM     29  H   UNL     1       0.786  -6.875   2.127  0.00  0.00    +0.155 HD
BRANCH  28  30
ATOM     30  C   UNL     1      -0.239  -7.751   3.688  0.00  0.00    +0.035 A 
ATOM     31  C   UNL     1      -0.692  -7.437   4.963  0.00  0.00    +0.025 A 
ATOM     32  C   UNL     1      -1.022  -8.446   5.846  0.00  0.00    +0.023 A 
ATOM     33  C   UNL     1      -0.902  -9.770   5.462  0.00  0.00    +0.059 A 
ATOM     34  C   UNL     1      -0.451 -10.086   4.191  0.00  0.00    +0.061 A 
ATOM     35  C   UNL     1      -0.125  -9.079   3.302  0.00  0.00    +0.044 A 
ATOM     36 CL   UNL     1      -0.302 -11.748   3.712  0.00  0.00    -0.082 Cl
ATOM     37 CL   UNL     1      -1.317 -11.036   6.574  0.00  0.00    -0.082 Cl
ENDBRANCH  28  30
ENDBRANCH   9  26
TORSDOF 5
