REMARK  Name = ZINC39227784
REMARK  6 active torsions:
REMARK  status: ('A' for Active; 'I' for Inactive)
REMARK    1  A    between atoms: C_1  and  O_2
REMARK    2  A    between atoms: O_2  and  C_3
REMARK    3  A    between atoms: C_6  and  N_9
REMARK    4  A    between atoms: C_10  and  C_12
REMARK    5  A    between atoms: C_12  and  N_13
REMARK    6  A    between atoms: C_26  and  C_28
REMARK                            x       y       z     vdW  Elec       q    Type
REMARK                         _______ _______ _______ _____ _____    ______ ____
ROOT
ATOM      1  N   UNL     1       2.765  -6.189   5.443  0.00  0.00    +0.394 N 
ATOM      2  C   UNL     1       1.424  -6.768   5.590  0.00  0.00    -0.072 C 
ATOM      3  C   UNL     1       1.472  -8.264   5.248  0.00  0.00    +0.019 C 
ATOM      4  C   UNL     1       2.613  -8.878   6.019  0.00  0.00    -0.022 A 
ATOM      5  C   UNL     1       2.900 -10.268   6.287  0.00  0.00    +0.003 A 
ATOM      6  C   UNL     1       2.252 -11.458   5.940  0.00  0.00    +0.010 A 
ATOM      7  C   UNL     1       2.823 -12.627   6.379  0.00  0.00    +0.001 A 
ATOM      8  C   UNL     1       3.986 -12.642   7.130  0.00  0.00    +0.002 A 
ATOM      9  C   UNL     1       4.648 -11.481   7.489  0.00  0.00    +0.026 A 
ATOM     10  C   UNL     1       4.092 -10.278   7.058  0.00  0.00    +0.047 A 
ATOM     11  N   UNL     1       4.477  -8.979   7.230  0.00  0.00    -0.359 N 
ATOM     12  C   UNL     1       3.589  -8.147   6.605  0.00  0.00    +0.011 A 
ATOM     13  H   UNL     1       5.262  -8.690   7.721  0.00  0.00    +0.166 HD
ATOM     14  C   UNL     1       3.636  -6.639   6.540  0.00  0.00    +0.015 C 
ATOM     15  H   UNL     1       3.159  -6.481   4.562  0.00  0.00    -0.080 HD
ENDROOT
BRANCH  14  16
ATOM     16  C   UNL     1       3.148  -6.061   7.843  0.00  0.00    -0.008 A 
ATOM     17  C   UNL     1       2.360  -6.823   8.685  0.00  0.00    +0.026 A 
ATOM     18  C   UNL     1       1.911  -6.296   9.883  0.00  0.00    +0.045 A 
ATOM     19  C   UNL     1       2.249  -5.003  10.242  0.00  0.00    +0.069 A 
ATOM     20  C   UNL     1       3.038  -4.234   9.403  0.00  0.00    +0.168 A 
ATOM     21  C   UNL     1       3.494  -4.768   8.199  0.00  0.00    +0.168 A 
ATOM     22  O   UNL     1       4.249  -3.825   7.563  0.00  0.00    -0.452 OA
ATOM     23  C   UNL     1       3.918  -2.575   8.197  0.00  0.00    +0.466 C 
ATOM     24  O   UNL     1       3.504  -2.957   9.518  0.00  0.00    -0.453 OA
ATOM     25 CL   UNL     1       0.921  -7.258  10.936  0.00  0.00    -0.083 Cl
ENDBRANCH  14  16
BRANCH   1  26
ATOM     26  C   UNL     1       2.668  -4.723   5.470  0.00  0.00    +0.020 C 
BRANCH  26  28
ATOM     27  N   UNL     1       1.659  -2.934   4.092  0.00  0.00    -0.287 N 
ATOM     28  C   UNL     1       1.878  -4.251   4.276  0.00  0.00    +0.201 C 
ATOM     29  O   UNL     1       1.439  -5.056   3.482  0.00  0.00    -0.278 OA
ATOM     30  H   UNL     1       2.065  -2.286   4.688  0.00  0.00    +0.155 HD
BRANCH  27  34
ATOM     31  C   UNL     1      -0.769  -1.644   0.956  0.00  0.00    +0.120 A 
ATOM     32  C   UNL     1       0.043  -2.757   0.792  0.00  0.00    +0.047 A 
ATOM     33  C   UNL     1       0.847  -3.184   1.830  0.00  0.00    +0.027 A 
ATOM     34  C   UNL     1       0.843  -2.500   3.038  0.00  0.00    +0.034 A 
ATOM     35  C   UNL     1       0.030  -1.386   3.202  0.00  0.00    +0.027 A 
ATOM     36  C   UNL     1      -0.769  -0.957   2.161  0.00  0.00    +0.047 A 
BRANCH  31  38
ATOM     37  C   UNL     1      -1.511  -1.979  -1.278  0.00  0.00    +0.277 C 
ATOM     38  O   UNL     1      -1.561  -1.224  -0.066  0.00  0.00    -0.495 OA
ENDBRANCH  31  38
ENDBRANCH  27  34
ENDBRANCH  26  28
ENDBRANCH   1  26
TORSDOF 5
