REMARK  Name = ZINC12554931
REMARK  6 active torsions:
REMARK  status: ('A' for Active; 'I' for Inactive)
REMARK    1  A    between atoms: C_4  and  C_7
REMARK    2  A    between atoms: C_7  and  C_9
REMARK    3  A    between atoms: C_7  and  N_15
REMARK    4  A    between atoms: N_15  and  C_16
REMARK    5  A    between atoms: C_19  and  O_22
REMARK    6  A    between atoms: O_22  and  C_23
REMARK                            x       y       z     vdW  Elec       q    Type
REMARK                         _______ _______ _______ _____ _____    ______ ____
ROOT
ATOM      1  C   UNL     1      -0.837  -3.885   0.177  0.00  0.00    +0.188 C 
ENDROOT
BRANCH   1   2
ATOM      2  C   UNL     1      -0.402  -2.446   0.074  0.00  0.00    +0.245 C 
ATOM      3  O   UNL     1      -1.231  -1.567  -0.017  0.00  0.00    -0.273 OA
ATOM      4  N   UNL     1       0.910  -2.136   0.083  0.00  0.00    -0.239 N 
ATOM      5  C   UNL     1       1.299  -0.849  -0.009  0.00  0.00    +0.303 C 
ATOM      6  O   UNL     1       0.467   0.032  -0.106  0.00  0.00    -0.253 OA
ATOM      7  N   UNL     1       2.611  -0.539   0.000  0.00  0.00    -0.313 N 
ATOM      8  H   UNL     1       1.574  -2.839   0.156  0.00  0.00    +0.159 HD
ATOM      9  H   UNL     1       3.275  -1.242   0.073  0.00  0.00    +0.146 HD
ATOM     10  H   UNL     1       2.891   0.387  -0.066  0.00  0.00    +0.146 HD
ENDBRANCH   1   2
BRANCH   1  14
ATOM     11  C   UNL     1       0.769  -6.097  -3.106  0.00  0.00    +0.000 A 
ATOM     12  C   UNL     1       1.380  -6.156  -1.868  0.00  0.00    +0.000 A 
ATOM     13  C   UNL     1       0.861  -5.441  -0.805  0.00  0.00    +0.006 A 
ATOM     14  C   UNL     1      -0.270  -4.665  -0.981  0.00  0.00    -0.018 A 
ATOM     15  C   UNL     1      -0.884  -4.610  -2.219  0.00  0.00    +0.006 A 
ATOM     16  C   UNL     1      -0.362  -5.322  -3.282  0.00  0.00    +0.000 A 
ENDBRANCH   1  14
BRANCH   1  17
ATOM     17  N   UNL     1      -2.299  -3.956   0.145  0.00  0.00    -0.329 N 
ATOM     18  H   UNL     1      -2.759  -4.119  -0.694  0.00  0.00    +0.147 HD
BRANCH  17  19
ATOM     19  C   UNL     1      -3.034  -3.790   1.324  0.00  0.00    +0.028 A 
ATOM     20  C   UNL     1      -2.376  -3.563   2.526  0.00  0.00    +0.026 A 
ATOM     21  C   UNL     1      -3.102  -3.394   3.688  0.00  0.00    +0.048 A 
ATOM     22  C   UNL     1      -4.488  -3.461   3.658  0.00  0.00    +0.129 A 
ATOM     23  C   UNL     1      -5.145  -3.694   2.458  0.00  0.00    +0.048 A 
ATOM     24  C   UNL     1      -4.421  -3.858   1.294  0.00  0.00    +0.026 A 
BRANCH  22  25
ATOM     25  O   UNL     1      -5.202  -3.299   4.803  0.00  0.00    -0.456 OA
BRANCH  25  26
ATOM     26  C   UNL     1      -4.517  -3.061   5.953  0.00  0.00    +0.129 A 
ATOM     27  C   UNL     1      -4.109  -4.121   6.751  0.00  0.00    +0.047 A 
ATOM     28  C   UNL     1      -3.408  -3.877   7.916  0.00  0.00    +0.019 A 
ATOM     29  C   UNL     1      -3.124  -2.577   8.294  0.00  0.00    +0.018 A 
ATOM     30  C   UNL     1      -3.535  -1.518   7.503  0.00  0.00    +0.019 A 
ATOM     31  C   UNL     1      -4.231  -1.758   6.334  0.00  0.00    +0.047 A 
ATOM     32 BR   UNL     1      -2.170  -2.245   9.893  0.00  0.00    -0.050 Br
ENDBRANCH  25  26
ENDBRANCH  22  25
ENDBRANCH  17  19
ENDBRANCH   1  17
TORSDOF 6
