REMARK  Name = ZINC08723736
REMARK  7 active torsions:
REMARK  status: ('A' for Active; 'I' for Inactive)
REMARK    1  A    between atoms: C_1  and  C_2
REMARK    2  A    between atoms: C_2  and  C_4
REMARK    3  A    between atoms: C_2  and  S_17
REMARK    4  A    between atoms: S_17  and  C_18
REMARK    5  A    between atoms: C_21  and  C_30
REMARK    6  A    between atoms: N_22  and  C_23
REMARK    7  A    between atoms: C_30  and  C_31
REMARK                            x       y       z     vdW  Elec       q    Type
REMARK                         _______ _______ _______ _____ _____    ______ ____
ROOT
ATOM      1  C   UNL     1      -3.900   1.193   3.385  0.00  0.00    +0.197 A 
ATOM      2  N   UNL     1      -3.217   0.071   3.408  0.00  0.00    -0.122 NA
ATOM      3  N   UNL     1      -2.754  -0.183   2.236  0.00  0.00    -0.133 NA
ATOM      4  C   UNL     1      -3.102   0.756   1.402  0.00  0.00    +0.143 A 
ATOM      5  N   UNL     1      -3.849   1.666   2.103  0.00  0.00    -0.274 N 
ENDROOT
BRANCH   5   6
ATOM      6  C   UNL     1      -4.437   2.840   1.608  0.00  0.00    +0.050 A 
ATOM      7  C   UNL     1      -3.638   3.892   1.182  0.00  0.00    +0.029 A 
ATOM      8  C   UNL     1      -4.219   5.045   0.691  0.00  0.00    +0.040 A 
ATOM      9  C   UNL     1      -5.598   5.156   0.632  0.00  0.00    +0.124 A 
ATOM     10  C   UNL     1      -6.397   4.109   1.062  0.00  0.00    +0.040 A 
ATOM     11  C   UNL     1      -5.819   2.953   1.549  0.00  0.00    +0.029 A 
ATOM     12  F   UNL     1      -6.165   6.286   0.156  0.00  0.00    -0.205 F 
ENDBRANCH   5   6
BRANCH   1  13
ATOM     13  S   UNL     1      -4.727   1.944   4.747  0.00  0.00    -0.073 S 
BRANCH  13  15
ATOM     14  C   UNL     1      -5.002  -0.592   5.724  0.00  0.00    +0.029 C 
ATOM     15  C   UNL     1      -4.339   0.748   6.049  0.00  0.00    +0.137 C 
BRANCH  15  16
ATOM     16  C   UNL     1      -4.857   1.257   7.369  0.00  0.00    +0.233 C 
ATOM     17  O   UNL     1      -5.784   2.038   7.397  0.00  0.00    -0.274 OA
ATOM     18  N   UNL     1      -4.289   0.844   8.520  0.00  0.00    -0.260 N 
ATOM     19  C   UNL     1      -3.168  -0.107   8.514  0.00  0.00    +0.209 C 
ATOM     20  C   UNL     1      -3.368  -1.115   9.611  0.00  0.00    +0.235 C 
ATOM     21  O   UNL     1      -2.914  -2.233   9.487  0.00  0.00    -0.274 OA
ATOM     22  N   UNL     1      -4.048  -0.795  10.728  0.00  0.00    -0.283 N 
ATOM     23  C   UNL     1      -4.624   0.472  10.876  0.00  0.00    +0.055 A 
ATOM     24  C   UNL     1      -4.753   1.304   9.762  0.00  0.00    +0.058 A 
ATOM     25  C   UNL     1      -5.327   2.555   9.892  0.00  0.00    +0.025 A 
ATOM     26  C   UNL     1      -5.771   2.982  11.131  0.00  0.00    +0.002 A 
ATOM     27  C   UNL     1      -5.642   2.161  12.236  0.00  0.00    +0.002 A 
ATOM     28  C   UNL     1      -5.070   0.908  12.113  0.00  0.00    +0.025 A 
ATOM     29  H   UNL     1      -4.139  -1.449  11.439  0.00  0.00    +0.155 HD
ENDBRANCH  15  16
ENDBRANCH  13  15
ENDBRANCH   1  13
BRANCH   4  30
ATOM     30  C   UNL     1      -2.754   0.825  -0.062  0.00  0.00    +0.111 C 
BRANCH  30  31
ATOM     31  C   UNL     1      -3.748   0.014  -0.854  0.00  0.00    -0.040 A 
ATOM     32  C   UNL     1      -4.856   0.628  -1.406  0.00  0.00    +0.004 A 
ATOM     33  C   UNL     1      -5.765  -0.115  -2.137  0.00  0.00    +0.000 A 
ATOM     34  C   UNL     1      -5.568  -1.472  -2.310  0.00  0.00    +0.000 A 
ATOM     35  C   UNL     1      -4.462  -2.087  -1.753  0.00  0.00    +0.000 A 
ATOM     36  C   UNL     1      -3.554  -1.344  -1.023  0.00  0.00    +0.004 A 
ENDBRANCH  30  31
ENDBRANCH   4  30
TORSDOF 6
