REMARK  Name = ZINC12541631
REMARK  12 active torsions:
REMARK  status: ('A' for Active; 'I' for Inactive)
REMARK    1  A    between atoms: C_1  and  N_2
REMARK    2  A    between atoms: N_2  and  C_3
REMARK    3  A    between atoms: N_2  and  S_4
REMARK    4  A    between atoms: S_4  and  C_7
REMARK    5  A    between atoms: C_11  and  N_13
REMARK    6  A    between atoms: C_14  and  C_16
REMARK    7  A    between atoms: C_16  and  O_17
REMARK    8  A    between atoms: O_17  and  C_18
REMARK    9  A    between atoms: C_18  and  C_20
REMARK   10  A    between atoms: C_20  and  C_21
REMARK   11  A    between atoms: C_21  and  C_23
REMARK   12  A    between atoms: C_21  and  N_30
REMARK                            x       y       z     vdW  Elec       q    Type
REMARK                         _______ _______ _______ _____ _____    ______ ____
ROOT
ATOM      1  O   UNL     1       0.875  -6.379  -3.669  0.00  0.00    -0.455 OA
ENDROOT
BRANCH   1   2
ATOM      2  C   UNL     1       1.455  -7.464  -4.206  0.00  0.00    +0.310 C 
ATOM      3  O   UNL     1       1.227  -7.765  -5.354  0.00  0.00    -0.251 OA
BRANCH   2   4
ATOM      4  C   UNL     1       2.391  -8.306  -3.377  0.00  0.00    +0.147 C 
BRANCH   4   5
ATOM      5  C   UNL     1       2.910  -9.472  -4.221  0.00  0.00    +0.115 C 
BRANCH   5   6
ATOM      6  C   UNL     1       3.747 -10.382  -3.360  0.00  0.00    -0.027 A 
ATOM      7  C   UNL     1       3.241 -11.600  -2.946  0.00  0.00    +0.007 A 
ATOM      8  C   UNL     1       4.008 -12.435  -2.155  0.00  0.00    +0.020 A 
ATOM      9  C   UNL     1       5.283 -12.051  -1.779  0.00  0.00    +0.041 A 
ATOM     10  C   UNL     1       5.789 -10.832  -2.193  0.00  0.00    +0.020 A 
ATOM     11  C   UNL     1       5.023 -10.001  -2.988  0.00  0.00    +0.007 A 
ATOM     12 CL   UNL     1       6.247 -13.099  -0.786  0.00  0.00    -0.084 Cl
ENDBRANCH   5   6
BRANCH   5  13
ATOM     13  N   UNL     1       3.727  -8.953  -5.321  0.00  0.00    -0.292 N 
ATOM     14  C   UNL     1       3.954  -9.715  -6.409  0.00  0.00    +0.298 C 
ATOM     15  O   UNL     1       3.408 -10.796  -6.520  0.00  0.00    -0.253 OA
ATOM     16  N   UNL     1       4.787  -9.279  -7.375  0.00  0.00    -0.313 N 
ATOM     17  H   UNL     1       4.104  -8.061  -5.266  0.00  0.00    +0.151 HD
ATOM     18  H   UNL     1       5.223  -8.417  -7.287  0.00  0.00    +0.146 HD
ATOM     19  H   UNL     1       4.951  -9.827  -8.158  0.00  0.00    +0.146 HD
ENDBRANCH   5  13
ENDBRANCH   4   5
ENDBRANCH   2   4
ENDBRANCH   1   2
BRANCH   1  20
ATOM     20  C   UNL     1       0.000  -5.627  -4.512  0.00  0.00    +0.328 C 
BRANCH  20  22
ATOM     21  N   UNL     1      -1.407  -3.600  -4.340  0.00  0.00    -0.281 N 
ATOM     22  C   UNL     1      -0.553  -4.455  -3.744  0.00  0.00    +0.255 C 
ATOM     23  O   UNL     1      -0.230  -4.280  -2.588  0.00  0.00    -0.272 OA
ATOM     24  H   UNL     1      -1.729  -3.783  -5.237  0.00  0.00    +0.155 HD
BRANCH  21  29
ATOM     25  C   UNL     1      -1.466  -0.768  -1.995  0.00  0.00    +0.107 A 
ATOM     26  C   UNL     1      -2.668  -0.172  -2.333  0.00  0.00    +0.030 A 
ATOM     27  C   UNL     1      -3.452  -0.712  -3.336  0.00  0.00    +0.024 A 
ATOM     28  C   UNL     1      -3.038  -1.849  -4.004  0.00  0.00    +0.062 A 
ATOM     29  C   UNL     1      -1.831  -2.449  -3.667  0.00  0.00    +0.054 A 
ATOM     30  C   UNL     1      -1.043  -1.901  -2.663  0.00  0.00    +0.053 A 
ATOM     31 CL   UNL     1      -4.024  -2.526  -5.262  0.00  0.00    -0.082 Cl
BRANCH  25  32
ATOM     32  S   UNL     1      -0.470  -0.077  -0.717  0.00  0.00    +0.060 S 
ATOM     33  O   UNL     1       0.347  -1.129  -0.225  0.00  0.00    -0.153 OA
ATOM     34  O   UNL     1      -1.345   0.665   0.123  0.00  0.00    -0.153 OA
BRANCH  32  36
ATOM     35  C   UNL     1       0.135   2.419  -1.565  0.00  0.00    +0.131 C 
ATOM     36  N   UNL     1       0.547   1.020  -1.427  0.00  0.00    -0.183 NA
ATOM     37  C   UNL     1       1.859   0.591  -1.919  0.00  0.00    +0.131 C 
ENDBRANCH  32  36
ENDBRANCH  25  32
ENDBRANCH  21  29
ENDBRANCH  20  22
ENDBRANCH   1  20
TORSDOF 10
