REMARK  Name = ZINC15477287
REMARK  9 active torsions:
REMARK  status: ('A' for Active; 'I' for Inactive)
REMARK    1  A    between atoms: C_1  and  C_2
REMARK    2  A    between atoms: C_5  and  N_8
REMARK    3  A    between atoms: N_8  and  S_9
REMARK    4  A    between atoms: S_9  and  C_12
REMARK    5  A    between atoms: C_16  and  C_18
REMARK    6  A    between atoms: N_20  and  C_21
REMARK    7  A    between atoms: C_21  and  C_22
REMARK    8  A    between atoms: C_22  and  C_24
REMARK    9  A    between atoms: C_22  and  N_29
REMARK                            x       y       z     vdW  Elec       q    Type
REMARK                         _______ _______ _______ _____ _____    ______ ____
ROOT
ATOM      1  C   UNL     1       0.774  -4.428   2.949  0.00  0.00    +0.109 A 
ATOM      2  C   UNL     1       0.777  -3.130   3.430  0.00  0.00    +0.029 A 
ATOM      3  C   UNL     1       0.068  -2.808   4.573  0.00  0.00    +0.003 A 
ATOM      4  C   UNL     1      -0.647  -3.780   5.242  0.00  0.00    +0.013 A 
ATOM      5  C   UNL     1      -0.655  -5.090   4.763  0.00  0.00    +0.039 A 
ATOM      6  C   UNL     1       0.058  -5.408   3.605  0.00  0.00    +0.041 A 
ENDROOT
BRANCH   5   7
ATOM      7  C   UNL     1      -1.418  -6.137   5.475  0.00  0.00    +0.244 C 
ATOM      8  O   UNL     1      -1.423  -7.278   5.055  0.00  0.00    -0.270 OA
ATOM      9  N   UNL     1      -2.109  -5.827   6.589  0.00  0.00    -0.312 N 
ATOM     10  H   UNL     1      -2.106  -4.916   6.924  0.00  0.00    +0.149 HD
BRANCH   9  11
ATOM     11  C   UNL     1      -2.866  -6.864   7.295  0.00  0.00    +0.097 C 
BRANCH  11  12
ATOM     12  C   UNL     1      -3.437  -6.286   8.591  0.00  0.00    +0.016 C 
BRANCH  12  13
ATOM     13  N   UNL     1      -2.349  -5.702   9.388  0.00  0.00    +0.387 N 
ATOM     14  C   UNL     1      -1.314  -6.718   9.619  0.00  0.00    -0.078 C 
ATOM     15  C   UNL     1      -0.142  -6.093  10.378  0.00  0.00    -0.019 C 
ATOM     16  C   UNL     1      -0.640  -5.555  11.722  0.00  0.00    -0.004 C 
ATOM     17  C   UNL     1      -1.770  -4.551  11.472  0.00  0.00    -0.019 C 
ATOM     18  C   UNL     1      -2.882  -5.233  10.672  0.00  0.00    -0.078 C 
ATOM     19  H   UNL     1      -1.947  -4.924   8.887  0.00  0.00    -0.081 HD
ENDBRANCH  12  13
BRANCH  12  20
ATOM     20  C   UNL     1      -4.103  -7.384   9.380  0.00  0.00    +0.093 A 
ATOM     21  C   UNL     1      -5.428  -7.535   9.552  0.00  0.00    +0.043 A 
ATOM     22  C   UNL     1      -5.609  -8.687  10.352  0.00  0.00    +0.041 A 
ATOM     23  C   UNL     1      -4.383  -9.169  10.622  0.00  0.00    +0.195 A 
ATOM     24  O   UNL     1      -3.475  -8.380  10.026  0.00  0.00    -0.469 OA
ENDBRANCH  12  20
ENDBRANCH  11  12
ENDBRANCH   9  11
ENDBRANCH   5   7
BRANCH   1  25
ATOM     25  S   UNL     1       1.680  -4.827   1.492  0.00  0.00    +0.072 S 
ATOM     26  O   UNL     1       1.836  -6.240   1.485  0.00  0.00    -0.150 OA
ATOM     27  O   UNL     1       2.787  -3.938   1.445  0.00  0.00    -0.150 OA
BRANCH  25  28
ATOM     28  N   UNL     1       0.716  -4.452   0.198  0.00  0.00    -0.216 N 
ATOM     29  H   UNL     1       0.969  -3.733  -0.402  0.00  0.00    +0.174 HD
BRANCH  28  34
ATOM     30  C   UNL     1      -4.059  -7.369  -0.724  0.00  0.00    +0.044 C 
ATOM     31  C   UNL     1      -2.790  -6.594  -0.479  0.00  0.00    -0.050 A 
ATOM     32  C   UNL     1      -2.801  -5.212  -0.545  0.00  0.00    +0.005 A 
ATOM     33  C   UNL     1      -1.640  -4.499  -0.321  0.00  0.00    +0.025 A 
ATOM     34  C   UNL     1      -0.460  -5.170  -0.029  0.00  0.00    +0.048 A 
ATOM     35  C   UNL     1      -0.452  -6.558   0.037  0.00  0.00    +0.025 A 
ATOM     36  C   UNL     1      -1.617  -7.265  -0.182  0.00  0.00    +0.005 A 
ENDBRANCH  28  34
ENDBRANCH  25  28
ENDBRANCH   1  25
TORSDOF 8
