REMARK  Name = ZINC09115059
REMARK  3 active torsions:
REMARK  status: ('A' for Active; 'I' for Inactive)
REMARK    1  A    between atoms: C_1  and  N_2
REMARK    2  A    between atoms: C_12  and  C_20
REMARK    3  A    between atoms: N_22  and  C_23
REMARK                            x       y       z     vdW  Elec       q    Type
REMARK                         _______ _______ _______ _____ _____    ______ ____
ROOT
ATOM      1  C   UNL     1       0.662   7.145   1.093  0.00  0.00    +0.138 C 
ATOM      2  N   UNL     1      -0.649   6.608   0.719  0.00  0.00    -0.275 N 
ATOM      3  C   UNL     1      -1.355   7.000  -0.420  0.00  0.00    +0.038 A 
ATOM      4  C   UNL     1      -1.038   7.921  -1.416  0.00  0.00    +0.024 A 
ATOM      5  C   UNL     1      -1.913   8.144  -2.459  0.00  0.00    +0.002 A 
ATOM      6  C   UNL     1      -3.112   7.457  -2.524  0.00  0.00    +0.000 A 
ATOM      7  C   UNL     1      -3.434   6.540  -1.539  0.00  0.00    +0.004 A 
ATOM      8  C   UNL     1      -2.562   6.314  -0.497  0.00  0.00    -0.027 A 
ATOM      9  C   UNL     1      -2.604   5.409   0.705  0.00  0.00    +0.052 C 
ATOM     10  C   UNL     1      -1.312   5.679   1.433  0.00  0.00    +0.214 C 
ATOM     11  O   UNL     1      -0.941   5.160   2.465  0.00  0.00    -0.276 OA
ATOM     12  C   UNL     1      -2.687   3.936   0.276  0.00  0.00    +0.076 C 
ATOM     13  C   UNL     1      -3.606   3.312   1.361  0.00  0.00    -0.003 C 
ATOM     14  C   UNL     1      -4.591   4.471   1.643  0.00  0.00    -0.066 C 
ATOM     15  C   UNL     1      -3.312   5.989   2.940  0.00  0.00    -0.077 C 
ATOM     16  C   UNL     1      -4.535   5.609   3.811  0.00  0.00    -0.020 C 
ATOM     17  C   UNL     1      -5.097   4.363   3.091  0.00  0.00    -0.017 C 
ATOM     18  N   UNL     1      -3.768   5.673   1.575  0.00  0.00    +0.394 N 
ATOM     19  H   UNL     1      -4.314   6.455   1.196  0.00  0.00    -0.079 HD
ENDROOT
BRANCH  12  20
ATOM     20  C   UNL     1      -1.323   3.296   0.300  0.00  0.00    +0.220 C 
ATOM     21  O   UNL     1      -0.936   2.730   1.301  0.00  0.00    -0.275 OA
ATOM     22  N   UNL     1      -0.532   3.352  -0.790  0.00  0.00    -0.282 N 
ATOM     23  H   UNL     1      -0.806   3.873  -1.561  0.00  0.00    +0.155 HD
BRANCH  22  24
ATOM     24  C   UNL     1       0.685   2.657  -0.811  0.00  0.00    +0.083 A 
ATOM     25  C   UNL     1       1.546   2.730   0.278  0.00  0.00    +0.148 A 
ATOM     26  C   UNL     1       2.749   2.048   0.253  0.00  0.00    +0.078 A 
ATOM     27  C   UNL     1       3.095   1.293  -0.856  0.00  0.00    +0.127 A 
ATOM     28  C   UNL     1       2.238   1.219  -1.940  0.00  0.00    +0.055 A 
ATOM     29  C   UNL     1       1.034   1.899  -1.920  0.00  0.00    +0.045 A 
ATOM     30 BR   UNL     1      -0.135   1.796  -3.402  0.00  0.00    -0.048 Br
ATOM     31  F   UNL     1       4.271   0.627  -0.878  0.00  0.00    -0.205 F 
ATOM     32  F   UNL     1       1.210   3.467   1.359  0.00  0.00    -0.203 F 
ENDBRANCH  22  24
ENDBRANCH  12  20
TORSDOF 2
