REMARK  Name = ZINC22783454
REMARK  8 active torsions:
REMARK  status: ('A' for Active; 'I' for Inactive)
REMARK    1  A    between atoms: C_1  and  C_2
REMARK    2  A    between atoms: C_2  and  C_3
REMARK    3  A    between atoms: C_8  and  O_33
REMARK    4  A    between atoms: C_9  and  C_11
REMARK    5  A    between atoms: C_11  and  C_13
REMARK    6  A    between atoms: C_11  and  N_20
REMARK    7  A    between atoms: N_23  and  C_26
REMARK    8  A    between atoms: C_26  and  C_27
REMARK                            x       y       z     vdW  Elec       q    Type
REMARK                         _______ _______ _______ _____ _____    ______ ____
ROOT
ATOM      1  C   UNL     1       2.896  -2.477   6.417  0.00  0.00    +0.129 C 
ENDROOT
BRANCH   1   8
ATOM      2  C   UNL     1       1.378   0.089   1.253  0.00  0.00    +0.152 A 
ATOM      3  N   UNL     1       2.662  -0.208   1.440  0.00  0.00    -0.205 NA
ATOM      4  C   UNL     1       2.810  -0.759   2.614  0.00  0.00    +0.199 A 
ATOM      5  N   UNL     1       1.602  -0.837   3.238  0.00  0.00    -0.173 N 
ATOM      6  N   UNL     1       0.696  -0.263   2.309  0.00  0.00    -0.147 NA
ATOM      7  C   UNL     1       1.577  -1.396   4.493  0.00  0.00    +0.228 A 
ATOM      8  C   UNL     1       2.703  -1.839   5.065  0.00  0.00    +0.076 A 
ATOM      9  S   UNL     1       3.916  -1.477   3.805  0.00  0.00    -0.047 S 
BRANCH   2  11
ATOM     10  C   UNL     1       0.833   2.259   0.181  0.00  0.00    +0.012 C 
ATOM     11  C   UNL     1       0.804   0.738   0.019  0.00  0.00    +0.075 C 
ENDBRANCH   2  11
BRANCH   7  12
ATOM     12  O   UNL     1       0.396  -1.498   5.161  0.00  0.00    -0.492 OA
ATOM     13  H   UNL     1      -0.363  -1.153   4.672  0.00  0.00    +0.294 HD
ENDBRANCH   7  12
ENDBRANCH   1   8
BRANCH   1  14
ATOM     14  C   UNL     1       3.344  -3.904   6.240  0.00  0.00    -0.025 A 
ATOM     15  C   UNL     1       4.641  -4.178   5.848  0.00  0.00    +0.006 A 
ATOM     16  C   UNL     1       5.053  -5.487   5.686  0.00  0.00    +0.015 A 
ATOM     17  C   UNL     1       4.167  -6.524   5.916  0.00  0.00    +0.018 A 
ATOM     18  C   UNL     1       2.869  -6.250   6.308  0.00  0.00    +0.015 A 
ATOM     19  C   UNL     1       2.460  -4.941   6.474  0.00  0.00    +0.006 A 
ATOM     20 BR   UNL     1       4.730  -8.316   5.694  0.00  0.00    -0.050 Br
ENDBRANCH   1  14
BRANCH   1  21
ATOM     21  N   UNL     1       3.916  -1.732   7.167  0.00  0.00    -0.295 NA
ATOM     22  C   UNL     1       3.565  -0.308   7.263  0.00  0.00    +0.067 C 
ATOM     23  C   UNL     1       4.679   0.440   7.998  0.00  0.00    -0.063 C 
ATOM     24  N   UNL     1       4.850  -0.131   9.341  0.00  0.00    +0.384 N 
ATOM     25  C   UNL     1       5.224  -1.547   9.228  0.00  0.00    -0.063 C 
ATOM     26  C   UNL     1       4.114  -2.312   8.503  0.00  0.00    +0.067 C 
ATOM     27  H   UNL     1       3.983  -0.052   9.852  0.00  0.00    -0.081 HD
BRANCH  24  28
ATOM     28  C   UNL     1       5.907   0.599  10.053  0.00  0.00    -0.043 C 
BRANCH  28  29
ATOM     29  C   UNL     1       5.998   0.096  11.470  0.00  0.00    -0.064 A 
ATOM     30  C   UNL     1       5.236   0.683  12.463  0.00  0.00    +0.002 A 
ATOM     31  C   UNL     1       5.320   0.221  13.763  0.00  0.00    +0.000 A 
ATOM     32  C   UNL     1       6.165  -0.829  14.070  0.00  0.00    +0.000 A 
ATOM     33  C   UNL     1       6.926  -1.417  13.077  0.00  0.00    +0.000 A 
ATOM     34  C   UNL     1       6.840  -0.957  11.777  0.00  0.00    +0.002 A 
ENDBRANCH  28  29
ENDBRANCH  24  28
ENDBRANCH   1  21
TORSDOF 7
