REMARK  Name = ZINC19622406
REMARK  7 active torsions:
REMARK  status: ('A' for Active; 'I' for Inactive)
REMARK    1  A    between atoms: C_5  and  C_7
REMARK    2  A    between atoms: N_11  and  C_15
REMARK    3  A    between atoms: C_15  and  C_16
REMARK    4  A    between atoms: C_16  and  N_17
REMARK    5  A    between atoms: C_18  and  C_20
REMARK    6  A    between atoms: C_20  and  N_21
REMARK    7  A    between atoms: C_30  and  C_32
REMARK                            x       y       z     vdW  Elec       q    Type
REMARK                         _______ _______ _______ _____ _____    ______ ____
ROOT
ATOM      1  N   UNL     1       0.512  -1.168   0.349  0.00  0.00    -0.312 N 
ATOM      2  C   UNL     1       1.782  -0.750   0.516  0.00  0.00    +0.235 C 
ATOM      3  O   UNL     1       2.676  -1.560   0.637  0.00  0.00    -0.274 OA
ATOM      4  H   UNL     1      -0.299  -0.433   0.239  0.00  0.00    +0.149 HD
ENDROOT
BRANCH   1   5
ATOM      5  C   UNL     1       0.211  -2.602   0.313  0.00  0.00    +0.123 C 
BRANCH   5   6
ATOM      6  C   UNL     1      -1.292  -2.803   0.114  0.00  0.00    +0.136 C 
BRANCH   6  11
ATOM      7  C   UNL     1      -2.491  -7.198   2.077  0.00  0.00    +0.031 C 
ATOM      8  C   UNL     1      -2.171  -6.309   1.104  0.00  0.00    +0.080 C 
ATOM      9  C   UNL     1      -1.877  -4.864   1.207  0.00  0.00    +0.260 C 
ATOM     10  O   UNL     1      -1.896  -4.283   2.276  0.00  0.00    -0.269 OA
ATOM     11  N   UNL     1      -1.593  -4.236   0.079  0.00  0.00    -0.227 N 
ATOM     12  C   UNL     1      -1.579  -4.883  -1.104  0.00  0.00    +0.286 C 
ATOM     13  O   UNL     1      -1.341  -4.433  -2.209  0.00  0.00    -0.262 OA
ATOM     14  S   UNL     1      -1.990  -6.562  -0.657  0.00  0.00    -0.026 S 
BRANCH   7  19
ATOM     15  C   UNL     1      -2.082 -10.480   0.312  0.00  0.00    +0.001 A 
ATOM     16  C   UNL     1      -2.763 -11.331   1.166  0.00  0.00    +0.003 A 
ATOM     17  C   UNL     1      -3.356 -10.842   2.316  0.00  0.00    +0.039 A 
ATOM     18  C   UNL     1      -3.272  -9.497   2.622  0.00  0.00    +0.131 A 
ATOM     19  C   UNL     1      -2.585  -8.630   1.762  0.00  0.00    +0.011 A 
ATOM     20  C   UNL     1      -1.994  -9.135   0.598  0.00  0.00    +0.011 A 
ATOM     21  F   UNL     1      -3.852  -9.020   3.745  0.00  0.00    -0.205 F 
ENDBRANCH   7  19
ENDBRANCH   6  11
ENDBRANCH   5   6
ENDBRANCH   1   5
BRANCH   2  22
ATOM     22  C   UNL     1       2.092   0.725   0.552  0.00  0.00    +0.243 C 
BRANCH  22  23
ATOM     23  N   UNL     1       3.531   0.917   0.743  0.00  0.00    -0.219 N 
ATOM     24  C   UNL     1       4.315   0.997  -0.352  0.00  0.00    +0.275 A 
ATOM     25  O   UNL     1       3.837   0.911  -1.468  0.00  0.00    -0.266 OA
ATOM     26  C   UNL     1       5.760   1.190  -0.166  0.00  0.00    +0.050 A 
ATOM     27  C   UNL     1       6.653   1.286  -1.229  0.00  0.00    +0.014 A 
ATOM     28  C   UNL     1       7.995   1.467  -0.970  0.00  0.00    +0.001 A 
ATOM     29  C   UNL     1       8.460   1.555   0.336  0.00  0.00    +0.001 A 
ATOM     30  C   UNL     1       7.591   1.463   1.402  0.00  0.00    +0.011 A 
ATOM     31  C   UNL     1       6.234   1.279   1.163  0.00  0.00    +0.020 A 
ATOM     32  C   UNL     1       5.241   1.171   2.245  0.00  0.00    +0.153 A 
ATOM     33  N   UNL     1       3.977   1.005   1.939  0.00  0.00    -0.162 NA
BRANCH  32  34
ATOM     34  C   UNL     1       5.663   1.256   3.657  0.00  0.00    +0.262 C 
ATOM     35  O   UNL     1       6.836   1.416   3.932  0.00  0.00    -0.269 OA
ATOM     36  N   UNL     1       4.747   1.157   4.641  0.00  0.00    -0.324 N 
ATOM     37  H   UNL     1       5.062   1.220   5.693  0.00  0.00    +0.145 HD
ATOM     38  H   UNL     1       3.686   1.012   4.392  0.00  0.00    +0.145 HD
ENDBRANCH  32  34
ENDBRANCH  22  23
ENDBRANCH   2  22
TORSDOF 7
