REMARK  Name = ZINC51036225
REMARK  6 active torsions:
REMARK  status: ('A' for Active; 'I' for Inactive)
REMARK    1  A    between atoms: C_1  and  C_2
REMARK    2  A    between atoms: C_2  and  C_4
REMARK    3  A    between atoms: C_2  and  N_24
REMARK    4  A    between atoms: C_4  and  C_6
REMARK    5  A    between atoms: C_4  and  S_13
REMARK    6  A    between atoms: S_13  and  C_14
REMARK                            x       y       z     vdW  Elec       q    Type
REMARK                         _______ _______ _______ _____ _____    ______ ____
ROOT
ATOM      1  C   UNL     1      -1.422  -0.544   0.147  0.00  0.00    +0.069 C 
ENDROOT
BRANCH   1   2
ATOM      2  C   UNL     1      -1.211  -1.999   0.481  0.00  0.00    -0.022 A 
ATOM      3  C   UNL     1      -1.136  -2.401   1.801  0.00  0.00    +0.006 A 
ATOM      4  C   UNL     1      -0.942  -3.735   2.107  0.00  0.00    +0.000 A 
ATOM      5  C   UNL     1      -0.824  -4.667   1.093  0.00  0.00    +0.001 A 
ATOM      6  C   UNL     1      -0.899  -4.266  -0.227  0.00  0.00    +0.015 A 
ATOM      7  C   UNL     1      -1.097  -2.932  -0.534  0.00  0.00    +0.022 A 
ATOM      8 BR   UNL     1      -1.207  -2.383  -2.340  0.00  0.00    -0.050 Br
ENDBRANCH   1   2
BRANCH   1  10
ATOM      9  C   UNL     1      -0.286   1.590  -0.481  0.00  0.00    -0.013 C 
ATOM     10  C   UNL     1      -0.069   0.121  -0.114  0.00  0.00    -0.060 C 
BRANCH  10  11
ATOM     11  N   UNL     1       0.761   0.035   1.095  0.00  0.00    +0.381 N 
ATOM     12  H   UNL     1       0.296   0.506   1.856  0.00  0.00    -0.090 HD
ATOM     13  H   UNL     1       0.903  -0.934   1.336  0.00  0.00    -0.090 HD
ATOM     14  H   UNL     1       1.653   0.473   0.922  0.00  0.00    -0.090 HD
ENDBRANCH  10  11
ENDBRANCH   1  10
BRANCH   1  15
ATOM     15  S   UNL     1      -2.243   0.282   1.538  0.00  0.00    -0.097 S 
BRANCH  15  16
ATOM     16  C   UNL     1      -3.856  -0.427   1.562  0.00  0.00    +0.126 A 
ATOM     17  C   UNL     1      -4.760  -0.110   2.579  0.00  0.00    +0.117 A 
ATOM     18  C   UNL     1      -6.034  -0.700   2.555  0.00  0.00    +0.182 A 
ATOM     19  N   UNL     1      -6.700  -0.236   3.629  0.00  0.00    -0.216 NA
ATOM     20  H   UNL     1      -3.990   1.243   3.995  0.00  0.00    +0.167 HD
ATOM     21  C   UNL     1      -5.939   0.583   4.300  0.00  0.00    +0.199 A 
ATOM     22  N   UNL     1      -4.734   0.696   3.697  0.00  0.00    -0.341 N 
ATOM     23  N   UNL     1      -6.332  -1.542   1.559  0.00  0.00    -0.214 NA
ATOM     24  C   UNL     1      -5.449  -1.810   0.623  0.00  0.00    +0.224 A 
ATOM     25  N   UNL     1      -4.243  -1.271   0.609  0.00  0.00    -0.227 NA
ENDBRANCH  15  16
ENDBRANCH   1  15
TORSDOF 5
