REMARK  Name = ZINC04362748
REMARK  5 active torsions:
REMARK  status: ('A' for Active; 'I' for Inactive)
REMARK    1  A    between atoms: C_4  and  C_7
REMARK    2  A    between atoms: C_8  and  C_9
REMARK    3  A    between atoms: C_11  and  C_14
REMARK    4  A    between atoms: N_15  and  N_16
REMARK    5  A    between atoms: N_16  and  C_17
REMARK                            x       y       z     vdW  Elec       q    Type
REMARK                         _______ _______ _______ _____ _____    ______ ____
ROOT
ATOM      1  C   UNL     1       5.923   2.229  -0.042  0.00  0.00    +0.033 A 
ATOM      2  C   UNL     1       4.871   1.321  -0.032  0.00  0.00    +0.034 A 
ATOM      3  C   UNL     1       3.588   1.799  -0.022  0.00  0.00    +0.033 A 
ATOM      4  S   UNL     1       3.837   3.566  -0.015  0.00  0.00    -0.094 S 
ATOM      5  C   UNL     1       5.622   3.579  -0.032  0.00  0.00    +0.062 A 
ENDROOT
BRANCH   1   7
ATOM      6  C   UNL     1       8.397   1.410  -0.069  0.00  0.00    -0.061 C 
ATOM      7  C   UNL     1       7.282   1.779  -0.057  0.00  0.00    -0.060 C 
BRANCH   6  11
ATOM      8  C   UNL     1      12.386   0.090  -0.112  0.00  0.00    +0.000 A 
ATOM      9  C   UNL     1      11.355  -0.834  -0.109  0.00  0.00    +0.001 A 
ATOM     10  C   UNL     1      10.043  -0.408  -0.094  0.00  0.00    +0.017 A 
ATOM     11  C   UNL     1       9.756   0.960  -0.084  0.00  0.00    +0.025 A 
ATOM     12  C   UNL     1      10.802   1.887  -0.094  0.00  0.00    +0.017 A 
ATOM     13  C   UNL     1      12.109   1.446  -0.101  0.00  0.00    +0.001 A 
ENDBRANCH   6  11
ENDBRANCH   1   7
BRANCH   3  14
ATOM     14  C   UNL     1       2.328   1.048  -0.015  0.00  0.00    +0.145 C 
ATOM     15  N   UNL     1       1.193   1.683  -0.000  0.00  0.00    -0.189 NA
BRANCH  15  16
ATOM     16  N   UNL     1      -0.011   0.966   0.007  0.00  0.00    -0.235 N 
ATOM     17  H   UNL     1       0.002  -0.004   0.002  0.00  0.00    +0.174 HD
BRANCH  16  18
ATOM     18  C   UNL     1      -1.230   1.648   0.017  0.00  0.00    +0.085 A 
ATOM     19  C   UNL     1      -1.270   2.999   0.341  0.00  0.00    +0.066 A 
ATOM     20  C   UNL     1      -2.477   3.671   0.346  0.00  0.00    +0.042 A 
ATOM     21  C   UNL     1      -3.647   2.999   0.037  0.00  0.00    +0.044 A 
ATOM     22  C   UNL     1      -3.611   1.653  -0.282  0.00  0.00    +0.042 A 
ATOM     23  C   UNL     1      -2.407   0.975  -0.293  0.00  0.00    +0.066 A 
ATOM     24 CL   UNL     1      -2.364  -0.714  -0.693  0.00  0.00    -0.081 Cl
ATOM     25 CL   UNL     1      -5.162   3.846   0.050  0.00  0.00    -0.083 Cl
ATOM     26 CL   UNL     1       0.196   3.842   0.735  0.00  0.00    -0.081 Cl
ENDBRANCH  16  18
ENDBRANCH  15  16
ENDBRANCH   3  14
TORSDOF 5
