REMARK  Name = ZINC51638263
REMARK  5 active torsions:
REMARK  status: ('A' for Active; 'I' for Inactive)
REMARK    1  A    between atoms: C_3  and  S_6
REMARK    2  A    between atoms: S_6  and  N_9
REMARK    3  A    between atoms: N_9  and  C_10
REMARK    4  A    between atoms: C_14  and  C_16
REMARK    5  A    between atoms: N_17  and  O_18
REMARK                            x       y       z     vdW  Elec       q    Type
REMARK                         _______ _______ _______ _____ _____    ______ ____
ROOT
ATOM      1  C   UNL     1       5.517   2.116   2.187  0.00  0.00    +0.075 A 
ATOM      2  C   UNL     1       6.270   2.359   1.044  0.00  0.00    +0.029 A 
ATOM      3  C   UNL     1       7.538   2.896   1.148  0.00  0.00    +0.041 A 
ATOM      4  C   UNL     1       8.068   3.195   2.391  0.00  0.00    +0.134 A 
ATOM      5  C   UNL     1       7.318   2.954   3.544  0.00  0.00    +0.055 A 
ATOM      6  C   UNL     1       6.035   2.417   3.437  0.00  0.00    +0.041 A 
ATOM      7  F   UNL     1       9.309   3.719   2.489  0.00  0.00    -0.205 F 
ENDROOT
BRANCH   5   8
ATOM      8  C   UNL     1       7.880   3.272   4.875  0.00  0.00    +0.165 C 
ATOM      9  N   UNL     1       7.239   4.070   5.678  0.00  0.00    -0.071 NA
ATOM     10  N   UNL     1       9.089   2.721   5.266  0.00  0.00    -0.340 N 
ATOM     11  H   UNL     1       9.566   2.126   4.668  0.00  0.00    +0.144 HD
ATOM     12  H   UNL     1       9.457   2.930   6.139  0.00  0.00    +0.144 HD
BRANCH   9  13
ATOM     13  O   UNL     1       6.065   4.726   5.237  0.00  0.00    -0.408 OA
ATOM     14  H   UNL     1       5.659   5.298   5.903  0.00  0.00    +0.328 HD
ENDBRANCH   9  13
ENDBRANCH   5   8
BRANCH   1  15
ATOM     15  N   UNL     1       4.233   1.573   2.076  0.00  0.00    -0.097 NA
BRANCH  15  16
ATOM     16  S   UNL     1       3.613   1.214   0.583  0.00  0.00    +0.098 S 
ATOM     17  O   UNL     1       4.404   0.156   0.059  0.00  0.00    -0.148 OA
ATOM     18  O   UNL     1       3.447   2.450  -0.096  0.00  0.00    -0.148 OA
BRANCH  16  21
ATOM     19  C   UNL     1      -0.346   0.479   1.100  0.00  0.00    +0.010 A 
ATOM     20  C   UNL     1       0.810   1.208   0.891  0.00  0.00    +0.037 A 
ATOM     21  C   UNL     1       1.997   0.557   0.835  0.00  0.00    +0.148 A 
ATOM     22  S   UNL     1       1.499  -1.140   1.081  0.00  0.00    -0.077 S 
ATOM     23  C   UNL     1      -0.258  -0.866   1.242  0.00  0.00    +0.047 A 
ENDBRANCH  16  21
ENDBRANCH  15  16
ENDBRANCH   1  15
TORSDOF 5
