REMARK  Name = ZINC33674335
REMARK  14 active torsions:
REMARK  status: ('A' for Active; 'I' for Inactive)
REMARK    1  A    between atoms: C_1  and  C_2
REMARK    2  A    between atoms: C_5  and  N_8
REMARK    3  A    between atoms: N_11  and  C_12
REMARK    4  A    between atoms: C_12  and  C_13
REMARK    5  A    between atoms: C_13  and  N_14
REMARK    6  A    between atoms: N_14  and  C_15
REMARK    7  A    between atoms: C_15  and  C_16
REMARK    8  A    between atoms: C_16  and  O_17
REMARK    9  A    between atoms: O_17  and  C_18
REMARK   10  A    between atoms: C_25  and  C_29
REMARK   11  A    between atoms: C_26  and  C_27
REMARK   12  A    between atoms: C_26  and  C_28
REMARK   13  A    between atoms: N_32  and  C_33
REMARK   14  A    between atoms: C_36  and  C_39
REMARK                            x       y       z     vdW  Elec       q    Type
REMARK                         _______ _______ _______ _____ _____    ______ ____
ROOT
ATOM      1  N   UNL     1       5.173   1.783  -0.470  0.00  0.00    -0.282 N 
ATOM      2  C   UNL     1       5.898   1.921  -1.597  0.00  0.00    +0.307 C 
ATOM      3  O   UNL     1       6.926   1.288  -1.740  0.00  0.00    -0.252 OA
ATOM      4  N   UNL     1       5.484   2.762  -2.566  0.00  0.00    -0.269 N 
ATOM      5  H   UNL     1       4.595   3.390  -2.407  0.00  0.00    +0.156 HD
ENDROOT
BRANCH   4   6
ATOM      6  C   UNL     1       6.186   2.836  -3.775  0.00  0.00    +0.035 A 
ATOM      7  C   UNL     1       7.568   2.710  -3.786  0.00  0.00    +0.023 A 
ATOM      8  C   UNL     1       8.257   2.778  -4.981  0.00  0.00    +0.005 A 
ATOM      9  C   UNL     1       7.572   2.983  -6.165  0.00  0.00    -0.050 A 
ATOM     10  C   UNL     1       6.196   3.114  -6.156  0.00  0.00    +0.005 A 
ATOM     11  C   UNL     1       5.500   3.041  -4.965  0.00  0.00    +0.023 A 
ATOM     12  C   UNL     1       8.327   3.062  -7.466  0.00  0.00    +0.044 C 
ENDBRANCH   4   6
BRANCH   1  13
ATOM     13  C   UNL     1       3.934   2.546  -0.298  0.00  0.00    +0.128 C 
BRANCH  13  14
ATOM     14  C   UNL     1       2.757   1.739  -0.850  0.00  0.00    +0.124 C 
BRANCH  14  18
ATOM     15  N   UNL     1      -0.794   2.689  -0.940  0.00  0.00    -0.269 N 
ATOM     16  C   UNL     1       0.345   1.985  -1.093  0.00  0.00    +0.304 C 
ATOM     17  O   UNL     1       0.315   0.885  -1.611  0.00  0.00    -0.253 OA
ATOM     18  N   UNL     1       1.518   2.502  -0.677  0.00  0.00    -0.298 N 
ATOM     19  H   UNL     1      -0.778   3.651  -0.405  0.00  0.00    +0.156 HD
ATOM     20  H   UNL     1       1.546   3.497  -0.209  0.00  0.00    +0.150 HD
BRANCH  15  25
ATOM     21  C   UNL     1      -5.668   0.697  -3.051  0.00  0.00    +0.044 C 
ATOM     22  C   UNL     1      -4.373   1.226  -2.490  0.00  0.00    -0.050 A 
ATOM     23  C   UNL     1      -3.440   0.351  -1.966  0.00  0.00    +0.005 A 
ATOM     24  C   UNL     1      -2.252   0.833  -1.452  0.00  0.00    +0.023 A 
ATOM     25  C   UNL     1      -1.996   2.198  -1.461  0.00  0.00    +0.035 A 
ATOM     26  C   UNL     1      -2.938   3.075  -1.984  0.00  0.00    +0.023 A 
ATOM     27  C   UNL     1      -4.121   2.586  -2.502  0.00  0.00    +0.005 A 
ENDBRANCH  15  25
ENDBRANCH  14  18
ENDBRANCH  13  14
ENDBRANCH   1  13
BRANCH   1  28
ATOM     28  C   UNL     1       5.622   0.869   0.584  0.00  0.00    +0.137 C 
BRANCH  28  29
ATOM     29  C   UNL     1       5.033  -0.521   0.338  0.00  0.00    +0.179 C 
BRANCH  29  30
ATOM     30  O   UNL     1       5.563  -1.055  -0.877  0.00  0.00    -0.374 OA
BRANCH  30  31
ATOM     31  C   UNL     1       5.074  -2.358  -1.200  0.00  0.00    +0.125 C 
ATOM     32  C   UNL     1       6.049  -3.443  -0.687  0.00  0.00    +0.036 C 
ATOM     33  C   UNL     1       6.513  -4.195  -1.971  0.00  0.00    -0.002 C 
ATOM     34  C   UNL     1       5.265  -4.998  -2.449  0.00  0.00    +0.005 C 
ATOM     35  C   UNL     1       4.278  -3.903  -2.950  0.00  0.00    +0.010 C 
ATOM     36  C   UNL     1       5.041  -2.558  -2.747  0.00  0.00    -0.000 C 
ATOM     37  C   UNL     1       6.518  -3.020  -3.011  0.00  0.00    -0.024 C 
ATOM     38  C   UNL     1       6.715  -3.521  -4.443  0.00  0.00    +0.012 C 
ATOM     39  C   UNL     1       7.532  -1.934  -2.645  0.00  0.00    +0.012 C 
ATOM     40  C   UNL     1       4.550  -1.363  -3.565  0.00  0.00    +0.014 C 
ENDBRANCH  30  31
ENDBRANCH  29  30
ENDBRANCH  28  29
ENDBRANCH   1  28
TORSDOF 9
