REMARK  Name = ZINC16942283
REMARK  10 active torsions:
REMARK  status: ('A' for Active; 'I' for Inactive)
REMARK    1  A    between atoms: C_1  and  O_2
REMARK    2  A    between atoms: O_2  and  C_3
REMARK    3  A    between atoms: C_3  and  C_5
REMARK    4  A    between atoms: C_8  and  N_11
REMARK    5  A    between atoms: N_11  and  C_12
REMARK    6  A    between atoms: C_12  and  N_14
REMARK    7  A    between atoms: C_15  and  C_27
REMARK    8  A    between atoms: N_16  and  C_17
REMARK    9  A    between atoms: C_17  and  S_18
REMARK   10  A    between atoms: S_18  and  C_21
REMARK                            x       y       z     vdW  Elec       q    Type
REMARK                         _______ _______ _______ _____ _____    ______ ____
ROOT
ATOM      1  N   UNL     1      -2.860  -8.248   0.094  0.00  0.00    -0.285 N 
ATOM      2  C   UNL     1      -4.062  -8.749  -0.122  0.00  0.00    +0.098 C 
ATOM      3  N   UNL     1      -4.206 -10.077  -0.419  0.00  0.00    -0.313 N 
ATOM      4  H   UNL     1      -5.089 -10.445  -0.579  0.00  0.00    +0.149 HD
ATOM      5  H   UNL     1      -2.081  -8.825   0.066  0.00  0.00    +0.155 HD
ENDROOT
BRANCH   2   6
ATOM      6  C   UNL     1      -5.251  -7.877  -0.045  0.00  0.00    +0.011 A 
ATOM      7  C   UNL     1      -5.227  -6.606  -0.623  0.00  0.00    +0.011 A 
ATOM      8  C   UNL     1      -6.342  -5.797  -0.547  0.00  0.00    +0.001 A 
ATOM      9  C   UNL     1      -7.481  -6.242   0.101  0.00  0.00    +0.000 A 
ATOM     10  C   UNL     1      -7.511  -7.500   0.676  0.00  0.00    +0.001 A 
ATOM     11  C   UNL     1      -6.406  -8.322   0.603  0.00  0.00    +0.011 A 
ENDBRANCH   2   6
BRANCH   1  12
ATOM     12  C   UNL     1      -2.715  -6.939   0.355  0.00  0.00    +0.140 C 
ATOM     13  S   UNL     1      -2.041  -5.901  -0.827  0.00  0.00    -0.018 S 
BRANCH  12  14
ATOM     14  N   UNL     1      -3.102  -6.443   1.547  0.00  0.00    -0.297 N 
ATOM     15  H   UNL     1      -3.427  -7.040   2.238  0.00  0.00    +0.154 HD
BRANCH  14  19
ATOM     16  C   UNL     1      -2.896  -2.346   2.262  0.00  0.00    +0.059 A 
ATOM     17  C   UNL     1      -4.042  -3.063   2.619  0.00  0.00    +0.017 A 
ATOM     18  C   UNL     1      -4.107  -4.417   2.381  0.00  0.00    +0.024 A 
ATOM     19  C   UNL     1      -3.033  -5.073   1.786  0.00  0.00    +0.033 A 
ATOM     20  C   UNL     1      -1.891  -4.362   1.429  0.00  0.00    +0.024 A 
ATOM     21  C   UNL     1      -1.822  -3.007   1.658  0.00  0.00    +0.017 A 
BRANCH  16  22
ATOM     22  C   UNL     1      -2.823  -0.896   2.516  0.00  0.00    +0.339 C 
ATOM     23  O   UNL     1      -1.829  -0.273   2.200  0.00  0.00    -0.245 OA
BRANCH  22  25
ATOM     24  C   UNL     1      -3.720   1.145   3.313  0.00  0.00    +0.280 C 
ATOM     25  O   UNL     1      -3.860  -0.261   3.098  0.00  0.00    -0.464 OA
ENDBRANCH  22  25
ENDBRANCH  16  22
ENDBRANCH  14  19
ENDBRANCH  12  14
ENDBRANCH   1  12
BRANCH   3  26
ATOM     26  C   UNL     1      -3.026 -10.942  -0.497  0.00  0.00    +0.276 C 
BRANCH  26  27
ATOM     27  S   UNL     1      -2.778 -11.771   1.098  0.00  0.00    +0.013 S 
ATOM     28  O   UNL     1      -1.675 -12.662   1.020  0.00  0.00    -0.168 OA
ATOM     29  O   UNL     1      -2.876 -10.830   2.159  0.00  0.00    -0.168 OA
BRANCH  27  30
ATOM     30  C   UNL     1      -4.186 -12.813   1.291  0.00  0.00    +0.090 A 
ATOM     31  C   UNL     1      -5.322 -12.332   1.913  0.00  0.00    +0.027 A 
ATOM     32  C   UNL     1      -6.427 -13.149   2.064  0.00  0.00    +0.002 A 
ATOM     33  C   UNL     1      -6.394 -14.448   1.593  0.00  0.00    +0.000 A 
ATOM     34  C   UNL     1      -5.258 -14.930   0.969  0.00  0.00    +0.002 A 
ATOM     35  C   UNL     1      -4.155 -14.110   0.814  0.00  0.00    +0.027 A 
ENDBRANCH  27  30
ENDBRANCH  26  27
ENDBRANCH   3  26
TORSDOF 9
