REMARK  Name = ZINC39672278
REMARK  7 active torsions:
REMARK  status: ('A' for Active; 'I' for Inactive)
REMARK    1  A    between atoms: C_1  and  C_2
REMARK    2  A    between atoms: C_5  and  C_9
REMARK    3  A    between atoms: C_6  and  C_8
REMARK    4  A    between atoms: C_13  and  C_22
REMARK    5  A    between atoms: N_24  and  C_25
REMARK    6  A    between atoms: C_25  and  C_26
REMARK    7  A    between atoms: N_35  and  C_36
REMARK                            x       y       z     vdW  Elec       q    Type
REMARK                         _______ _______ _______ _____ _____    ______ ____
ROOT
ATOM      1  C   UNL     1       0.013  -4.324   0.110  0.00  0.00    +0.247 C 
ATOM      2  O   UNL     1       0.189  -4.888   1.173  0.00  0.00    -0.270 OA
ATOM      3  N   UNL     1      -0.124  -5.046  -1.021  0.00  0.00    -0.296 N 
ATOM      4  C   UNL     1      -0.241  -4.544  -2.410  0.00  0.00    +0.121 C 
ATOM      5  C   UNL     1       0.592  -5.534  -3.254  0.00  0.00    +0.100 C 
ATOM      6  C   UNL     1       0.620  -6.829  -2.426  0.00  0.00    -0.004 C 
ATOM      7  C   UNL     1      -0.184  -6.521  -1.155  0.00  0.00    +0.115 C 
ATOM      8  C   UNL     1       2.056  -7.191  -2.059  0.00  0.00    -0.010 C 
ATOM      9  C   UNL     1       2.062  -8.513  -1.286  0.00  0.00    -0.082 C 
ATOM     10  N   UNL     1       1.466  -9.569  -2.113  0.00  0.00    +0.379 N 
ATOM     11  C   UNL     1       0.057  -9.258  -2.384  0.00  0.00    -0.082 C 
ATOM     12  C   UNL     1      -0.034  -7.968  -3.204  0.00  0.00    -0.010 C 
ATOM     13  H   UNL     1       1.968  -9.635  -2.985  0.00  0.00    -0.086 HD
ATOM     14  H   UNL     1       1.527 -10.450  -1.625  0.00  0.00    -0.086 HD
ENDROOT
BRANCH   1  19
ATOM     15  C   UNL     1      -0.234   1.421  -0.097  0.00  0.00    +0.044 C 
ATOM     16  C   UNL     1      -0.170  -0.084  -0.043  0.00  0.00    -0.050 A 
ATOM     17  C   UNL     1       0.683  -0.767  -0.891  0.00  0.00    +0.004 A 
ATOM     18  C   UNL     1       0.748  -2.144  -0.847  0.00  0.00    +0.013 A 
ATOM     19  C   UNL     1      -0.050  -2.848   0.057  0.00  0.00    +0.040 A 
ATOM     20  C   UNL     1      -0.908  -2.153   0.910  0.00  0.00    -0.038 A 
ATOM     21  C   UNL     1      -0.959  -0.775   0.859  0.00  0.00    +0.007 A 
ATOM     22  C   UNL     1      -1.774  -2.905   1.888  0.00  0.00    +0.044 C 
ENDBRANCH   1  19
BRANCH   5  23
ATOM     23  C   UNL     1      -0.070  -5.774  -4.587  0.00  0.00    +0.218 C 
ATOM     24  O   UNL     1      -1.279  -5.760  -4.674  0.00  0.00    -0.275 OA
ATOM     25  N   UNL     1       0.682  -6.003  -5.681  0.00  0.00    -0.311 N 
ATOM     26  H   UNL     1       1.650  -6.014  -5.612  0.00  0.00    +0.149 HD
BRANCH  25  27
ATOM     27  C   UNL     1       0.039  -6.236  -6.976  0.00  0.00    +0.139 C 
BRANCH  27  28
ATOM     28  C   UNL     1       1.094  -6.465  -8.028  0.00  0.00    -0.030 A 
ATOM     29  C   UNL     1       1.610  -5.392  -8.732  0.00  0.00    +0.007 A 
ATOM     30  C   UNL     1       2.576  -5.602  -9.696  0.00  0.00    +0.024 A 
ATOM     31  C   UNL     1       3.029  -6.891  -9.958  0.00  0.00    +0.033 A 
ATOM     32  C   UNL     1       2.513  -7.965  -9.250  0.00  0.00    -0.026 A 
ATOM     33  C   UNL     1       1.547  -7.745  -8.282  0.00  0.00    +0.010 A 
ATOM     34  C   UNL     1       2.987  -9.372  -9.499  0.00  0.00    +0.038 C 
ATOM     35  C   UNL     1       3.639  -9.481 -10.877  0.00  0.00    +0.024 C 
ATOM     36  C   UNL     1       4.696  -8.377 -11.015  0.00  0.00    +0.105 C 
ATOM     37  N   UNL     1       4.004  -7.082 -10.942  0.00  0.00    -0.333 N 
ATOM     38  C   UNL     1       4.331  -6.010 -11.886  0.00  0.00    +0.129 C 
ENDBRANCH  27  28
ENDBRANCH  25  27
ENDBRANCH   5  23
TORSDOF 4
