REMARK  Name = ZINC44712487
REMARK  8 active torsions:
REMARK  status: ('A' for Active; 'I' for Inactive)
REMARK    1  A    between atoms: C_1  and  C_2
REMARK    2  A    between atoms: C_7  and  O_8
REMARK    3  A    between atoms: O_8  and  S_9
REMARK    4  A    between atoms: S_9  and  C_12
REMARK    5  A    between atoms: C_15  and  O_18
REMARK    6  A    between atoms: O_18  and  C_19
REMARK    7  A    between atoms: C_21  and  O_36
REMARK    8  A    between atoms: C_24  and  N_25
REMARK                            x       y       z     vdW  Elec       q    Type
REMARK                         _______ _______ _______ _____ _____    ______ ____
ROOT
ATOM      1  C   UNL     1      -4.268  -4.730   6.219  0.00  0.00    +0.153 A 
ATOM      2  C   UNL     1      -4.782  -3.505   6.594  0.00  0.00    +0.094 A 
ATOM      3  C   UNL     1      -5.887  -3.431   7.437  0.00  0.00    +0.132 A 
ATOM      4  C   UNL     1      -6.486  -4.603   7.911  0.00  0.00    +0.076 A 
ATOM      5  C   UNL     1      -5.964  -5.859   7.531  0.00  0.00    +0.061 A 
ATOM      6  C   UNL     1      -4.858  -5.919   6.680  0.00  0.00    +0.079 A 
ATOM      7  C   UNL     1      -6.588  -7.096   8.025  0.00  0.00    +0.197 C 
ATOM      8  O   UNL     1      -6.138  -8.178   7.698  0.00  0.00    -0.287 OA
ATOM      9  C   UNL     1      -7.761  -7.022   8.921  0.00  0.00    +0.033 A 
ATOM     10  C   UNL     1      -8.357  -8.188   9.395  0.00  0.00    +0.012 A 
ATOM     11  C   UNL     1      -9.454  -8.109  10.233  0.00  0.00    +0.001 A 
ATOM     12  C   UNL     1      -9.965  -6.878  10.605  0.00  0.00    +0.001 A 
ATOM     13  C   UNL     1      -9.385  -5.710  10.143  0.00  0.00    +0.012 A 
ATOM     14  C   UNL     1      -8.279  -5.771   9.299  0.00  0.00    +0.033 A 
ATOM     15  C   UNL     1      -7.652  -4.529   8.802  0.00  0.00    +0.198 C 
ATOM     16  O   UNL     1      -8.101  -3.447   9.130  0.00  0.00    -0.286 OA
ENDROOT
BRANCH   6  17
ATOM     17  N   UNL     1      -4.342  -7.147   6.295  0.00  0.00    -0.355 N 
ATOM     18  H   UNL     1      -3.410  -7.222   6.036  0.00  0.00    +0.142 HD
ATOM     19  H   UNL     1      -4.912  -7.931   6.285  0.00  0.00    +0.142 HD
ENDBRANCH   6  17
BRANCH   3  20
ATOM     20  O   UNL     1      -6.383  -2.222   7.799  0.00  0.00    -0.506 OA
ATOM     21  H   UNL     1      -7.063  -1.881   7.202  0.00  0.00    +0.292 HD
ENDBRANCH   3  20
BRANCH   1  22
ATOM     22  O   UNL     1      -3.190  -4.787   5.397  0.00  0.00    -0.454 OA
BRANCH  22  26
ATOM     23  C   UNL     1      -1.402  -1.234   4.301  0.00  0.00    +0.128 A 
ATOM     24  C   UNL     1      -2.232  -1.892   3.412  0.00  0.00    +0.034 A 
ATOM     25  C   UNL     1      -2.831  -3.082   3.776  0.00  0.00    +0.048 A 
ATOM     26  C   UNL     1      -2.601  -3.617   5.036  0.00  0.00    +0.129 A 
ATOM     27  C   UNL     1      -1.768  -2.954   5.926  0.00  0.00    +0.048 A 
ATOM     28  C   UNL     1      -1.167  -1.767   5.555  0.00  0.00    +0.034 A 
BRANCH  23  29
ATOM     29  S   UNL     1      -0.638   0.283   3.833  0.00  0.00    +0.151 S 
ATOM     30  O   UNL     1      -0.338   0.975   5.037  0.00  0.00    -0.131 OA
ATOM     31  O   UNL     1      -1.449   0.848   2.812  0.00  0.00    -0.131 OA
BRANCH  29  32
ATOM     32  O   UNL     1       0.695  -0.065   3.187  0.00  0.00    -0.342 OA
BRANCH  32  39
ATOM     33  C   UNL     1       0.742   1.778   1.046  0.00  0.00    +0.047 C 
ATOM     34  C   UNL     1       0.603   0.292   0.837  0.00  0.00    -0.006 A 
ATOM     35  C   UNL     1       0.497  -0.219  -0.443  0.00  0.00    +0.007 A 
ATOM     36  C   UNL     1       0.368  -1.582  -0.635  0.00  0.00    +0.000 A 
ATOM     37  C   UNL     1       0.345  -2.437   0.452  0.00  0.00    +0.004 A 
ATOM     38  C   UNL     1       0.451  -1.931   1.732  0.00  0.00    +0.049 A 
ATOM     39  C   UNL     1       0.585  -0.564   1.928  0.00  0.00    +0.160 A 
ENDBRANCH  32  39
ENDBRANCH  29  32
ENDBRANCH  23  29
ENDBRANCH  22  26
ENDBRANCH   1  22
TORSDOF 7
