REMARK  Name = ZINC19113265
REMARK  13 active torsions:
REMARK  status: ('A' for Active; 'I' for Inactive)
REMARK    1  A    between atoms: C_1  and  C_2
REMARK    2  A    between atoms: C_2  and  N_3
REMARK    3  A    between atoms: C_4  and  C_24
REMARK    4  A    between atoms: C_6  and  C_13
REMARK    5  A    between atoms: C_9  and  C_10
REMARK    6  A    between atoms: C_9  and  C_11
REMARK    7  A    between atoms: C_11  and  O_12
REMARK    8  A    between atoms: C_13  and  N_14
REMARK    9  A    between atoms: N_14  and  C_15
REMARK   10  A    between atoms: C_15  and  C_16
REMARK   11  A    between atoms: C_19  and  C_21
REMARK   12  A    between atoms: C_21  and  O_22
REMARK   13  A    between atoms: O_22  and  C_23
REMARK                            x       y       z     vdW  Elec       q    Type
REMARK                         _______ _______ _______ _____ _____    ______ ____
ROOT
ATOM      1  N   UNL     1       0.713  -0.491   1.192  0.00  0.00    -0.288 NA
ATOM      2  C   UNL     1       2.153  -0.185   1.110  0.00  0.00    +0.089 C 
ATOM      3  C   UNL     1       2.912  -1.522   1.243  0.00  0.00    -0.005 C 
ATOM      4  C   UNL     1       1.886  -2.437   1.962  0.00  0.00    +0.028 C 
ATOM      5  C   UNL     1       0.549  -1.952   1.346  0.00  0.00    +0.043 C 
ATOM      6  C   UNL     1       0.322  -2.609  -0.017  0.00  0.00    +0.030 C 
ENDROOT
BRANCH   2   7
ATOM      7  C   UNL     1       2.544   0.745   2.229  0.00  0.00    -0.030 A 
ATOM      8  C   UNL     1       1.993   0.584   3.486  0.00  0.00    +0.006 A 
ATOM      9  C   UNL     1       2.352   1.437   4.513  0.00  0.00    +0.020 A 
ATOM     10  C   UNL     1       3.263   2.452   4.282  0.00  0.00    +0.041 A 
ATOM     11  C   UNL     1       3.814   2.613   3.023  0.00  0.00    +0.020 A 
ATOM     12  C   UNL     1       3.459   1.756   1.999  0.00  0.00    +0.006 A 
ATOM     13 CL   UNL     1       3.713   3.524   5.571  0.00  0.00    -0.084 Cl
ENDBRANCH   2   7
BRANCH   1  15
ATOM     14  C   UNL     1      -0.019   1.526   0.010  0.00  0.00    +0.020 C 
ATOM     15  C   UNL     1       0.002  -0.004   0.002  0.00  0.00    +0.082 C 
ENDBRANCH   1  15
BRANCH   5  16
ATOM     16  C   UNL     1      -0.615  -2.262   2.289  0.00  0.00    +0.177 C 
BRANCH  16  17
ATOM     17  O   UNL     1      -0.755  -3.678   2.423  0.00  0.00    -0.393 OA
ATOM     18  H   UNL     1      -1.476  -3.947   3.008  0.00  0.00    +0.209 HD
ENDBRANCH  16  17
ENDBRANCH   5  16
BRANCH   3  19
ATOM     19  C   UNL     1       4.173  -1.345   2.092  0.00  0.00    -0.077 C 
BRANCH  19  20
ATOM     20  N   UNL     1       4.936  -2.600   2.103  0.00  0.00    +0.384 N 
ATOM     21  H   UNL     1       4.367  -3.336   2.494  0.00  0.00    -0.085 HD
ATOM     22  H   UNL     1       5.197  -2.843   1.159  0.00  0.00    -0.085 HD
BRANCH  20  23
ATOM     23  C   UNL     1       6.146  -2.431   2.918  0.00  0.00    -0.007 C 
BRANCH  23  24
ATOM     24  C   UNL     1       6.928  -3.719   2.929  0.00  0.00    +0.089 A 
ATOM     25  C   UNL     1       7.891  -4.062   2.054  0.00  0.00    +0.043 A 
ATOM     26  C   UNL     1       8.352  -5.343   2.434  0.00  0.00    +0.047 A 
ATOM     27  C   UNL     1       7.645  -5.706   3.519  0.00  0.00    +0.131 A 
ATOM     28  O   UNL     1       6.788  -4.716   3.818  0.00  0.00    -0.464 OA
BRANCH  27  29
ATOM     29  C   UNL     1       7.792  -7.001   4.275  0.00  0.00    +0.233 C 
BRANCH  29  30
ATOM     30  O   UNL     1       8.766  -6.842   5.309  0.00  0.00    -0.375 OA
ATOM     31  C   UNL     1       8.983  -8.019   6.090  0.00  0.00    +0.194 C 
ENDBRANCH  29  30
ENDBRANCH  27  29
ENDBRANCH  23  24
ENDBRANCH  20  23
ENDBRANCH  19  20
ENDBRANCH   3  19
TORSDOF 10
