REMARK  Name = ZINC64502395
REMARK  6 active torsions:
REMARK  status: ('A' for Active; 'I' for Inactive)
REMARK    1  A    between atoms: C_3  and  C_22
REMARK    2  A    between atoms: C_5  and  C_7
REMARK    3  A    between atoms: N_9  and  C_10
REMARK    4  A    between atoms: C_10  and  C_11
REMARK    5  A    between atoms: C_11  and  C_12
REMARK    6  A    between atoms: C_22  and  N_23
REMARK                            x       y       z     vdW  Elec       q    Type
REMARK                         _______ _______ _______ _____ _____    ______ ____
ROOT
ATOM      1  C   UNL     1      -0.017   1.375   0.010  0.00  0.00    +0.001 A 
ATOM      2  C   UNL     1       1.170   2.086   0.002  0.00  0.00    +0.005 A 
ATOM      3  C   UNL     1       2.383   1.420  -0.013  0.00  0.00    -0.027 A 
ATOM      4  C   UNL     1       2.416   0.041  -0.021  0.00  0.00    +0.018 A 
ATOM      5  C   UNL     1       1.222  -0.682  -0.014  0.00  0.00    +0.037 A 
ATOM      6  C   UNL     1       0.002  -0.004   0.002  0.00  0.00    +0.013 A 
ENDROOT
BRANCH   5   7
ATOM      7  C   UNL     1       1.250  -2.161  -0.023  0.00  0.00    +0.244 C 
ATOM      8  O   UNL     1       2.313  -2.748  -0.037  0.00  0.00    -0.270 OA
ATOM      9  N   UNL     1       0.095  -2.856  -0.016  0.00  0.00    -0.311 N 
ATOM     10  H   UNL     1      -0.754  -2.387  -0.004  0.00  0.00    +0.149 HD
BRANCH   9  11
ATOM     11  C   UNL     1       0.122  -4.321  -0.025  0.00  0.00    +0.109 C 
BRANCH  11  12
ATOM     12  C   UNL     1      -1.310  -4.858  -0.014  0.00  0.00    +0.052 C 
BRANCH  12  13
ATOM     13  C   UNL     1      -1.282  -6.364  -0.023  0.00  0.00    -0.040 C 
ATOM     14  C   UNL     1      -1.356  -7.186   1.049  0.00  0.00    +0.000 A 
ATOM     15  C   UNL     1      -1.479  -6.932   2.489  0.00  0.00    +0.030 A 
ATOM     16  C   UNL     1      -1.529  -7.984   3.339  0.00  0.00    +0.042 A 
ATOM     17  C   UNL     1      -1.467  -9.307   2.879  0.00  0.00    +0.022 A 
ATOM     18  C   UNL     1      -1.353  -9.619   1.570  0.00  0.00    +0.027 A 
ATOM     19  C   UNL     1      -1.292  -8.591   0.589  0.00  0.00    +0.043 A 
ATOM     20  N   UNL     1      -1.183  -8.637  -0.717  0.00  0.00    -0.380 N 
ATOM     21  C   UNL     1      -1.172  -7.264  -1.234  0.00  0.00    +0.144 C 
ATOM     22 CL   UNL     1      -1.675  -7.687   5.043  0.00  0.00    -0.084 Cl
ATOM     23  H   UNL     1      -1.124  -9.444  -1.252  0.00  0.00    +0.160 HD
ENDBRANCH  12  13
ENDBRANCH  11  12
ENDBRANCH   9  11
ENDBRANCH   5   7
BRANCH   3  24
ATOM     24  C   UNL     1       3.671   2.203  -0.021  0.00  0.00    +0.162 C 
BRANCH  24  25
ATOM     25  N   UNL     1       4.101   2.449   1.357  0.00  0.00    -0.286 N 
ATOM     26  C   UNL     1       3.672   3.594   2.019  0.00  0.00    +0.161 A 
ATOM     27  C   UNL     1       4.072   3.844   3.333  0.00  0.00    +0.090 A 
ATOM     28  C   UNL     1       3.630   4.994   3.974  0.00  0.00    +0.031 A 
ATOM     29  C   UNL     1       2.800   5.859   3.276  0.00  0.00    +0.022 A 
ATOM     30  C   UNL     1       2.442   5.551   1.978  0.00  0.00    +0.113 A 
ATOM     31  N   UNL     1       2.876   4.451   1.393  0.00  0.00    -0.236 NA
ATOM     32  N   UNL     1       4.911   2.947   4.002  0.00  0.00    -0.309 N 
ATOM     33  C   UNL     1       5.438   2.950   5.251  0.00  0.00    +0.092 A 
ATOM     34  C   UNL     1       6.196   1.837   5.411  0.00  0.00    +0.020 A 
ATOM     35  C   UNL     1       6.144   1.107   4.220  0.00  0.00    +0.033 A 
ATOM     36  C   UNL     1       5.340   1.810   3.350  0.00  0.00    +0.112 A 
ATOM     37  C   UNL     1       4.905   1.561   1.974  0.00  0.00    +0.277 A 
ATOM     38  O   UNL     1       5.272   0.559   1.389  0.00  0.00    -0.265 OA
ENDBRANCH  24  25
ENDBRANCH   3  24
TORSDOF 6
