REMARK  Name = ZINC38568485
REMARK  7 active torsions:
REMARK  status: ('A' for Active; 'I' for Inactive)
REMARK    1  A    between atoms: C_1  and  C_2
REMARK    2  A    between atoms: C_2  and  C_3
REMARK    3  A    between atoms: C_2  and  C_4
REMARK    4  A    between atoms: C_2  and  C_5
REMARK    5  A    between atoms: C_8  and  N_11
REMARK    6  A    between atoms: N_20  and  S_24
REMARK    7  A    between atoms: S_24  and  C_27
REMARK                            x       y       z     vdW  Elec       q    Type
REMARK                         _______ _______ _______ _____ _____    ______ ____
ROOT
ATOM      1  N   UNL     1       2.421  -1.308  -5.525  0.00  0.00    -0.269 N 
ATOM      2  C   UNL     1       3.713  -0.951  -5.663  0.00  0.00    +0.306 C 
ATOM      3  O   UNL     1       4.209  -0.152  -4.892  0.00  0.00    -0.252 OA
ATOM      4  N   UNL     1       4.456  -1.479  -6.656  0.00  0.00    -0.285 N 
ATOM      5  C   UNL     1       3.830  -2.288  -7.710  0.00  0.00    +0.113 C 
ATOM      6  C   UNL     1       4.214  -1.704  -9.073  0.00  0.00    +0.072 C 
ATOM      7  C   UNL     1       5.737  -1.605  -9.172  0.00  0.00    +0.145 C 
ATOM      8  C   UNL     1       6.273  -0.681  -8.077  0.00  0.00    +0.072 C 
ATOM      9  C   UNL     1       5.907  -1.251  -6.708  0.00  0.00    +0.113 C 
ATOM     10  N   UNL     1       6.330  -2.942  -9.026  0.00  0.00    -0.144 NA
ATOM     11  C   UNL     1       7.043  -3.215 -10.294  0.00  0.00    +0.140 C 
ATOM     12  C   UNL     1       6.358  -2.244 -11.287  0.00  0.00    +0.179 C 
ATOM     13  O   UNL     1       6.102  -1.085 -10.460  0.00  0.00    -0.356 OA
ATOM     14  H   UNL     1       2.061  -2.038  -6.053  0.00  0.00    +0.156 HD
ENDROOT
BRANCH   1  18
ATOM     15  C   UNL     1      -0.025   0.720  -2.830  0.00  0.00    -0.042 A 
ATOM     16  C   UNL     1      -0.587   0.041  -3.896  0.00  0.00    +0.006 A 
ATOM     17  C   UNL     1       0.222  -0.632  -4.791  0.00  0.00    +0.023 A 
ATOM     18  C   UNL     1       1.600  -0.627  -4.620  0.00  0.00    +0.035 A 
ATOM     19  C   UNL     1       2.161   0.055  -3.548  0.00  0.00    +0.023 A 
ATOM     20  C   UNL     1       1.347   0.731  -2.660  0.00  0.00    +0.006 A 
BRANCH  15  22
ATOM     21  C   UNL     1      -0.549   2.940  -1.858  0.00  0.00    +0.015 C 
ATOM     22  C   UNL     1      -0.910   1.453  -1.855  0.00  0.00    -0.013 C 
ATOM     23  C   UNL     1      -0.706   0.881  -0.451  0.00  0.00    +0.015 C 
ATOM     24  C   UNL     1      -2.373   1.283  -2.268  0.00  0.00    +0.015 C 
ENDBRANCH  15  22
ENDBRANCH   1  18
BRANCH  10  25
ATOM     25  S   UNL     1       6.222  -3.941  -7.709  0.00  0.00    +0.063 S 
ATOM     26  O   UNL     1       7.546  -4.359  -7.407  0.00  0.00    -0.153 OA
ATOM     27  O   UNL     1       5.399  -3.275  -6.761  0.00  0.00    -0.153 OA
BRANCH  25  28
ATOM     28  C   UNL     1       5.343  -5.380  -8.217  0.00  0.00    +0.106 A 
ATOM     29  C   UNL     1       3.988  -5.488  -7.963  0.00  0.00    +0.030 A 
ATOM     30  C   UNL     1       3.297  -6.617  -8.361  0.00  0.00    +0.022 A 
ATOM     31  C   UNL     1       3.962  -7.640  -9.014  0.00  0.00    +0.041 A 
ATOM     32  C   UNL     1       5.318  -7.531  -9.268  0.00  0.00    +0.022 A 
ATOM     33  C   UNL     1       6.006  -6.399  -8.875  0.00  0.00    +0.030 A 
ATOM     34 CL   UNL     1       3.095  -9.058  -9.514  0.00  0.00    -0.084 Cl
ENDBRANCH  25  28
ENDBRANCH  10  25
TORSDOF 4
