REMARK  Name = ZINC36606160
REMARK  17 active torsions:
REMARK  status: ('A' for Active; 'I' for Inactive)
REMARK    1  A    between atoms: C_1  and  C_2
REMARK    2  A    between atoms: C_2  and  C_3
REMARK    3  A    between atoms: C_3  and  C_4
REMARK    4  A    between atoms: C_4  and  C_5
REMARK    5  A    between atoms: C_5  and  C_6
REMARK    6  A    between atoms: C_7  and  C_8
REMARK    7  A    between atoms: N_10  and  C_11
REMARK    8  A    between atoms: N_10  and  C_17
REMARK    9  A    between atoms: C_17  and  C_19
REMARK   10  A    between atoms: C_17  and  C_28
REMARK   11  A    between atoms: C_20  and  O_27
REMARK   12  A    between atoms: C_22  and  O_26
REMARK   13  A    between atoms: C_24  and  O_25
REMARK   14  A    between atoms: N_30  and  C_31
REMARK   15  A    between atoms: C_31  and  C_32
REMARK   16  A    between atoms: C_31  and  C_33
REMARK   17  A    between atoms: C_31  and  C_34
REMARK                            x       y       z     vdW  Elec       q    Type
REMARK                         _______ _______ _______ _____ _____    ______ ____
ROOT
ATOM      1  C   UNL     1       6.286  -3.802   2.484  0.00  0.00    +0.204 C 
ENDROOT
BRANCH   1   2
ATOM      2  C   UNL     1       5.787  -3.340   1.139  0.00  0.00    +0.065 A 
ATOM      3  C   UNL     1       5.027  -4.192   0.351  0.00  0.00    +0.129 A 
ATOM      4  C   UNL     1       4.568  -3.767  -0.886  0.00  0.00    +0.091 A 
ATOM      5  C   UNL     1       4.867  -2.490  -1.336  0.00  0.00    +0.124 A 
ATOM      6  C   UNL     1       5.626  -1.637  -0.548  0.00  0.00    +0.091 A 
ATOM      7  C   UNL     1       6.082  -2.061   0.692  0.00  0.00    +0.129 A 
BRANCH   7   8
ATOM      8  O   UNL     1       6.822  -1.224   1.466  0.00  0.00    -0.506 OA
ATOM      9  H   UNL     1       7.775  -1.285   1.312  0.00  0.00    +0.292 HD
ENDBRANCH   7   8
BRANCH   5  10
ATOM     10  O   UNL     1       4.418  -2.073  -2.549  0.00  0.00    -0.507 OA
ATOM     11  H   UNL     1       3.551  -1.646  -2.522  0.00  0.00    +0.292 HD
ENDBRANCH   5  10
BRANCH   3  12
ATOM     12  O   UNL     1       4.733  -5.443   0.792  0.00  0.00    -0.506 OA
ATOM     13  H   UNL     1       3.877  -5.513   1.236  0.00  0.00    +0.292 HD
ENDBRANCH   3  12
ENDBRANCH   1   2
BRANCH   1  14
ATOM     14  C   UNL     1       7.421  -4.774   2.291  0.00  0.00    +0.239 C 
ATOM     15  O   UNL     1       7.190  -5.956   2.151  0.00  0.00    -0.273 OA
ATOM     16  N   UNL     1       8.694  -4.329   2.275  0.00  0.00    -0.309 N 
ATOM     17  H   UNL     1       8.879  -3.384   2.387  0.00  0.00    +0.149 HD
BRANCH  16  18
ATOM     18  C   UNL     1       9.797  -5.274   2.087  0.00  0.00    +0.026 C 
ATOM     19  C   UNL     1       9.637  -5.986   0.743  0.00  0.00    +0.031 C 
ATOM     20  C   UNL     1      11.127  -4.517   2.108  0.00  0.00    +0.031 C 
ATOM     21  C   UNL     1       9.781  -6.308   3.216  0.00  0.00    +0.031 C 
ENDBRANCH  16  18
ENDBRANCH   1  14
BRANCH   1  24
ATOM     22  C   UNL     1       3.973  -3.897   3.244  0.00  0.00    +0.244 C 
ATOM     23  O   UNL     1       3.792  -2.805   2.741  0.00  0.00    -0.270 OA
ATOM     24  N   UNL     1       5.197  -4.460   3.209  0.00  0.00    -0.252 N 
BRANCH  24  25
ATOM     25  C   UNL     1       5.427  -5.674   3.865  0.00  0.00    +0.038 A 
ATOM     26  C   UNL     1       6.298  -5.726   4.946  0.00  0.00    +0.023 A 
ATOM     27  C   UNL     1       6.523  -6.926   5.591  0.00  0.00    +0.002 A 
ATOM     28  C   UNL     1       5.883  -8.074   5.163  0.00  0.00    +0.000 A 
ATOM     29  C   UNL     1       5.015  -8.026   4.087  0.00  0.00    +0.002 A 
ATOM     30  C   UNL     1       4.781  -6.828   3.441  0.00  0.00    +0.023 A 
ENDBRANCH  24  25
BRANCH  22  32
ATOM     31  C   UNL     1       1.621  -4.119   3.799  0.00  0.00    -0.022 C 
ATOM     32  C   UNL     1       2.857  -4.603   3.891  0.00  0.00    +0.063 C 
BRANCH  31  33
ATOM     33  C   UNL     1       1.323  -2.991   2.846  0.00  0.00    +0.027 C 
BRANCH  33  34
ATOM     34  C   UNL     1       0.040  -3.302   2.073  0.00  0.00    +0.004 C 
BRANCH  34  35
ATOM     35  C   UNL     1      -0.263  -2.157   1.105  0.00  0.00    +0.000 C 
BRANCH  35  37
ATOM     36  C   UNL     1      -1.849  -1.323  -0.636  0.00  0.00    +0.004 C 
ATOM     37  C   UNL     1      -1.546  -2.468   0.332  0.00  0.00    -0.003 C 
ENDBRANCH  35  37
ENDBRANCH  34  35
ENDBRANCH  33  34
ENDBRANCH  31  33
ENDBRANCH  22  32
ENDBRANCH   1  24
TORSDOF 13
