REMARK  Name = ZINC04884140
REMARK  10 active torsions:
REMARK  status: ('A' for Active; 'I' for Inactive)
REMARK    1  A    between atoms: C_1  and  C_2
REMARK    2  A    between atoms: C_2  and  O_3
REMARK    3  A    between atoms: O_3  and  C_4
REMARK    4  A    between atoms: C_4  and  C_6
REMARK    5  A    between atoms: C_6  and  C_26
REMARK    6  A    between atoms: C_11  and  C_13
REMARK    7  A    between atoms: C_18  and  C_19
REMARK    8  A    between atoms: N_22  and  C_25
REMARK    9  A    between atoms: C_26  and  C_27
REMARK   10  A    between atoms: C_30  and  O_33
REMARK                            x       y       z     vdW  Elec       q    Type
REMARK                         _______ _______ _______ _____ _____    ______ ____
ROOT
ATOM      1  C   UNL     1      -2.944   0.708   1.462  0.00  0.00    +0.048 C 
ATOM      2  C   UNL     1      -4.202  -0.173   1.314  0.00  0.00    +0.086 C 
ATOM      3  C   UNL     1      -3.700  -1.625   1.531  0.00  0.00    +0.077 C 
ATOM      4  C   UNL     1      -2.186  -1.486   1.791  0.00  0.00    -0.026 C 
ATOM      5  C   UNL     1      -4.388  -2.045   2.811  0.00  0.00    +0.224 C 
ATOM      6  O   UNL     1      -4.271  -3.126   3.348  0.00  0.00    -0.275 OA
ATOM      7  N   UNL     1      -5.146  -1.037   3.259  0.00  0.00    -0.245 N 
ATOM      8  C   UNL     1      -5.116   0.062   2.496  0.00  0.00    +0.225 C 
ATOM      9  O   UNL     1      -5.726   1.086   2.717  0.00  0.00    -0.275 OA
ATOM     10  C   UNL     1      -5.942  -1.129   4.485  0.00  0.00    +0.141 C 
ATOM     11  N   UNL     1      -2.038  -0.111   2.268  0.00  0.00    +0.396 N 
ATOM     12  H   UNL     1      -2.293  -0.050   3.261  0.00  0.00    -0.083 HD
ATOM     13  H   UNL     1      -1.069   0.206   2.144  0.00  0.00    -0.083 HD
ENDROOT
BRANCH   4  14
ATOM     14  C   UNL     1      -1.737  -2.481   2.830  0.00  0.00    -0.058 A 
ATOM     15  C   UNL     1      -1.714  -2.122   4.165  0.00  0.00    +0.002 A 
ATOM     16  C   UNL     1      -1.306  -3.036   5.119  0.00  0.00    +0.000 A 
ATOM     17  C   UNL     1      -0.914  -4.306   4.737  0.00  0.00    +0.000 A 
ATOM     18  C   UNL     1      -0.933  -4.662   3.401  0.00  0.00    +0.003 A 
ATOM     19  C   UNL     1      -1.345  -3.749   2.448  0.00  0.00    -0.049 A 
ATOM     20  C   UNL     1      -1.365  -4.138   0.992  0.00  0.00    +0.044 C 
ENDBRANCH   4  14
BRANCH   1  21
ATOM     21  C   UNL     1      -3.284   2.001   2.158  0.00  0.00    +0.297 C 
ATOM     22  O   UNL     1      -3.547   2.985   1.508  0.00  0.00    -0.252 OA
BRANCH  21  23
ATOM     23  O   UNL     1      -3.295   2.059   3.499  0.00  0.00    -0.466 OA
BRANCH  23  25
ATOM     24  C   UNL     1      -3.591   3.209   5.625  0.00  0.00    +0.048 C 
ATOM     25  C   UNL     1      -3.631   3.337   4.101  0.00  0.00    +0.228 C 
ENDBRANCH  23  25
ENDBRANCH  21  23
ENDBRANCH   1  21
BRANCH   1  26
ATOM     26  C   UNL     1      -2.325   0.988   0.092  0.00  0.00    +0.034 C 
BRANCH  26  27
ATOM     27  C   UNL     1      -0.994   1.672   0.272  0.00  0.00    -0.048 A 
ATOM     28  C   UNL     1       0.160   0.919   0.383  0.00  0.00    +0.007 A 
ATOM     29  C   UNL     1       1.381   1.545   0.543  0.00  0.00    +0.045 A 
ATOM     30  C   UNL     1       1.448   2.929   0.598  0.00  0.00    +0.117 A 
ATOM     31  C   UNL     1       0.288   3.682   0.492  0.00  0.00    +0.045 A 
ATOM     32  C   UNL     1      -0.931   3.052   0.332  0.00  0.00    +0.007 A 
BRANCH  30  33
ATOM     33  O   UNL     1       2.649   3.547   0.755  0.00  0.00    -0.507 OA
ATOM     34  H   UNL     1       3.096   3.755  -0.076  0.00  0.00    +0.292 HD
ENDBRANCH  30  33
ENDBRANCH  26  27
ENDBRANCH   1  26
TORSDOF 7
