REMARK  Name = ZINC15006243
REMARK  7 active torsions:
REMARK  status: ('A' for Active; 'I' for Inactive)
REMARK    1  A    between atoms: C_1  and  N_2
REMARK    2  A    between atoms: C_4  and  C_7
REMARK    3  A    between atoms: C_7  and  N_61
REMARK    4  A    between atoms: C_10  and  C_13
REMARK    5  A    between atoms: C_10  and  O_30
REMARK    6  A    between atoms: C_20  and  C_22
REMARK    7  A    between atoms: N_24  and  C_25
REMARK                            x       y       z     vdW  Elec       q    Type
REMARK                         _______ _______ _______ _____ _____    ______ ____
ROOT
ATOM      1  C   UNL     1       4.561   0.039  -5.135  0.00  0.00    -0.015 A 
ATOM      2  C   UNL     1       4.902   1.250  -5.723  0.00  0.00    +0.010 A 
ATOM      3  C   UNL     1       5.271   1.309  -7.049  0.00  0.00    +0.047 A 
ATOM      4  C   UNL     1       5.304   0.146  -7.811  0.00  0.00    +0.136 A 
ATOM      5  C   UNL     1       4.957  -1.078  -7.210  0.00  0.00    +0.021 A 
ATOM      6  C   UNL     1       4.590  -1.117  -5.862  0.00  0.00    +0.018 A 
ATOM      7  C   UNL     1       5.091  -2.087  -8.260  0.00  0.00    +0.063 A 
ATOM      8  C   UNL     1       5.493  -1.421  -9.373  0.00  0.00    +0.190 A 
ATOM      9  O   UNL     1       5.615  -0.106  -9.098  0.00  0.00    -0.450 OA
ENDROOT
BRANCH   1  12
ATOM     10  C   UNL     1       2.254   0.221  -2.085  0.00  0.00    -0.075 C 
ATOM     11  C   UNL     1       2.647   0.201  -3.564  0.00  0.00    +0.021 C 
ATOM     12  C   UNL     1       4.160  -0.000  -3.683  0.00  0.00    +0.088 C 
ATOM     13  C   UNL     1       4.877   1.119  -2.923  0.00  0.00    +0.021 C 
ATOM     14  C   UNL     1       4.420   1.112  -1.463  0.00  0.00    -0.075 C 
ATOM     15  N   UNL     1       2.959   1.335  -1.416  0.00  0.00    +0.383 N 
ATOM     16  H   UNL     1       2.740   2.210  -1.907  0.00  0.00    -0.081 HD
BRANCH  12  17
ATOM     17  O   UNL     1       4.520  -1.264  -3.122  0.00  0.00    -0.384 OA
ATOM     18  H   UNL     1       4.101  -2.021  -3.556  0.00  0.00    +0.211 HD
ENDBRANCH  12  17
BRANCH  15  19
ATOM     19  C   UNL     1       2.510   1.446  -0.013  0.00  0.00    -0.040 C 
BRANCH  19  23
ATOM     20  C   UNL     1      -2.502   1.389   0.021  0.00  0.00    +0.172 C 
ATOM     21  N   UNL     1      -1.113   1.857   0.017  0.00  0.00    -0.274 N 
ATOM     22  C   UNL     1      -0.013   1.076   0.008  0.00  0.00    +0.109 A 
ATOM     23  C   UNL     1       1.069   1.888   0.002  0.00  0.00    -0.026 A 
ATOM     24  C   UNL     1       0.614   3.211   0.013  0.00  0.00    +0.136 A 
ATOM     25  N   UNL     1      -0.694   3.193   0.025  0.00  0.00    -0.180 NA
ENDBRANCH  19  23
ENDBRANCH  15  19
ENDBRANCH   1  12
BRANCH   8  26
ATOM     26  C   UNL     1       5.756  -2.040 -10.680  0.00  0.00    +0.280 C 
ATOM     27  O   UNL     1       5.615  -3.240 -10.824  0.00  0.00    -0.267 OA
ATOM     28  N   UNL     1       6.152  -1.278 -11.718  0.00  0.00    -0.306 N 
ATOM     29  H   UNL     1       6.264  -0.321 -11.603  0.00  0.00    +0.149 HD
BRANCH  28  30
ATOM     30  C   UNL     1       6.415  -1.895 -13.021  0.00  0.00    +0.073 C 
ATOM     31  C   UNL     1       7.879  -2.373 -13.094  0.00  0.00    +0.022 C 
ATOM     32  C   UNL     1       8.300  -2.086 -14.557  0.00  0.00    +0.002 C 
ATOM     33  C   UNL     1       7.597  -0.739 -14.857  0.00  0.00    +0.002 C 
ATOM     34  C   UNL     1       6.235  -0.856 -14.142  0.00  0.00    +0.022 C 
ENDBRANCH  28  30
ENDBRANCH   8  26
TORSDOF 6
