REMARK  Name = ZINC39034968
REMARK  6 active torsions:
REMARK  status: ('A' for Active; 'I' for Inactive)
REMARK    1  A    between atoms: C_1  and  C_2
REMARK    2  A    between atoms: C_2  and  C_4
REMARK    3  A    between atoms: C_2  and  N_21
REMARK    4  A    between atoms: C_22  and  C_24
REMARK    5  A    between atoms: C_24  and  O_25
REMARK    6  A    between atoms: O_25  and  C_26
REMARK                            x       y       z     vdW  Elec       q    Type
REMARK                         _______ _______ _______ _____ _____    ______ ____
ROOT
ATOM      1  C   UNL     1       0.598  -0.531  -1.278  0.00  0.00    +0.236 C 
ATOM      2  O   UNL     1      -0.090  -1.163  -2.051  0.00  0.00    -0.274 OA
ATOM      3  N   UNL     1       1.893  -0.294  -1.567  0.00  0.00    -0.300 N 
ATOM      4  C   UNL     1       2.766   0.377  -0.594  0.00  0.00    +0.106 C 
ATOM      5  C   UNL     1       3.423   1.584  -1.271  0.00  0.00    +0.009 C 
ATOM      6  C   UNL     1       4.133   1.125  -2.545  0.00  0.00    -0.037 C 
ATOM      7  C   UNL     1       3.119   0.518  -3.514  0.00  0.00    +0.009 C 
ATOM      8  C   UNL     1       2.459  -0.706  -2.858  0.00  0.00    +0.106 C 
ATOM      9  C   UNL     1       4.827   2.318  -3.204  0.00  0.00    +0.140 C 
ATOM     10  C   UNL     1       5.903   2.765  -2.220  0.00  0.00    +0.042 C 
ATOM     11  N   UNL     1       5.676   3.998  -1.982  0.00  0.00    -0.243 NA
ATOM     12  C   UNL     1       4.543   4.425  -2.593  0.00  0.00    +0.216 C 
ATOM     13  N   UNL     1       3.961   3.493  -3.318  0.00  0.00    -0.264 NA
ATOM     14  C   UNL     1       6.888   1.786  -1.634  0.00  0.00    +0.034 C 
ATOM     15  C   UNL     1       6.053   0.587  -1.145  0.00  0.00    -0.076 C 
ATOM     16  N   UNL     1       5.155   0.124  -2.206  0.00  0.00    +0.385 N 
ATOM     17  H   UNL     1       4.697  -0.722  -1.901  0.00  0.00    -0.085 HD
ATOM     18  H   UNL     1       5.700  -0.080  -3.031  0.00  0.00    -0.085 HD
ENDROOT
BRANCH   1  20
ATOM     19  C   UNL     1      -0.447   1.438  -0.191  0.00  0.00    +0.038 C 
ATOM     20  C   UNL     1       0.004  -0.011   0.006  0.00  0.00    +0.156 C 
BRANCH  20  21
ATOM     21  N   UNL     1      -1.148  -0.835   0.380  0.00  0.00    -0.301 N 
ATOM     22  C   UNL     1      -1.529  -0.914   1.671  0.00  0.00    +0.251 C 
ATOM     23  O   UNL     1      -0.918  -0.304   2.522  0.00  0.00    -0.272 OA
ATOM     24  H   UNL     1      -1.637  -1.323  -0.301  0.00  0.00    +0.150 HD
BRANCH  22  25
ATOM     25  C   UNL     1      -2.714  -1.762   2.056  0.00  0.00    +0.324 C 
BRANCH  25  26
ATOM     26  O   UNL     1      -2.917  -1.684   3.468  0.00  0.00    -0.483 OA
BRANCH  26  27
ATOM     27  C   UNL     1      -3.954  -2.396   3.983  0.00  0.00    +0.121 A 
ATOM     28  C   UNL     1      -4.756  -3.158   3.147  0.00  0.00    +0.047 A 
ATOM     29  C   UNL     1      -5.809  -3.881   3.672  0.00  0.00    +0.023 A 
ATOM     30  C   UNL     1      -6.065  -3.845   5.031  0.00  0.00    +0.041 A 
ATOM     31  C   UNL     1      -5.266  -3.084   5.867  0.00  0.00    +0.023 A 
ATOM     32  C   UNL     1      -4.208  -2.365   5.346  0.00  0.00    +0.047 A 
ATOM     33 CL   UNL     1      -7.390  -4.753   5.689  0.00  0.00    -0.084 Cl
ENDBRANCH  26  27
ENDBRANCH  25  26
ENDBRANCH  22  25
ENDBRANCH  20  21
ENDBRANCH   1  20
TORSDOF 5
