REMARK  Name = ZINC39936385
REMARK  6 active torsions:
REMARK  status: ('A' for Active; 'I' for Inactive)
REMARK    1  A    between atoms: C_1  and  C_2
REMARK    2  A    between atoms: C_2  and  O_3
REMARK    3  A    between atoms: O_3  and  C_4
REMARK    4  A    between atoms: C_9  and  C_16
REMARK    5  A    between atoms: N_17  and  N_18
REMARK    6  A    between atoms: C_27  and  C_29
REMARK                            x       y       z     vdW  Elec       q    Type
REMARK                         _______ _______ _______ _____ _____    ______ ____
ROOT
ATOM      1  N   UNL     1      -4.321  -9.388  -2.228  0.00  0.00    -0.205 N 
ATOM      2  C   UNL     1      -4.441 -10.760  -2.087  0.00  0.00    +0.236 A 
ATOM      3  N   UNL     1      -4.424 -11.274  -0.872  0.00  0.00    -0.213 NA
ATOM      4  C   UNL     1      -4.537 -12.597  -0.693  0.00  0.00    +0.077 A 
ATOM      5  C   UNL     1      -4.523 -13.177   0.584  0.00  0.00    +0.030 A 
ATOM      6  C   UNL     1      -4.643 -14.528   0.711  0.00  0.00    +0.022 A 
ATOM      7  C   UNL     1      -4.777 -15.346  -0.410  0.00  0.00    +0.042 A 
ATOM      8  C   UNL     1      -4.793 -14.815  -1.667  0.00  0.00    +0.032 A 
ATOM      9  C   UNL     1      -4.674 -13.430  -1.832  0.00  0.00    +0.028 A 
ATOM     10  C   UNL     1      -4.686 -12.822  -3.112  0.00  0.00    +0.084 A 
ATOM     11  N   UNL     1      -4.573 -11.503  -3.182  0.00  0.00    -0.213 NA
ATOM     12 CL   UNL     1      -4.926 -17.063  -0.204  0.00  0.00    -0.084 Cl
ATOM     13  H   UNL     1      -4.335  -8.988  -3.111  0.00  0.00    +0.177 HD
ENDROOT
BRANCH  10  14
ATOM     14  C   UNL     1      -4.826 -13.638  -4.339  0.00  0.00    +0.001 A 
ATOM     15  C   UNL     1      -5.775 -14.659  -4.397  0.00  0.00    +0.010 A 
ATOM     16  C   UNL     1      -5.901 -15.416  -5.543  0.00  0.00    +0.001 A 
ATOM     17  C   UNL     1      -5.088 -15.164  -6.635  0.00  0.00    +0.000 A 
ATOM     18  C   UNL     1      -4.146 -14.153  -6.584  0.00  0.00    +0.001 A 
ATOM     19  C   UNL     1      -4.014 -13.385  -5.445  0.00  0.00    +0.010 A 
ENDBRANCH  10  14
BRANCH   1  21
ATOM     20  C   UNL     1      -4.070  -7.308  -1.224  0.00  0.00    +0.120 C 
ATOM     21  N   UNL     1      -4.180  -8.577  -1.093  0.00  0.00    -0.191 NA
BRANCH  20  27
ATOM     22  C   UNL     1      -2.721  -1.544  -0.053  0.00  0.00    +0.122 A 
ATOM     23  C   UNL     1      -1.487  -2.200  -0.180  0.00  0.00    +0.046 A 
ATOM     24  C   UNL     1      -1.409  -3.552  -0.206  0.00  0.00    +0.013 A 
ATOM     25  C   UNL     1      -2.640  -4.338  -0.099  0.00  0.00    -0.006 A 
ATOM     26  C   UNL     1      -2.599  -5.698  -0.121  0.00  0.00    +0.001 C 
ATOM     27  C   UNL     1      -3.918  -6.436  -0.004  0.00  0.00    +0.141 C 
ATOM     28  C   UNL     1      -5.173  -5.603   0.128  0.00  0.00    +0.229 C 
ATOM     29  O   UNL     1      -6.258  -6.144   0.226  0.00  0.00    -0.274 OA
ATOM     30  N   UNL     1      -5.086  -4.285   0.138  0.00  0.00    -0.284 N 
ATOM     31  C   UNL     1      -3.926  -3.631   0.035  0.00  0.00    +0.044 A 
ATOM     32  C   UNL     1      -3.911  -2.230   0.058  0.00  0.00    +0.069 A 
ATOM     33  H   UNL     1      -5.902  -3.768   0.223  0.00  0.00    +0.155 HD
BRANCH  22  34
ATOM     34  O   UNL     1      -2.742  -0.190  -0.033  0.00  0.00    -0.492 OA
BRANCH  34  36
ATOM     35  C   UNL     1      -1.710   1.994  -0.107  0.00  0.00    +0.048 C 
ATOM     36  C   UNL     1      -1.486   0.481  -0.150  0.00  0.00    +0.225 C 
ENDBRANCH  34  36
ENDBRANCH  22  34
ENDBRANCH  20  27
ENDBRANCH   1  21
TORSDOF 5
