REMARK  Name = ZINC19925257
REMARK  9 active torsions:
REMARK  status: ('A' for Active; 'I' for Inactive)
REMARK    1  A    between atoms: C_1  and  C_2
REMARK    2  A    between atoms: C_5  and  C_8
REMARK    3  A    between atoms: N_9  and  C_10
REMARK    4  A    between atoms: C_10  and  C_11
REMARK    5  A    between atoms: N_17  and  C_18
REMARK    6  A    between atoms: C_18  and  N_20
REMARK    7  A    between atoms: N_20  and  N_21
REMARK    8  A    between atoms: N_21  and  C_22
REMARK    9  A    between atoms: N_21  and  C_28
REMARK                            x       y       z     vdW  Elec       q    Type
REMARK                         _______ _______ _______ _____ _____    ______ ____
ROOT
ATOM      1  C   UNL     1       0.018  -4.249  -0.480  0.00  0.00    +0.097 C 
ATOM      2  N   UNL     1       0.856  -4.862   0.411  0.00  0.00    -0.328 N 
ATOM      3  N   UNL     1      -0.672  -4.973  -1.343  0.00  0.00    -0.284 N 
ATOM      4  H   UNL     1       1.007  -5.819   0.355  0.00  0.00    +0.148 HD
ATOM      5  H   UNL     1      -0.988  -4.573  -2.168  0.00  0.00    +0.155 HD
ENDROOT
BRANCH   1  10
ATOM      6  C   UNL     1      -0.502   1.480  -0.470  0.00  0.00    +0.044 C 
ATOM      7  C   UNL     1      -0.365  -0.021  -0.473  0.00  0.00    -0.050 A 
ATOM      8  C   UNL     1      -0.191  -0.694  -1.669  0.00  0.00    +0.004 A 
ATOM      9  C   UNL     1      -0.066  -2.068  -1.679  0.00  0.00    +0.011 A 
ATOM     10  C   UNL     1      -0.115  -2.779  -0.477  0.00  0.00    +0.011 A 
ATOM     11  C   UNL     1      -0.290  -2.092   0.726  0.00  0.00    +0.011 A 
ATOM     12  C   UNL     1      -0.409  -0.718   0.722  0.00  0.00    +0.004 A 
ENDBRANCH   1  10
BRANCH   3  13
ATOM     13  C   UNL     1      -0.937  -6.262  -1.077  0.00  0.00    +0.152 C 
ATOM     14  S   UNL     1      -0.528  -6.923   0.448  0.00  0.00    -0.017 S 
BRANCH  13  15
ATOM     15  N   UNL     1      -1.526  -7.035  -2.011  0.00  0.00    -0.241 N 
ATOM     16  H   UNL     1      -1.717  -7.966  -1.819  0.00  0.00    +0.172 HD
BRANCH  15  17
ATOM     17  N   UNL     1      -1.861  -6.494  -3.259  0.00  0.00    -0.221 N 
BRANCH  17  18
ATOM     18  C   UNL     1      -0.863  -6.248  -4.204  0.00  0.00    +0.053 A 
ATOM     19  C   UNL     1       0.210  -7.122  -4.328  0.00  0.00    +0.025 A 
ATOM     20  C   UNL     1       1.195  -6.876  -5.264  0.00  0.00    +0.002 A 
ATOM     21  C   UNL     1       1.115  -5.761  -6.078  0.00  0.00    +0.000 A 
ATOM     22  C   UNL     1       0.049  -4.888  -5.957  0.00  0.00    +0.002 A 
ATOM     23  C   UNL     1      -0.943  -5.132  -5.027  0.00  0.00    +0.025 A 
ENDBRANCH  17  18
BRANCH  17  24
ATOM     24  C   UNL     1      -3.194  -6.200  -3.557  0.00  0.00    +0.053 A 
ATOM     25  C   UNL     1      -3.682  -6.407  -4.842  0.00  0.00    +0.025 A 
ATOM     26  C   UNL     1      -5.000  -6.116  -5.134  0.00  0.00    +0.002 A 
ATOM     27  C   UNL     1      -5.834  -5.619  -4.149  0.00  0.00    +0.000 A 
ATOM     28  C   UNL     1      -5.352  -5.412  -2.869  0.00  0.00    +0.002 A 
ATOM     29  C   UNL     1      -4.037  -5.707  -2.569  0.00  0.00    +0.025 A 
ENDBRANCH  17  24
ENDBRANCH  15  17
ENDBRANCH  13  15
ENDBRANCH   3  13
BRANCH   2  30
ATOM     30  C   UNL     1       1.524  -4.074   1.448  0.00  0.00    +0.138 C 
BRANCH  30  31
ATOM     31  C   UNL     1       2.497  -4.949   2.196  0.00  0.00    -0.030 A 
ATOM     32  C   UNL     1       2.080  -5.648   3.313  0.00  0.00    +0.005 A 
ATOM     33  C   UNL     1       2.972  -6.451   3.999  0.00  0.00    +0.000 A 
ATOM     34  C   UNL     1       4.281  -6.556   3.567  0.00  0.00    +0.000 A 
ATOM     35  C   UNL     1       4.698  -5.857   2.449  0.00  0.00    +0.000 A 
ATOM     36  C   UNL     1       3.805  -5.058   1.761  0.00  0.00    +0.005 A 
ENDBRANCH  30  31
ENDBRANCH   2  30
TORSDOF 8
