REMARK  Name = ZINC10784910
REMARK  9 active torsions:
REMARK  status: ('A' for Active; 'I' for Inactive)
REMARK    1  A    between atoms: C_1  and  C_2
REMARK    2  A    between atoms: C_2  and  C_32
REMARK    3  A    between atoms: C_5  and  C_30
REMARK    4  A    between atoms: C_6  and  N_12
REMARK    5  A    between atoms: C_9  and  C_10
REMARK    6  A    between atoms: C_9  and  C_11
REMARK    7  A    between atoms: C_13  and  C_15
REMARK    8  A    between atoms: N_21  and  S_22
REMARK    9  A    between atoms: S_22  and  C_25
REMARK                            x       y       z     vdW  Elec       q    Type
REMARK                         _______ _______ _______ _____ _____    ______ ____
ROOT
ATOM      1  N   UNL     1      -2.294   1.168   3.807  0.00  0.00    -0.278 N 
ATOM      2  C   UNL     1      -2.808   1.420   2.586  0.00  0.00    +0.236 C 
ATOM      3  O   UNL     1      -3.837   2.053   2.480  0.00  0.00    -0.274 OA
ATOM      4  H   UNL     1      -1.471   0.661   3.891  0.00  0.00    +0.155 HD
ENDROOT
BRANCH   1  10
ATOM      5  C   UNL     1      -3.239   4.417   9.345  0.00  0.00    -0.010 C 
ATOM      6  C   UNL     1      -3.975   3.085   9.492  0.00  0.00    -0.069 C 
ATOM      7  C   UNL     1      -3.185   1.985   8.779  0.00  0.00    +0.024 C 
ATOM      8  C   UNL     1      -3.433   2.065   7.281  0.00  0.00    -0.021 A 
ATOM      9  C   UNL     1      -2.575   1.474   6.271  0.00  0.00    +0.084 A 
ATOM     10  C   UNL     1      -2.943   1.632   4.942  0.00  0.00    +0.090 A 
ATOM     11  S   UNL     1      -4.411   2.548   5.046  0.00  0.00    -0.078 S 
ATOM     12  C   UNL     1      -4.517   2.716   6.804  0.00  0.00    -0.015 A 
ATOM     13  C   UNL     1      -5.571   3.410   7.609  0.00  0.00    -0.041 C 
ATOM     14  C   UNL     1      -5.599   4.902   7.278  0.00  0.00    -0.005 C 
ATOM     15  C   UNL     1      -6.937   2.811   7.213  0.00  0.00    -0.005 C 
ATOM     16  C   UNL     1      -3.997   2.735  10.997  0.00  0.00    -0.010 C 
ATOM     17  N   UNL     1      -5.396   3.156   9.068  0.00  0.00    +0.389 N 
ATOM     18  H   UNL     1      -5.851   3.916   9.586  0.00  0.00    -0.084 HD
ATOM     19  H   UNL     1      -5.848   2.264   9.299  0.00  0.00    -0.084 HD
BRANCH   9  20
ATOM     20  C   UNL     1      -1.391   0.750   6.626  0.00  0.00    +0.102 C 
ATOM     21  N   UNL     1      -0.452   0.176   6.907  0.00  0.00    -0.191 NA
ENDBRANCH   9  20
ENDBRANCH   1  10
BRANCH   2  22
ATOM     22  C   UNL     1      -2.103   0.915   1.353  0.00  0.00    +0.166 C 
ATOM     23  C   UNL     1      -1.652   2.103   0.498  0.00  0.00    +0.030 C 
ATOM     24  C   UNL     1      -1.062   1.585  -0.816  0.00  0.00    +0.003 C 
ATOM     25  C   UNL     1      -2.134   0.813  -1.589  0.00  0.00    +0.017 C 
ATOM     26  C   UNL     1      -2.591  -0.389  -0.757  0.00  0.00    +0.110 C 
ATOM     27  N   UNL     1      -3.025   0.087   0.564  0.00  0.00    -0.164 NA
BRANCH  27  28
ATOM     28  S   UNL     1      -4.523  -0.303   1.151  0.00  0.00    +0.068 S 
ATOM     29  O   UNL     1      -4.912  -1.507   0.505  0.00  0.00    -0.152 OA
ATOM     30  O   UNL     1      -4.447  -0.188   2.566  0.00  0.00    -0.152 OA
BRANCH  28  31
ATOM     31  C   UNL     1      -5.639   0.946   0.604  0.00  0.00    +0.143 A 
ATOM     32  C   UNL     1      -6.371   0.996  -0.536  0.00  0.00    +0.036 A 
ATOM     33  C   UNL     1      -7.192   2.086  -0.757  0.00  0.00    +0.010 A 
ATOM     34  C   UNL     1      -7.232   3.077   0.166  0.00  0.00    +0.047 A 
ATOM     35  S   UNL     1      -6.091   2.478   1.401  0.00  0.00    -0.077 S 
ENDBRANCH  28  31
ENDBRANCH  27  28
ENDBRANCH   2  22
TORSDOF 5
