REMARK  Name = ZINC63531097
REMARK  9 active torsions:
REMARK  status: ('A' for Active; 'I' for Inactive)
REMARK    1  A    between atoms: C_1  and  O_2
REMARK    2  A    between atoms: O_2  and  C_3
REMARK    3  A    between atoms: C_7  and  S_26
REMARK    4  A    between atoms: C_8  and  C_13
REMARK    5  A    between atoms: N_15  and  C_16
REMARK    6  A    between atoms: C_16  and  C_17
REMARK    7  A    between atoms: C_22  and  O_23
REMARK    8  A    between atoms: O_23  and  C_24
REMARK    9  A    between atoms: S_26  and  C_27
REMARK                            x       y       z     vdW  Elec       q    Type
REMARK                         _______ _______ _______ _____ _____    ______ ____
ROOT
ATOM      1  C   UNL     1      -1.171  -0.763   0.385  0.00  0.00    +0.122 A 
ATOM      2  C   UNL     1      -2.331   0.018   0.471  0.00  0.00    +0.046 A 
ATOM      3  C   UNL     1      -3.565  -0.533   0.363  0.00  0.00    +0.014 A 
ATOM      4  C   UNL     1      -3.698  -1.925   0.159  0.00  0.00    +0.010 A 
ATOM      5  C   UNL     1      -4.808  -2.748   0.015  0.00  0.00    +0.030 C 
ATOM      6  C   UNL     1      -4.261  -4.146  -0.175  0.00  0.00    +0.204 C 
ATOM      7  N   UNL     1      -2.801  -4.020  -0.123  0.00  0.00    -0.369 N 
ATOM      8  C   UNL     1      -2.483  -2.751   0.067  0.00  0.00    +0.048 A 
ATOM      9  C   UNL     1      -1.228  -2.110   0.183  0.00  0.00    +0.071 A 
ATOM     10  H   UNL     1      -2.170  -4.750  -0.215  0.00  0.00    +0.161 HD
ENDROOT
BRANCH   6  11
ATOM     11  C   UNL     1      -4.689  -4.693  -1.512  0.00  0.00    +0.241 C 
ATOM     12  O   UNL     1      -3.920  -4.676  -2.449  0.00  0.00    -0.273 OA
ATOM     13  N   UNL     1      -5.928  -5.202  -1.666  0.00  0.00    -0.309 N 
ATOM     14  H   UNL     1      -6.543  -5.215  -0.917  0.00  0.00    +0.149 HD
BRANCH  13  15
ATOM     15  C   UNL     1      -6.344  -5.734  -2.966  0.00  0.00    +0.143 C 
BRANCH  15  16
ATOM     16  C   UNL     1      -7.761  -6.238  -2.872  0.00  0.00    +0.012 A 
ATOM     17  C   UNL     1      -8.006  -7.588  -2.714  0.00  0.00    +0.024 A 
ATOM     18  C   UNL     1      -9.307  -8.051  -2.628  0.00  0.00    +0.018 A 
ATOM     19  C   UNL     1     -10.365  -7.163  -2.699  0.00  0.00    +0.019 A 
ATOM     20  C   UNL     1     -10.125  -5.812  -2.856  0.00  0.00    +0.047 A 
ATOM     21  C   UNL     1      -8.821  -5.345  -2.937  0.00  0.00    +0.125 A 
ATOM     22 BR   UNL     1      -9.639  -9.900  -2.413  0.00  0.00    -0.050 Br
BRANCH  21  23
ATOM     23  O   UNL     1      -8.582  -4.015  -3.087  0.00  0.00    -0.495 OA
ATOM     24  C   UNL     1      -9.721  -3.154  -3.146  0.00  0.00    +0.277 C 
ENDBRANCH  21  23
ENDBRANCH  15  16
ENDBRANCH  13  15
ENDBRANCH   6  11
BRANCH   1  26
ATOM     25  C   UNL     1       0.047   1.251   0.709  0.00  0.00    +0.277 C 
ATOM     26  O   UNL     1       0.041  -0.163   0.498  0.00  0.00    -0.495 OA
ENDBRANCH   1  26
BRANCH   5  27
ATOM     27  S   UNL     1      -6.403  -2.292   0.045  0.00  0.00    -0.091 S 
BRANCH  27  28
ATOM     28  C   UNL     1      -7.024  -3.011   1.529  0.00  0.00    +0.013 A 
ATOM     29  C   UNL     1      -6.158  -3.641   2.413  0.00  0.00    +0.015 A 
ATOM     30  C   UNL     1      -6.648  -4.204   3.575  0.00  0.00    +0.001 A 
ATOM     31  C   UNL     1      -8.000  -4.139   3.859  0.00  0.00    +0.000 A 
ATOM     32  C   UNL     1      -8.866  -3.512   2.981  0.00  0.00    +0.001 A 
ATOM     33  C   UNL     1      -8.381  -2.943   1.820  0.00  0.00    +0.015 A 
ENDBRANCH  27  28
ENDBRANCH   5  27
TORSDOF 7
