REMARK  Name = ZINC33026425
REMARK  12 active torsions:
REMARK  status: ('A' for Active; 'I' for Inactive)
REMARK    1  A    between atoms: C_1  and  C_2
REMARK    2  A    between atoms: C_10  and  C_12
REMARK    3  A    between atoms: C_14  and  O_22
REMARK    4  A    between atoms: C_15  and  O_20
REMARK    5  A    between atoms: C_17  and  O_18
REMARK    6  A    between atoms: O_18  and  C_19
REMARK    7  A    between atoms: O_20  and  C_21
REMARK    8  A    between atoms: O_22  and  C_23
REMARK    9  A    between atoms: C_27  and  C_30
REMARK   10  A    between atoms: C_33  and  O_38
REMARK   11  A    between atoms: C_34  and  O_36
REMARK   12  A    between atoms: O_36  and  C_37
REMARK                            x       y       z     vdW  Elec       q    Type
REMARK                         _______ _______ _______ _____ _____    ______ ____
ROOT
ATOM      1  C   UNL     1      -2.427  -0.701   0.591  0.00  0.00    +0.069 C 
ATOM      2  C   UNL     1      -0.984  -0.958   0.239  0.00  0.00    +0.087 A 
ATOM      3  C   UNL     1       0.002  -0.004   0.002  0.00  0.00    +0.049 A 
ATOM      4  C   UNL     1       1.129  -0.736  -0.272  0.00  0.00    +0.226 A 
ATOM      5  O   UNL     1       0.772  -2.013  -0.193  0.00  0.00    -0.339 OA
ATOM      6  N   UNL     1      -0.405  -2.124   0.094  0.00  0.00    -0.081 NA
ATOM      7  N   UNL     1       2.330  -0.119  -0.554  0.00  0.00    -0.286 N 
ATOM      8  C   UNL     1       2.461   1.222  -0.279  0.00  0.00    +0.019 C 
ATOM      9  C   UNL     1       1.404   2.013  -0.001  0.00  0.00    +0.024 C 
ATOM     10  C   UNL     1      -0.018   1.491   0.010  0.00  0.00    +0.094 C 
ATOM     11  C   UNL     1       1.580   3.377   0.297  0.00  0.00    +0.162 C 
ATOM     12  O   UNL     1       0.605   4.064   0.529  0.00  0.00    -0.292 OA
ATOM     13  C   UNL     1       2.945   4.004   0.336  0.00  0.00    +0.088 C 
ATOM     14  C   UNL     1       3.974   2.931   0.708  0.00  0.00    +0.032 C 
ATOM     15  C   UNL     1       3.863   1.788  -0.304  0.00  0.00    +0.059 C 
ATOM     16  H   UNL     1       3.157  -0.698  -0.991  0.00  0.00    +0.155 HD
ENDROOT
BRANCH  10  17
ATOM     17  C   UNL     1      -0.747   1.990  -1.211  0.00  0.00    +0.010 A 
ATOM     18  C   UNL     1      -0.277   1.674  -2.472  0.00  0.00    +0.057 A 
ATOM     19  C   UNL     1      -0.948   2.128  -3.596  0.00  0.00    +0.162 A 
ATOM     20  C   UNL     1      -2.088   2.912  -3.455  0.00  0.00    +0.165 A 
ATOM     21  C   UNL     1      -2.554   3.233  -2.191  0.00  0.00    +0.095 A 
ATOM     22  C   UNL     1      -1.883   2.771  -1.068  0.00  0.00    +0.128 A 
BRANCH  22  23
ATOM     23  O   UNL     1      -2.340   3.086   0.174  0.00  0.00    -0.495 OA
ATOM     24  C   UNL     1      -3.516   3.894   0.247  0.00  0.00    +0.277 C 
ENDBRANCH  22  23
BRANCH  20  25
ATOM     25  O   UNL     1      -2.745   3.363  -4.557  0.00  0.00    -0.491 OA
ATOM     26  C   UNL     1      -3.909   4.163  -4.337  0.00  0.00    +0.277 C 
ENDBRANCH  20  25
BRANCH  19  27
ATOM     27  O   UNL     1      -0.488   1.812  -4.837  0.00  0.00    -0.491 OA
ATOM     28  C   UNL     1       0.688   1.003  -4.907  0.00  0.00    +0.277 C 
ENDBRANCH  19  27
ENDBRANCH  10  17
BRANCH  14  29
ATOM     29  C   UNL     1       5.361   3.518   0.659  0.00  0.00    -0.040 A 
ATOM     30  C   UNL     1       5.848   4.042  -0.524  0.00  0.00    +0.008 A 
ATOM     31  C   UNL     1       7.117   4.587  -0.573  0.00  0.00    +0.049 A 
ATOM     32  C   UNL     1       7.909   4.600   0.564  0.00  0.00    +0.158 A 
ATOM     33  C   UNL     1       7.422   4.068   1.754  0.00  0.00    +0.162 A 
ATOM     34  C   UNL     1       6.146   3.528   1.797  0.00  0.00    +0.053 A 
BRANCH  33  35
ATOM     35  O   UNL     1       8.195   4.078   2.873  0.00  0.00    -0.491 OA
ATOM     36  C   UNL     1       7.630   3.515   4.058  0.00  0.00    +0.277 C 
ENDBRANCH  33  35
BRANCH  32  37
ATOM     37  O   UNL     1       9.160   5.131   0.517  0.00  0.00    -0.503 OA
ATOM     38  H   UNL     1       9.788   5.140   1.420  0.00  0.00    +0.292 HD
ENDBRANCH  32  37
ENDBRANCH  14  29
TORSDOF 7
