REMARK  Name = ZINC06732596
REMARK  10 active torsions:
REMARK  status: ('A' for Active; 'I' for Inactive)
REMARK    1  A    between atoms: C_1  and  C_2
REMARK    2  A    between atoms: C_2  and  O_3
REMARK    3  A    between atoms: O_3  and  C_4
REMARK    4  A    between atoms: C_4  and  C_6
REMARK    5  A    between atoms: C_10  and  N_11
REMARK    6  A    between atoms: C_12  and  C_14
REMARK    7  A    between atoms: C_20  and  C_26
REMARK    8  A    between atoms: C_20  and  C_27
REMARK    9  A    between atoms: C_22  and  C_24
REMARK   10  A    between atoms: C_22  and  C_25
REMARK                            x       y       z     vdW  Elec       q    Type
REMARK                         _______ _______ _______ _____ _____    ______ ____
ROOT
ATOM      1  C   UNL     1       7.346  -0.129  -0.070  0.00  0.00    +0.091 A 
ATOM      2  C   UNL     1       8.453  -1.062  -0.079  0.00  0.00    -0.024 A 
ATOM      3  C   UNL     1       8.113  -2.372  -0.088  0.00  0.00    -0.016 A 
ATOM      4  S   UNL     1       6.344  -2.374  -0.074  0.00  0.00    -0.079 S 
ATOM      5  C   UNL     1       6.061  -0.664  -0.060  0.00  0.00    +0.086 A 
ATOM      6  C   UNL     1       9.052  -3.534  -0.113  0.00  0.00    -0.041 C 
ATOM      7  N   UNL     1      10.436  -3.114   0.076  0.00  0.00    +0.389 N 
ATOM      8  C   UNL     1      10.679  -1.809   0.669  0.00  0.00    -0.069 C 
ATOM      9  C   UNL     1       9.931  -0.694  -0.071  0.00  0.00    +0.024 C 
ATOM     10  C   UNL     1      10.277  -1.792   2.147  0.00  0.00    -0.010 C 
ATOM     11  C   UNL     1      12.186  -1.503   0.585  0.00  0.00    -0.010 C 
ATOM     12  C   UNL     1       8.646  -4.539   0.974  0.00  0.00    -0.005 C 
ATOM     13  C   UNL     1       8.922  -4.233  -1.479  0.00  0.00    -0.005 C 
ATOM     14  H   UNL     1      10.949  -3.828   0.737  0.00  0.00    -0.084 HD
ATOM     15  H   UNL     1      10.947  -3.084  -0.898  0.00  0.00    -0.084 HD
ENDROOT
BRANCH   5  16
ATOM     16  N   UNL     1       4.851   0.009  -0.045  0.00  0.00    -0.275 N 
ATOM     17  C   UNL     1       3.695  -0.684  -0.037  0.00  0.00    +0.249 C 
ATOM     18  O   UNL     1       3.715  -1.900  -0.044  0.00  0.00    -0.270 OA
ATOM     19  H   UNL     1       4.833   1.108  -0.039  0.00  0.00    +0.156 HD
BRANCH  17  20
ATOM     20  C   UNL     1       2.404   0.034  -0.021  0.00  0.00    +0.037 A 
ATOM     21  C   UNL     1       1.204  -0.681  -0.014  0.00  0.00    +0.013 A 
ATOM     22  C   UNL     1       0.002  -0.004   0.002  0.00  0.00    +0.001 A 
ATOM     23  C   UNL     1      -0.017   1.379   0.010  0.00  0.00    +0.000 A 
ATOM     24  C   UNL     1       1.168   2.094   0.002  0.00  0.00    +0.001 A 
ATOM     25  C   UNL     1       2.377   1.430  -0.013  0.00  0.00    +0.013 A 
ENDBRANCH  17  20
ENDBRANCH   5  16
BRANCH   1  26
ATOM     26  C   UNL     1       7.556   1.320  -0.074  0.00  0.00    +0.342 C 
ATOM     27  O   UNL     1       7.650   1.924   0.978  0.00  0.00    -0.245 OA
BRANCH  26  28
ATOM     28  O   UNL     1       7.644   1.985  -1.244  0.00  0.00    -0.461 OA
BRANCH  28  30
ATOM     29  C   UNL     1       7.926   3.997  -2.588  0.00  0.00    +0.048 C 
ATOM     30  C   UNL     1       7.852   3.421  -1.172  0.00  0.00    +0.229 C 
ENDBRANCH  28  30
ENDBRANCH  26  28
ENDBRANCH   1  26
TORSDOF 5
