REMARK  Name = ZINC39636126
REMARK  9 active torsions:
REMARK  status: ('A' for Active; 'I' for Inactive)
REMARK    1  A    between atoms: C_1  and  C_2
REMARK    2  A    between atoms: C_8  and  N_10
REMARK    3  A    between atoms: C_11  and  C_13
REMARK    4  A    between atoms: C_24  and  C_26
REMARK    5  A    between atoms: C_26  and  C_28
REMARK    6  A    between atoms: C_26  and  O_31
REMARK    7  A    between atoms: C_28  and  C_29
REMARK    8  A    between atoms: C_28  and  C_30
REMARK    9  A    between atoms: O_31  and  C_32
REMARK                            x       y       z     vdW  Elec       q    Type
REMARK                         _______ _______ _______ _____ _____    ______ ____
ROOT
ATOM      1  C   UNL     1      -0.433   0.192   5.286  0.00  0.00    +0.100 C 
ATOM      2  C   UNL     1      -0.840   1.623   4.869  0.00  0.00    +0.121 C 
ATOM      3  N   UNL     1      -0.282   2.494   5.929  0.00  0.00    -0.297 N 
ATOM      4  C   UNL     1       1.041   1.900   6.237  0.00  0.00    +0.115 C 
ATOM      5  C   UNL     1       0.802   0.378   6.183  0.00  0.00    -0.004 C 
ATOM      6  C   UNL     1       2.010  -0.324   5.570  0.00  0.00    -0.010 C 
ATOM      7  C   UNL     1       3.212  -0.175   6.508  0.00  0.00    -0.082 C 
ATOM      8  N   UNL     1       2.890  -0.762   7.814  0.00  0.00    +0.379 N 
ATOM      9  C   UNL     1       1.787  -0.021   8.438  0.00  0.00    -0.082 C 
ATOM     10  C   UNL     1       0.525  -0.164   7.582  0.00  0.00    -0.010 C 
ATOM     11  C   UNL     1      -0.849   3.582   6.488  0.00  0.00    +0.257 C 
ATOM     12  O   UNL     1      -0.223   4.251   7.283  0.00  0.00    -0.272 OA
ATOM     13  H   UNL     1       2.619  -1.726   7.691  0.00  0.00    -0.086 HD
ATOM     14  H   UNL     1       3.703  -0.717   8.411  0.00  0.00    -0.086 HD
ENDROOT
BRANCH   1  16
ATOM     15  N   UNL     1      -0.193  -1.971   4.109  0.00  0.00    -0.312 N 
ATOM     16  C   UNL     1      -0.082  -0.628   4.071  0.00  0.00    +0.218 C 
ATOM     17  O   UNL     1       0.301  -0.080   3.060  0.00  0.00    -0.275 OA
ATOM     18  H   UNL     1      -0.499  -2.410   4.919  0.00  0.00    +0.149 HD
BRANCH  15  25
ATOM     19  C   UNL     1      -2.114  -3.825   2.987  0.00  0.00    +0.009 C 
ATOM     20  C   UNL     1      -0.608  -4.097   2.974  0.00  0.00    +0.006 C 
ATOM     21  C   UNL     1      -0.217  -4.864   4.238  0.00  0.00    +0.005 C 
ATOM     22  C   UNL     1       1.289  -5.136   4.225  0.00  0.00    +0.000 C 
ATOM     23  C   UNL     1       2.046  -3.807   4.180  0.00  0.00    +0.002 C 
ATOM     24  C   UNL     1       1.655  -3.040   2.916  0.00  0.00    +0.022 C 
ATOM     25  C   UNL     1       0.150  -2.768   2.929  0.00  0.00    +0.076 C 
ENDBRANCH  15  25
ENDBRANCH   1  16
BRANCH  11  26
ATOM     26  C   UNL     1      -2.260   3.967   6.126  0.00  0.00    +0.261 C 
BRANCH  26  27
ATOM     27  C   UNL     1      -3.240   3.237   7.047  0.00  0.00    +0.033 C 
ATOM     28  C   UNL     1      -4.662   3.733   6.773  0.00  0.00    +0.011 C 
ATOM     29  C   UNL     1      -3.165   1.732   6.782  0.00  0.00    +0.011 C 
ENDBRANCH  26  27
BRANCH  26  30
ATOM     30  O   UNL     1      -2.423   5.378   6.278  0.00  0.00    -0.479 OA
BRANCH  30  31
ATOM     31  C   UNL     1      -3.235   6.006   5.387  0.00  0.00    +0.122 A 
ATOM     32  C   UNL     1      -3.446   7.373   5.483  0.00  0.00    +0.045 A 
ATOM     33  C   UNL     1      -4.271   8.009   4.575  0.00  0.00    +0.004 A 
ATOM     34  C   UNL     1      -4.886   7.283   3.572  0.00  0.00    +0.000 A 
ATOM     35  C   UNL     1      -4.677   5.919   3.475  0.00  0.00    +0.004 A 
ATOM     36  C   UNL     1      -3.848   5.280   4.376  0.00  0.00    +0.045 A 
ENDBRANCH  30  31
ENDBRANCH  26  30
ENDBRANCH  11  26
TORSDOF 6
