REMARK  Name = ZINC39990640
REMARK  9 active torsions:
REMARK  status: ('A' for Active; 'I' for Inactive)
REMARK    1  A    between atoms: C_1  and  C_2
REMARK    2  A    between atoms: C_2  and  C_3
REMARK    3  A    between atoms: C_6  and  C_9
REMARK    4  A    between atoms: C_9  and  C_11
REMARK    5  A    between atoms: C_9  and  N_16
REMARK    6  A    between atoms: N_16  and  C_17
REMARK    7  A    between atoms: C_17  and  C_18
REMARK    8  A    between atoms: N_20  and  C_21
REMARK    9  A    between atoms: C_21  and  C_28
REMARK                            x       y       z     vdW  Elec       q    Type
REMARK                         _______ _______ _______ _____ _____    ______ ____
ROOT
ATOM      1  N   UNL     1       3.721  -2.863  -4.380  0.00  0.00    +0.392 N 
ATOM      2  H   UNL     1       4.436  -2.422  -3.822  0.00  0.00    -0.084 HD
ATOM      3  H   UNL     1       3.288  -3.602  -3.847  0.00  0.00    -0.084 HD
ENDROOT
BRANCH   1   4
ATOM      4  C   UNL     1       2.707  -1.868  -4.752  0.00  0.00    -0.003 C 
BRANCH   4   8
ATOM      5  C   UNL     1       0.707  -0.490  -1.238  0.00  0.00    -0.048 A 
ATOM      6  C   UNL     1      -0.011  -0.719  -2.397  0.00  0.00    +0.004 A 
ATOM      7  C   UNL     1       0.636  -1.164  -3.534  0.00  0.00    +0.002 A 
ATOM      8  C   UNL     1       2.002  -1.381  -3.513  0.00  0.00    -0.057 A 
ATOM      9  C   UNL     1       2.720  -1.152  -2.354  0.00  0.00    +0.002 A 
ATOM     10  C   UNL     1       2.073  -0.702  -1.218  0.00  0.00    +0.004 A 
BRANCH   5  12
ATOM     11  C   UNL     1      -0.019   1.526   0.010  0.00  0.00    +0.009 C 
ATOM     12  C   UNL     1       0.002  -0.004   0.002  0.00  0.00    +0.032 C 
ENDBRANCH   5  12
ENDBRANCH   4   8
BRANCH   4  13
ATOM     13  C   UNL     1       3.373  -0.705  -5.441  0.00  0.00    -0.020 A 
ATOM     14  C   UNL     1       2.950   0.010  -6.512  0.00  0.00    +0.010 A 
ATOM     15  C   UNL     1       3.734   1.048  -6.977  0.00  0.00    +0.008 A 
ATOM     16  C   UNL     1       4.904   1.321  -6.349  0.00  0.00    +0.045 A 
ATOM     17  S   UNL     1       4.922   0.094  -5.053  0.00  0.00    -0.103 S 
ENDBRANCH   4  13
ENDBRANCH   1   4
BRANCH   1  18
ATOM     18  C   UNL     1       4.325  -3.425  -5.595  0.00  0.00    +0.016 C 
BRANCH  18  19
ATOM     19  C   UNL     1       5.366  -4.446  -5.213  0.00  0.00    +0.196 C 
ATOM     20  O   UNL     1       5.583  -4.682  -4.043  0.00  0.00    -0.278 OA
ATOM     21  N   UNL     1       6.056  -5.097  -6.170  0.00  0.00    -0.310 N 
ATOM     22  H   UNL     1       5.882  -4.908  -7.106  0.00  0.00    +0.149 HD
BRANCH  21  23
ATOM     23  C   UNL     1       7.067  -6.089  -5.799  0.00  0.00    +0.052 C 
ATOM     24  C   UNL     1       6.413  -7.146  -4.911  0.00  0.00    +0.049 C 
ATOM     25  C   UNL     1       5.852  -8.307  -5.779  0.00  0.00    +0.168 C 
ATOM     26  S   UNL     1       7.209  -8.443  -7.025  0.00  0.00    -0.029 S 
ATOM     27  O   UNL     1       6.656  -8.821  -8.278  0.00  0.00    -0.174 OA
ATOM     28  O   UNL     1       8.277  -9.198  -6.472  0.00  0.00    -0.174 OA
ATOM     29  C   UNL     1       7.689  -6.666  -7.085  0.00  0.00    +0.191 C 
ATOM     30  C   UNL     1       8.165  -5.390  -4.995  0.00  0.00    +0.033 C 
ENDBRANCH  21  23
ENDBRANCH  18  19
ENDBRANCH   1  18
TORSDOF 7
