REMARK  Name = ZINC63271156
REMARK  7 active torsions:
REMARK  status: ('A' for Active; 'I' for Inactive)
REMARK    1  A    between atoms: C_1  and  O_2
REMARK    2  A    between atoms: O_2  and  C_3
REMARK    3  A    between atoms: C_7  and  C_12
REMARK    4  A    between atoms: C_12  and  C_13
REMARK    5  A    between atoms: C_13  and  N_14
REMARK    6  A    between atoms: C_15  and  C_17
REMARK    7  A    between atoms: C_17  and  N_18
REMARK                            x       y       z     vdW  Elec       q    Type
REMARK                         _______ _______ _______ _____ _____    ______ ____
ROOT
ATOM      1  N   UNL     1      -8.174  -1.964  -1.377  0.00  0.00    -0.314 N 
ATOM      2  C   UNL     1      -8.861  -1.890  -2.535  0.00  0.00    +0.230 C 
ATOM      3  O   UNL     1      -8.306  -2.135  -3.585  0.00  0.00    -0.274 OA
ATOM      4  H   UNL     1      -8.617  -1.768  -0.537  0.00  0.00    +0.149 HD
ENDROOT
BRANCH   1   5
ATOM      5  C   UNL     1      -6.758  -2.339  -1.389  0.00  0.00    +0.108 C 
BRANCH   5   6
ATOM      6  C   UNL     1      -6.221  -2.347   0.044  0.00  0.00    +0.052 C 
BRANCH   6  11
ATOM      7  C   UNL     1      -1.195  -0.644   0.003  0.00  0.00    +0.122 A 
ATOM      8  C   UNL     1      -2.368   0.135   0.012  0.00  0.00    +0.046 A 
ATOM      9  C   UNL     1      -3.593  -0.432   0.022  0.00  0.00    +0.013 A 
ATOM     10  C   UNL     1      -3.703  -1.897   0.024  0.00  0.00    -0.001 A 
ATOM     11  C   UNL     1      -4.764  -2.733   0.033  0.00  0.00    -0.040 C 
ATOM     12  C   UNL     1      -4.196  -4.134   0.029  0.00  0.00    +0.144 C 
ATOM     13  N   UNL     1      -2.737  -3.977   0.017  0.00  0.00    -0.380 N 
ATOM     14  C   UNL     1      -2.455  -2.695   0.014  0.00  0.00    +0.046 A 
ATOM     15  C   UNL     1      -1.220  -2.001  -0.001  0.00  0.00    +0.071 A 
ATOM     16  H   UNL     1      -2.090  -4.699   0.012  0.00  0.00    +0.160 HD
BRANCH   7  18
ATOM     17  C   UNL     1      -0.011   1.415  -0.002  0.00  0.00    +0.277 C 
ATOM     18  O   UNL     1       0.006  -0.014  -0.007  0.00  0.00    -0.495 OA
ENDBRANCH   7  18
ENDBRANCH   6  11
ENDBRANCH   5   6
ENDBRANCH   1   5
BRANCH   2  19
ATOM     19  C   UNL     1     -10.317  -1.504  -2.523  0.00  0.00    +0.201 C 
BRANCH  19  20
ATOM     20  N   UNL     1     -10.831  -1.496  -3.895  0.00  0.00    -0.291 N 
ATOM     21  C   UNL     1     -12.120  -1.178  -4.130  0.00  0.00    +0.303 C 
ATOM     22  O   UNL     1     -12.878  -0.988  -3.200  0.00  0.00    -0.253 OA
ATOM     23  N   UNL     1     -12.567  -1.070  -5.397  0.00  0.00    -0.280 N 
ATOM     24  C   UNL     1     -13.934  -0.614  -5.666  0.00  0.00    +0.110 C 
ATOM     25  C   UNL     1     -13.926   0.620  -6.576  0.00  0.00    +0.033 C 
ATOM     26  C   UNL     1     -13.239   0.254  -7.894  0.00  0.00    +0.069 C 
ATOM     27  C   UNL     1     -12.933   1.450  -8.735  0.00  0.00    -0.013 A 
ATOM     28  C   UNL     1     -13.729   2.405  -9.319  0.00  0.00    +0.006 A 
ATOM     29  C   UNL     1     -13.091   3.390 -10.067  0.00  0.00    +0.000 A 
ATOM     30  C   UNL     1     -11.718   3.406 -10.216  0.00  0.00    +0.002 A 
ATOM     31  C   UNL     1     -10.903   2.453  -9.628  0.00  0.00    +0.028 A 
ATOM     32  C   UNL     1     -11.529   1.459  -8.865  0.00  0.00    +0.068 A 
ATOM     33  N   UNL     1     -10.985   0.442  -8.148  0.00  0.00    -0.254 NA
ATOM     34  C   UNL     1     -11.858  -0.287  -7.532  0.00  0.00    +0.044 C 
ATOM     35  C   UNL     1     -11.683  -1.404  -6.535  0.00  0.00    +0.160 C 
ATOM     36  H   UNL     1     -10.244  -1.720  -4.634  0.00  0.00    +0.151 HD
ENDBRANCH  19  20
ENDBRANCH   2  19
TORSDOF 6
