REMARK  Name = ZINC01568969
REMARK  7 active torsions:
REMARK  status: ('A' for Active; 'I' for Inactive)
REMARK    1  A    between atoms: C_1  and  C_2
REMARK    2  A    between atoms: C_7  and  N_8
REMARK    3  A    between atoms: N_8  and  C_9
REMARK    4  A    between atoms: C_10  and  C_27
REMARK    5  A    between atoms: C_11  and  N_26
REMARK    6  A    between atoms: C_12  and  C_14
REMARK    7  A    between atoms: C_14  and  C_16
REMARK                            x       y       z     vdW  Elec       q    Type
REMARK                         _______ _______ _______ _____ _____    ______ ____
ROOT
ATOM      1  C   UNL     1      -0.058  -0.709   3.602  0.00  0.00    +0.090 A 
ATOM      2  C   UNL     1      -0.171  -0.189   4.892  0.00  0.00    +0.101 A 
ATOM      3  C   UNL     1      -0.240  -1.091   5.950  0.00  0.00    +0.062 A 
ATOM      4  C   UNL     1      -0.188  -2.439   5.598  0.00  0.00    +0.086 A 
ATOM      5  S   UNL     1      -0.054  -2.373   3.824  0.00  0.00    -0.067 S 
ENDROOT
BRANCH   3   6
ATOM      6  N   UNL     1      -0.353  -0.676   7.269  0.00  0.00    -0.356 N 
ATOM      7  H   UNL     1      -0.387   0.271   7.478  0.00  0.00    +0.142 HD
ATOM      8  H   UNL     1      -0.399  -1.332   7.982  0.00  0.00    +0.142 HD
ENDBRANCH   3   6
BRANCH   1   9
ATOM      9  N   UNL     1       0.025  -0.015   2.416  0.00  0.00    -0.308 N 
ATOM     10  H   UNL     1      -0.080   0.949   2.410  0.00  0.00    +0.153 HD
BRANCH   9  17
ATOM     11  C   UNL     1      -1.405   0.801   0.096  0.00  0.00    +0.046 C 
ATOM     12  C   UNL     1      -0.414  -0.335   0.064  0.00  0.00    -0.028 A 
ATOM     13  C   UNL     1      -0.174  -1.009  -1.117  0.00  0.00    +0.025 A 
ATOM     14  C   UNL     1       0.735  -2.052  -1.147  0.00  0.00    +0.041 A 
ATOM     15  C   UNL     1       1.406  -2.422   0.005  0.00  0.00    +0.022 A 
ATOM     16  C   UNL     1       1.170  -1.751   1.189  0.00  0.00    +0.025 A 
ATOM     17  C   UNL     1       0.262  -0.700   1.221  0.00  0.00    +0.035 A 
ATOM     18 CL   UNL     1       1.034  -2.898  -2.634  0.00  0.00    -0.084 Cl
ENDBRANCH   9  17
ENDBRANCH   1   9
BRANCH   4  19
ATOM     19  C   UNL     1      -0.235  -3.572   6.437  0.00  0.00    +0.236 C 
ATOM     20  O   UNL     1      -0.334  -3.432   7.646  0.00  0.00    -0.283 OA
BRANCH  19  21
ATOM     21  C   UNL     1      -0.165  -4.922   5.856  0.00  0.00    +0.177 A 
ATOM     22  C   UNL     1      -0.206  -6.080   6.563  0.00  0.00    +0.061 A 
ATOM     23  C   UNL     1      -0.106  -7.159   5.580  0.00  0.00    +0.022 A 
ATOM     24  C   UNL     1      -0.091  -8.553   5.662  0.00  0.00    +0.031 A 
ATOM     25  C   UNL     1       0.018  -9.299   4.521  0.00  0.00    +0.042 A 
ATOM     26  C   UNL     1       0.113  -8.677   3.282  0.00  0.00    +0.023 A 
ATOM     27  C   UNL     1       0.099  -7.303   3.180  0.00  0.00    +0.048 A 
ATOM     28  C   UNL     1      -0.011  -6.525   4.327  0.00  0.00    +0.136 A 
ATOM     29  O   UNL     1      -0.055  -5.195   4.539  0.00  0.00    -0.452 OA
ATOM     30 CL   UNL     1       0.037 -11.031   4.621  0.00  0.00    -0.084 Cl
ENDBRANCH  19  21
ENDBRANCH   4  19
BRANCH   2  31
ATOM     31  C   UNL     1      -0.214   1.224   5.119  0.00  0.00    +0.103 C 
ATOM     32  N   UNL     1      -0.247   2.345   5.300  0.00  0.00    -0.191 NA
ENDBRANCH   2  31
TORSDOF 6
