REMARK  Name = ZINC02678449
REMARK  7 active torsions:
REMARK  status: ('A' for Active; 'I' for Inactive)
REMARK    1  A    between atoms: C_4  and  N_28
REMARK    2  A    between atoms: C_5  and  C_7
REMARK    3  A    between atoms: N_9  and  C_10
REMARK    4  A    between atoms: C_10  and  C_12
REMARK    5  A    between atoms: C_10  and  N_16
REMARK    6  A    between atoms: N_16  and  C_17
REMARK    7  A    between atoms: C_18  and  C_26
REMARK                            x       y       z     vdW  Elec       q    Type
REMARK                         _______ _______ _______ _____ _____    ______ ____
ROOT
ATOM      1  C   UNL     1      -2.252   7.132  -3.017  0.00  0.00    +0.211 C 
ENDROOT
BRANCH   1   4
ATOM      2  C   UNL     1      -0.353   7.253  -4.539  0.00  0.00    +0.248 C 
ATOM      3  O   UNL     1      -0.537   6.084  -4.814  0.00  0.00    -0.270 OA
ATOM      4  N   UNL     1      -1.157   7.871  -3.651  0.00  0.00    -0.289 N 
ATOM      5  H   UNL     1      -1.010   8.804  -3.431  0.00  0.00    +0.151 HD
BRANCH   2  10
ATOM      6  C   UNL     1       2.737   9.338  -4.996  0.00  0.00    +0.001 A 
ATOM      7  C   UNL     1       2.822   9.395  -6.376  0.00  0.00    +0.002 A 
ATOM      8  C   UNL     1       1.877   8.758  -7.160  0.00  0.00    +0.033 A 
ATOM      9  C   UNL     1       0.843   8.060  -6.569  0.00  0.00    +0.138 A 
ATOM     10  C   UNL     1       0.752   7.998  -5.178  0.00  0.00    +0.067 A 
ATOM     11  C   UNL     1       1.706   8.648  -4.393  0.00  0.00    +0.015 A 
BRANCH   9  12
ATOM     12  N   UNL     1      -0.167   7.379  -7.410  0.00  0.00    +0.057 N 
ATOM     13  O   UNL     1      -0.023   7.332  -8.618  0.00  0.00    -0.126 OA
ATOM     14  O   UNL     1      -1.143   6.865  -6.893  0.00  0.00    -0.126 OA
ENDBRANCH   9  12
ENDBRANCH   2  10
ENDBRANCH   1   4
BRANCH   1  15
ATOM     15  C   UNL     1      -3.520   7.988  -3.032  0.00  0.00    +0.225 C 
ATOM     16 CL   UNL     1      -3.224   9.518  -2.126  0.00  0.00    -0.080 Cl
ATOM     17 CL   UNL     1      -3.963   8.376  -4.737  0.00  0.00    -0.080 Cl
ATOM     18 CL   UNL     1      -4.868   7.080  -2.253  0.00  0.00    -0.080 Cl
ENDBRANCH   1  15
BRANCH   1  19
ATOM     19  N   UNL     1      -1.892   6.817  -1.632  0.00  0.00    -0.316 N 
ATOM     20  H   UNL     1      -1.912   7.513  -0.956  0.00  0.00    +0.148 HD
BRANCH  19  21
ATOM     21  C   UNL     1      -1.524   5.528  -1.289  0.00  0.00    +0.085 A 
ATOM     22  C   UNL     1      -1.153   5.040  -0.044  0.00  0.00    +0.083 A 
ATOM     23  C   UNL     1      -0.809   3.631   0.049  0.00  0.00    -0.018 A 
ATOM     24  C   UNL     1      -0.890   2.941  -1.109  0.00  0.00    -0.004 A 
ATOM     25  S   UNL     1      -1.414   4.132  -2.309  0.00  0.00    -0.077 S 
ATOM     26  C   UNL     1      -0.598   1.487  -1.317  0.00  0.00    +0.043 C 
ATOM     27  C   UNL     1       0.172   0.969  -0.093  0.00  0.00    +0.005 C 
ATOM     28  C   UNL     1      -0.545   1.434   1.177  0.00  0.00    +0.005 C 
ATOM     29  C   UNL     1      -0.384   2.946   1.342  0.00  0.00    +0.037 C 
BRANCH  22  30
ATOM     30  C   UNL     1      -1.111   5.892   1.106  0.00  0.00    +0.102 C 
ATOM     31  N   UNL     1      -1.078   6.569   2.018  0.00  0.00    -0.191 NA
ENDBRANCH  22  30
ENDBRANCH  19  21
ENDBRANCH   1  19
TORSDOF 7
