REMARK  Name = ZINC00888155
REMARK  12 active torsions:
REMARK  status: ('A' for Active; 'I' for Inactive)
REMARK    1  A    between atoms: C_1  and  C_2
REMARK    2  A    between atoms: C_5  and  C_46
REMARK    3  A    between atoms: C_6  and  N_8
REMARK    4  A    between atoms: N_8  and  C_9
REMARK    5  A    between atoms: C_9  and  C_11
REMARK    6  A    between atoms: C_9  and  C_21
REMARK    7  A    between atoms: N_23  and  C_24
REMARK    8  A    between atoms: C_24  and  C_25
REMARK    9  A    between atoms: C_32  and  C_34
REMARK   10  A    between atoms: C_34  and  N_35
REMARK   11  A    between atoms: C_37  and  C_40
REMARK   12  A    between atoms: C_43  and  C_45
REMARK                            x       y       z     vdW  Elec       q    Type
REMARK                         _______ _______ _______ _____ _____    ______ ____
ROOT
ATOM      1  N   UNL     1       0.169  -2.628   2.616  0.00  0.00    -0.253 N 
ATOM      2  C   UNL     1       1.344  -2.444   3.249  0.00  0.00    +0.244 C 
ATOM      3  O   UNL     1       1.470  -2.786   4.405  0.00  0.00    -0.273 OA
ENDROOT
BRANCH   1   9
ATOM      4  C   UNL     1      -1.341   0.951  -0.398  0.00  0.00    +0.044 C 
ATOM      5  C   UNL     1      -0.739  -0.412  -0.175  0.00  0.00    -0.049 A 
ATOM      6  C   UNL     1      -0.361  -1.186  -1.257  0.00  0.00    +0.004 A 
ATOM      7  C   UNL     1       0.193  -2.437  -1.056  0.00  0.00    +0.005 A 
ATOM      8  C   UNL     1       0.370  -2.918   0.227  0.00  0.00    -0.029 A 
ATOM      9  C   UNL     1      -0.009  -2.143   1.315  0.00  0.00    +0.041 A 
ATOM     10  C   UNL     1      -0.560  -0.885   1.110  0.00  0.00    +0.027 A 
ATOM     11  C   UNL     1       0.973  -4.282   0.445  0.00  0.00    +0.045 C 
ENDBRANCH   1   9
BRANCH   1  12
ATOM     12  C   UNL     1      -0.923  -3.334   3.290  0.00  0.00    +0.199 C 
BRANCH  12  13
ATOM     13  C   UNL     1      -0.486  -4.739   3.618  0.00  0.00    +0.007 A 
ATOM     14  C   UNL     1       0.778  -5.179   3.716  0.00  0.00    +0.089 A 
ATOM     15  N   UNL     1       0.786  -6.511   4.029  0.00  0.00    -0.360 N 
ATOM     16  H   UNL     1       1.583  -7.050   4.153  0.00  0.00    +0.165 HD
ATOM     17  C   UNL     1      -0.507  -6.972   4.143  0.00  0.00    +0.047 A 
ATOM     18  C   UNL     1      -1.360  -5.881   3.897  0.00  0.00    +0.005 A 
ATOM     19  C   UNL     1      -2.744  -6.053   3.950  0.00  0.00    +0.010 A 
ATOM     20  C   UNL     1      -3.264  -7.282   4.246  0.00  0.00    +0.001 A 
ATOM     21  C   UNL     1      -2.426  -8.361   4.494  0.00  0.00    +0.002 A 
ATOM     22  C   UNL     1      -1.057  -8.215   4.437  0.00  0.00    +0.026 A 
ENDBRANCH  12  13
BRANCH  12  23
ATOM     23  C   UNL     1      -1.282  -2.609   4.562  0.00  0.00    +0.239 C 
ATOM     24  O   UNL     1      -0.585  -1.698   4.957  0.00  0.00    -0.273 OA
ATOM     25  N   UNL     1      -2.375  -2.973   5.260  0.00  0.00    -0.309 N 
ATOM     26  H   UNL     1      -2.932  -3.702   4.944  0.00  0.00    +0.149 HD
BRANCH  25  27
ATOM     27  C   UNL     1      -2.723  -2.269   6.496  0.00  0.00    +0.139 C 
BRANCH  27  28
ATOM     28  C   UNL     1      -3.979  -2.865   7.077  0.00  0.00    -0.030 A 
ATOM     29  C   UNL     1      -5.215  -2.365   6.711  0.00  0.00    +0.008 A 
ATOM     30  C   UNL     1      -6.368  -2.911   7.243  0.00  0.00    +0.038 A 
ATOM     31  C   UNL     1      -6.285  -3.959   8.144  0.00  0.00    +0.123 A 
ATOM     32  C   UNL     1      -5.046  -4.459   8.510  0.00  0.00    +0.038 A 
ATOM     33  C   UNL     1      -3.895  -3.915   7.973  0.00  0.00    +0.008 A 
ATOM     34  F   UNL     1      -7.411  -4.494   8.665  0.00  0.00    -0.205 F 
ENDBRANCH  27  28
ENDBRANCH  25  27
ENDBRANCH  12  23
ENDBRANCH   1  12
BRANCH   2  35
ATOM     35  C   UNL     1       2.502  -1.813   2.519  0.00  0.00    +0.264 C 
BRANCH  35  36
ATOM     36  N   UNL     1       3.656  -1.725   3.417  0.00  0.00    -0.154 N 
ATOM     37  N   UNL     1       3.921  -0.732   4.194  0.00  0.00    -0.127 NA
ATOM     38  C   UNL     1       5.034  -1.015   4.845  0.00  0.00    +0.239 A 
ATOM     39  N   UNL     1       5.427  -2.227   4.424  0.00  0.00    -0.105 NA
ATOM     40  N   UNL     1       4.560  -2.631   3.558  0.00  0.00    -0.045 NA
BRANCH  38  41
ATOM     41  C   UNL     1       5.715  -0.163   5.844  0.00  0.00    +0.175 A 
ATOM     42  C   UNL     1       6.865  -0.468   6.501  0.00  0.00    +0.053 A 
ATOM     43  C   UNL     1       7.149   0.621   7.350  0.00  0.00    +0.045 A 
ATOM     44  C   UNL     1       6.168   1.528   7.170  0.00  0.00    +0.103 A 
ATOM     45  O   UNL     1       5.307   1.053   6.255  0.00  0.00    -0.457 OA
ATOM     46  C   UNL     1       6.059   2.856   7.873  0.00  0.00    +0.086 C 
ENDBRANCH  38  41
ENDBRANCH  35  36
ENDBRANCH   2  35
TORSDOF 9
