REMARK  Name = ZINC39653874
REMARK  13 active torsions:
REMARK  status: ('A' for Active; 'I' for Inactive)
REMARK    1  A    between atoms: C_1  and  C_2
REMARK    2  A    between atoms: C_2  and  O_3
REMARK    3  A    between atoms: O_3  and  C_4
REMARK    4  A    between atoms: C_11  and  C_18
REMARK    5  A    between atoms: C_13  and  O_14
REMARK    6  A    between atoms: C_18  and  O_19
REMARK    7  A    between atoms: O_19  and  C_20
REMARK    8  A    between atoms: C_20  and  C_22
REMARK    9  A    between atoms: C_22  and  C_24
REMARK   10  A    between atoms: C_22  and  N_27
REMARK   11  A    between atoms: C_24  and  C_25
REMARK   12  A    between atoms: C_24  and  C_26
REMARK   13  A    between atoms: C_28  and  C_30
REMARK                            x       y       z     vdW  Elec       q    Type
REMARK                         _______ _______ _______ _____ _____    ______ ____
ROOT
ATOM      1  C   UNL     1      -3.328  -9.437   0.112  0.00  0.00    +0.405 C 
ATOM      2  O   UNL     1      -2.480  -9.191  -0.729  0.00  0.00    -0.226 OA
ATOM      3  N   UNL     1      -2.975  -9.615   1.377  0.00  0.00    -0.251 N 
ATOM      4  C   UNL     1      -1.687  -9.403   1.760  0.00  0.00    +0.040 A 
ATOM      5  C   UNL     1      -1.223  -9.932   2.978  0.00  0.00    +0.024 A 
ATOM      6  C   UNL     1       0.061  -9.727   3.371  0.00  0.00    +0.014 A 
ATOM      7  C   UNL     1       0.934  -8.984   2.557  0.00  0.00    +0.024 A 
ATOM      8  C   UNL     1       2.271  -8.761   2.946  0.00  0.00    +0.007 A 
ATOM      9  C   UNL     1       3.088  -8.024   2.111  0.00  0.00    +0.095 A 
ATOM     10  C   UNL     1       2.586  -7.524   0.919  0.00  0.00    +0.285 A 
ATOM     11  O   UNL     1       1.318  -7.737   0.552  0.00  0.00    -0.425 OA
ATOM     12  C   UNL     1       0.477  -8.449   1.331  0.00  0.00    +0.141 A 
ATOM     13  C   UNL     1      -0.831  -8.668   0.938  0.00  0.00    +0.070 A 
ATOM     14  H   UNL     1      -3.634  -9.896   2.031  0.00  0.00    +0.158 HD
ENDROOT
BRANCH  10  15
ATOM     15  O   UNL     1       3.394  -6.807   0.113  0.00  0.00    -0.480 OA
ATOM     16  H   UNL     1       2.966  -6.496  -0.696  0.00  0.00    +0.295 HD
ENDBRANCH  10  15
BRANCH   1  17
ATOM     17  O   UNL     1      -4.629  -9.528  -0.245  0.00  0.00    -0.450 OA
BRANCH  17  19
ATOM     18  C   UNL     1      -6.447  -9.466  -1.836  0.00  0.00    +0.048 C 
ATOM     19  C   UNL     1      -4.938  -9.325  -1.625  0.00  0.00    +0.230 C 
ENDBRANCH  17  19
ENDBRANCH   1  17
BRANCH   8  20
ATOM     20  C   UNL     1       2.796  -9.314   4.246  0.00  0.00    +0.268 C 
BRANCH  20  21
ATOM     21  O   UNL     1       3.248  -8.239   5.073  0.00  0.00    -0.459 OA
BRANCH  21  22
ATOM     22  C   UNL     1       3.656  -8.554   6.312  0.00  0.00    +0.328 C 
ATOM     23  O   UNL     1       3.718  -9.711   6.652  0.00  0.00    -0.249 OA
BRANCH  22  24
ATOM     24  C   UNL     1       4.038  -7.463   7.279  0.00  0.00    +0.185 C 
BRANCH  24  25
ATOM     25  N   UNL     1       4.808  -8.038   8.385  0.00  0.00    -0.298 N 
ATOM     26  C   UNL     1       5.667  -7.267   9.080  0.00  0.00    +0.247 C 
ATOM     27  O   UNL     1       5.803  -6.094   8.790  0.00  0.00    -0.270 OA
ATOM     28  H   UNL     1       4.700  -8.974   8.616  0.00  0.00    +0.150 HD
BRANCH  26  29
ATOM     29  C   UNL     1       6.444  -7.846  10.194  0.00  0.00    +0.072 A 
ATOM     30  C   UNL     1       6.296  -9.194  10.527  0.00  0.00    +0.016 A 
ATOM     31  C   UNL     1       7.024  -9.729  11.568  0.00  0.00    +0.001 A 
ATOM     32  C   UNL     1       7.902  -8.934  12.285  0.00  0.00    +0.003 A 
ATOM     33  C   UNL     1       8.056  -7.599  11.964  0.00  0.00    +0.039 A 
ATOM     34  C   UNL     1       7.337  -7.049  10.918  0.00  0.00    +0.135 A 
ATOM     35  F   UNL     1       7.491  -5.745  10.601  0.00  0.00    -0.205 F 
ENDBRANCH  26  29
ENDBRANCH  24  25
BRANCH  24  36
ATOM     36  C   UNL     1       2.771  -6.803   7.829  0.00  0.00    +0.014 C 
ATOM     37  C   UNL     1       2.009  -6.130   6.686  0.00  0.00    +0.009 C 
ATOM     38  C   UNL     1       1.883  -7.867   8.477  0.00  0.00    +0.009 C 
ENDBRANCH  24  36
ENDBRANCH  22  24
ENDBRANCH  21  22
ENDBRANCH  20  21
ENDBRANCH   8  20
TORSDOF 10
