REMARK  Name = ZINC35004591
REMARK  9 active torsions:
REMARK  status: ('A' for Active; 'I' for Inactive)
REMARK    1  A    between atoms: C_1  and  C_2
REMARK    2  A    between atoms: C_2  and  C_3
REMARK    3  A    between atoms: C_3  and  C_5
REMARK    4  A    between atoms: C_3  and  C_6
REMARK    5  A    between atoms: C_6  and  C_8
REMARK    6  A    between atoms: C_6  and  N_27
REMARK    7  A    between atoms: C_14  and  C_17
REMARK    8  A    between atoms: N_20  and  C_21
REMARK    9  A    between atoms: N_30  and  C_31
REMARK                            x       y       z     vdW  Elec       q    Type
REMARK                         _______ _______ _______ _____ _____    ______ ____
ROOT
ATOM      1  C   UNL     1       2.904   1.768   1.106  0.00  0.00    +0.236 C 
ATOM      2  O   UNL     1       3.433   2.331   2.041  0.00  0.00    -0.274 OA
ATOM      3  N   UNL     1       2.504   2.477   0.031  0.00  0.00    -0.297 N 
ATOM      4  C   UNL     1       1.755   1.830  -1.055  0.00  0.00    +0.127 C 
ATOM      5  C   UNL     1       2.495   2.077  -2.376  0.00  0.00    +0.128 C 
ATOM      6  N   UNL     1       2.801   3.511  -2.481  0.00  0.00    -0.280 N 
ATOM      7  C   UNL     1       3.550   4.158  -1.395  0.00  0.00    +0.092 C 
ATOM      8  C   UNL     1       2.804   3.912  -0.072  0.00  0.00    +0.130 C 
ATOM      9  C   UNL     1       4.957   3.564  -1.317  0.00  0.00    +0.030 C 
ATOM     10  C   UNL     1       2.401   4.220  -3.556  0.00  0.00    +0.303 C 
ATOM     11  O   UNL     1       2.741   5.381  -3.679  0.00  0.00    -0.253 OA
ATOM     12  N   UNL     1       1.625   3.642  -4.494  0.00  0.00    -0.296 N 
ATOM     13  H   UNL     1       1.292   2.741  -4.360  0.00  0.00    +0.151 HD
ENDROOT
BRANCH  12  14
ATOM     14  C   UNL     1       1.285   4.374  -5.716  0.00  0.00    +0.074 C 
ATOM     15  C   UNL     1       0.061   5.256  -5.458  0.00  0.00    +0.022 C 
ATOM     16  C   UNL     1      -0.294   6.021  -6.734  0.00  0.00    +0.002 C 
ATOM     17  C   UNL     1      -0.610   5.027  -7.854  0.00  0.00    +0.000 C 
ATOM     18  C   UNL     1       0.614   4.145  -8.112  0.00  0.00    +0.002 C 
ATOM     19  C   UNL     1       0.969   3.380  -6.836  0.00  0.00    +0.022 C 
ENDBRANCH  12  14
BRANCH   1  20
ATOM     20  C   UNL     1       2.692   0.277   1.145  0.00  0.00    +0.163 C 
BRANCH  20  21
ATOM     21  N   UNL     1       3.671  -0.331   2.051  0.00  0.00    -0.288 N 
ATOM     22  C   UNL     1       4.028  -1.621   1.890  0.00  0.00    +0.304 C 
ATOM     23  O   UNL     1       3.538  -2.280   0.993  0.00  0.00    -0.252 OA
ATOM     24  N   UNL     1       4.928  -2.180   2.723  0.00  0.00    -0.269 N 
ATOM     25  H   UNL     1       4.061   0.194   2.767  0.00  0.00    +0.151 HD
ATOM     26  H   UNL     1       5.261  -1.679   3.484  0.00  0.00    +0.156 HD
BRANCH  24  27
ATOM     27  C   UNL     1       5.382  -3.483   2.490  0.00  0.00    +0.035 A 
ATOM     28  C   UNL     1       5.534  -3.945   1.189  0.00  0.00    +0.025 A 
ATOM     29  C   UNL     1       5.982  -5.232   0.962  0.00  0.00    +0.022 A 
ATOM     30  C   UNL     1       6.279  -6.061   2.030  0.00  0.00    +0.041 A 
ATOM     31  C   UNL     1       6.128  -5.603   3.327  0.00  0.00    +0.022 A 
ATOM     32  C   UNL     1       5.686  -4.315   3.559  0.00  0.00    +0.025 A 
ATOM     33 CL   UNL     1       6.842  -7.677   1.741  0.00  0.00    -0.084 Cl
ENDBRANCH  24  27
ENDBRANCH  20  21
BRANCH  20  34
ATOM     34  C   UNL     1       1.278  -0.025   1.646  0.00  0.00    +0.015 C 
ATOM     35  C   UNL     1       1.147   0.418   3.104  0.00  0.00    +0.010 C 
BRANCH  34  37
ATOM     36  C   UNL     1       1.021  -1.950   0.073  0.00  0.00    +0.004 C 
ATOM     37  C   UNL     1       1.011  -1.528   1.544  0.00  0.00    +0.002 C 
ENDBRANCH  34  37
ENDBRANCH  20  34
ENDBRANCH   1  20
TORSDOF 6
