REMARK  Name = ZINC48936813
REMARK  3 active torsions:
REMARK  status: ('A' for Active; 'I' for Inactive)
REMARK    1  A    between atoms: C_5  and  C_6
REMARK    2  A    between atoms: C_12  and  C_15
REMARK    3  A    between atoms: C_15  and  N_16
REMARK                            x       y       z     vdW  Elec       q    Type
REMARK                         _______ _______ _______ _____ _____    ______ ____
ROOT
ATOM      1  C   UNL     1       2.982  -2.057   1.855  0.00  0.00    +0.239 C 
ATOM      2  O   UNL     1       1.894  -2.592   1.760  0.00  0.00    -0.271 OA
ATOM      3  N   UNL     1       4.068  -2.790   2.172  0.00  0.00    -0.298 N 
ATOM      4  C   UNL     1       5.366  -2.142   2.406  0.00  0.00    +0.108 C 
ATOM      5  C   UNL     1       5.899  -2.584   3.772  0.00  0.00    +0.019 C 
ATOM      6  C   UNL     1       5.940  -4.113   3.828  0.00  0.00    +0.008 C 
ATOM      7  C   UNL     1       4.525  -4.670   3.659  0.00  0.00    +0.024 C 
ATOM      8  C   UNL     1       3.975  -4.251   2.297  0.00  0.00    +0.113 C 
ENDROOT
BRANCH   1  13
ATOM      9  C   UNL     1       0.369   1.506  -0.605  0.00  0.00    +0.001 C 
ATOM     10  C   UNL     1       1.708   2.116  -0.185  0.00  0.00    +0.004 C 
ATOM     11  C   UNL     1       2.087   1.602   1.208  0.00  0.00    +0.031 C 
ATOM     12  C   UNL     1       2.071   0.090   1.184  0.00  0.00    -0.065 C 
ATOM     13  C   UNL     1       3.113  -0.610   1.625  0.00  0.00    +0.066 C 
ATOM     14  C   UNL     1       0.841  -0.606   0.645  0.00  0.00    +0.031 C 
ATOM     15  C   UNL     1       0.507  -0.012  -0.728  0.00  0.00    +0.004 C 
ENDBRANCH   1  13
BRANCH   7  16
ATOM     16  C   UNL     1       4.563  -6.197   3.749  0.00  0.00    +0.110 C 
BRANCH  16  17
ATOM     17  N   UNL     1       3.196  -6.723   3.706  0.00  0.00    -0.299 N 
ATOM     18  C   UNL     1       2.983  -8.052   3.771  0.00  0.00    +0.297 C 
ATOM     19  O   UNL     1       3.925  -8.815   3.865  0.00  0.00    -0.253 OA
ATOM     20  N   UNL     1       1.725  -8.535   3.732  0.00  0.00    -0.313 N 
ATOM     21  H   UNL     1       2.444  -6.114   3.631  0.00  0.00    +0.150 HD
ATOM     22  H   UNL     1       0.974  -7.927   3.657  0.00  0.00    +0.146 HD
ATOM     23  H   UNL     1       1.572  -9.492   3.779  0.00  0.00    +0.146 HD
ENDBRANCH  16  17
ENDBRANCH   7  16
TORSDOF 3
