REMARK  Name = ZINC12479739
REMARK  13 active torsions:
REMARK  status: ('A' for Active; 'I' for Inactive)
REMARK    1  A    between atoms: C_1  and  C_2
REMARK    2  A    between atoms: C_5  and  N_8
REMARK    3  A    between atoms: N_8  and  C_9
REMARK    4  A    between atoms: C_9  and  C_11
REMARK    5  A    between atoms: C_9  and  C_18
REMARK    6  A    between atoms: N_20  and  C_21
REMARK    7  A    between atoms: C_21  and  C_22
REMARK    8  A    between atoms: C_22  and  C_23
REMARK    9  A    between atoms: C_23  and  C_24
REMARK   10  A    between atoms: C_23  and  C_25
REMARK   11  A    between atoms: C_26  and  C_28
REMARK   12  A    between atoms: C_29  and  N_36
REMARK   13  A    between atoms: C_30  and  C_33
REMARK                            x       y       z     vdW  Elec       q    Type
REMARK                         _______ _______ _______ _____ _____    ______ ____
ROOT
ATOM      1  N   UNL     1      -1.341   3.425   0.920  0.00  0.00    -0.251 N 
ATOM      2  C   UNL     1      -2.543   3.688   1.472  0.00  0.00    +0.262 C 
ATOM      3  O   UNL     1      -3.538   3.122   1.059  0.00  0.00    -0.269 OA
ENDROOT
BRANCH   1   8
ATOM      4  C   UNL     1       3.355   5.713   3.132  0.00  0.00    +0.044 C 
ATOM      5  C   UNL     1       2.107   5.105   2.545  0.00  0.00    -0.050 A 
ATOM      6  C   UNL     1       1.271   5.874   1.756  0.00  0.00    +0.005 A 
ATOM      7  C   UNL     1       0.127   5.320   1.215  0.00  0.00    +0.024 A 
ATOM      8  C   UNL     1      -0.183   3.989   1.465  0.00  0.00    +0.038 A 
ATOM      9  C   UNL     1       0.656   3.222   2.262  0.00  0.00    +0.024 A 
ATOM     10  C   UNL     1       1.801   3.780   2.795  0.00  0.00    +0.005 A 
ENDBRANCH   1   8
BRANCH   2  11
ATOM     11  C   UNL     1      -2.650   4.654   2.567  0.00  0.00    +0.116 A 
ATOM     12  C   UNL     1      -3.792   5.160   3.191  0.00  0.00    +0.076 A 
ATOM     13  C   UNL     1      -3.487   6.068   4.206  0.00  0.00    +0.155 A 
ATOM     14  N   UNL     1      -2.229   6.352   4.458  0.00  0.00    -0.203 NA
ATOM     15  S   UNL     1      -1.360   5.503   3.453  0.00  0.00    +0.019 S 
BRANCH  13  16
ATOM     16  C   UNL     1      -4.565   6.706   4.983  0.00  0.00    +0.262 C 
ATOM     17  O   UNL     1      -5.727   6.438   4.744  0.00  0.00    -0.269 OA
ATOM     18  N   UNL     1      -4.263   7.586   5.958  0.00  0.00    -0.324 N 
ATOM     19  H   UNL     1      -3.336   7.799   6.149  0.00  0.00    +0.145 HD
ATOM     20  H   UNL     1      -4.973   8.005   6.469  0.00  0.00    +0.145 HD
ENDBRANCH  13  16
BRANCH  12  21
ATOM     21  N   UNL     1      -5.086   4.798   2.843  0.00  0.00    -0.355 N 
ATOM     22  H   UNL     1      -5.236   4.159   2.129  0.00  0.00    +0.142 HD
ATOM     23  H   UNL     1      -5.841   5.185   3.314  0.00  0.00    +0.142 HD
ENDBRANCH  12  21
ENDBRANCH   2  11
BRANCH   1  24
ATOM     24  C   UNL     1      -1.248   2.549  -0.250  0.00  0.00    +0.197 C 
BRANCH  24  25
ATOM     25  C   UNL     1       0.201   2.284  -0.566  0.00  0.00    -0.018 A 
ATOM     26  C   UNL     1       1.053   3.339  -0.839  0.00  0.00    +0.007 A 
ATOM     27  C   UNL     1       2.381   3.096  -1.134  0.00  0.00    +0.020 A 
ATOM     28  C   UNL     1       2.859   1.798  -1.156  0.00  0.00    +0.041 A 
ATOM     29  C   UNL     1       2.006   0.743  -0.882  0.00  0.00    +0.020 A 
ATOM     30  C   UNL     1       0.678   0.987  -0.587  0.00  0.00    +0.007 A 
ATOM     31 CL   UNL     1       4.527   1.492  -1.525  0.00  0.00    -0.084 Cl
ENDBRANCH  24  25
BRANCH  24  32
ATOM     32  C   UNL     1      -1.905   3.217  -1.431  0.00  0.00    +0.238 C 
ATOM     33  O   UNL     1      -2.402   4.316  -1.307  0.00  0.00    -0.273 OA
ATOM     34  N   UNL     1      -1.941   2.592  -2.625  0.00  0.00    -0.313 N 
ATOM     35  H   UNL     1      -1.543   1.713  -2.724  0.00  0.00    +0.149 HD
BRANCH  34  36
ATOM     36  C   UNL     1      -2.579   3.241  -3.772  0.00  0.00    +0.104 C 
BRANCH  36  37
ATOM     37  C   UNL     1      -2.482   2.326  -4.995  0.00  0.00    +0.022 C 
BRANCH  37  38
ATOM     38  C   UNL     1      -3.150   3.003  -6.193  0.00  0.00    -0.016 C 
ATOM     39  C   UNL     1      -2.367   4.263  -6.568  0.00  0.00    +0.007 C 
ATOM     40  C   UNL     1      -3.163   2.039  -7.381  0.00  0.00    +0.007 C 
ENDBRANCH  37  38
ENDBRANCH  36  37
ENDBRANCH  34  36
ENDBRANCH  24  32
ENDBRANCH   1  24
TORSDOF 10
