REMARK  Name = ZINC67272892
REMARK  8 active torsions:
REMARK  status: ('A' for Active; 'I' for Inactive)
REMARK    1  A    between atoms: C_1  and  C_2
REMARK    2  A    between atoms: N_11  and  C_15
REMARK    3  A    between atoms: C_15  and  C_16
REMARK    4  A    between atoms: N_18  and  C_19
REMARK    5  A    between atoms: C_19  and  C_20
REMARK    6  A    between atoms: C_20  and  C_22
REMARK    7  A    between atoms: C_20  and  N_23
REMARK    8  A    between atoms: C_26  and  C_29
REMARK                            x       y       z     vdW  Elec       q    Type
REMARK                         _______ _______ _______ _____ _____    ______ ____
ROOT
ATOM      1  C   UNL     1      -0.264   1.783   4.680  0.00  0.00    +0.213 C 
ENDROOT
BRANCH   1  11
ATOM      2  C   UNL     1      -1.952   2.160   0.573  0.00  0.00    +0.010 C 
ATOM      3  C   UNL     1      -1.821   0.645   0.408  0.00  0.00    +0.018 C 
ATOM      4  C   UNL     1      -1.346   0.326  -1.012  0.00  0.00    +0.006 C 
ATOM      5  C   UNL     1      -1.195  -1.189  -1.170  0.00  0.00    +0.000 C 
ATOM      6  C   UNL     1      -0.163  -1.708  -0.167  0.00  0.00    +0.003 C 
ATOM      7  C   UNL     1      -0.633  -1.396   1.256  0.00  0.00    +0.035 C 
ATOM      8  C   UNL     1      -0.809   0.110   1.415  0.00  0.00    +0.115 C 
ATOM      9  C   UNL     1      -1.240   0.444   2.825  0.00  0.00    +0.247 C 
ATOM     10  O   UNL     1      -2.254   0.087   3.387  0.00  0.00    -0.273 OA
ATOM     11  N   UNL     1      -0.260   1.223   3.326  0.00  0.00    -0.215 N 
ATOM     12  C   UNL     1       0.718   1.421   2.434  0.00  0.00    +0.310 C 
ATOM     13  O   UNL     1       1.709   2.089   2.654  0.00  0.00    -0.252 OA
ATOM     14  N   UNL     1       0.480   0.797   1.264  0.00  0.00    -0.285 N 
ATOM     15  H   UNL     1       1.048   0.800   0.478  0.00  0.00    +0.151 HD
ENDBRANCH   1  11
BRANCH   1  16
ATOM     16  C   UNL     1       0.406   0.820   5.625  0.00  0.00    +0.231 C 
ATOM     17  O   UNL     1       0.845  -0.232   5.208  0.00  0.00    -0.274 OA
ATOM     18  N   UNL     1       0.519   1.126   6.933  0.00  0.00    -0.316 N 
ATOM     19  H   UNL     1       0.168   1.966   7.266  0.00  0.00    +0.149 HD
BRANCH  18  20
ATOM     20  C   UNL     1       1.171   0.189   7.851  0.00  0.00    +0.089 C 
BRANCH  20  21
ATOM     21  C   UNL     1       1.286   0.829   9.236  0.00  0.00    -0.054 C 
ATOM     22  C   UNL     1       2.055  -0.108  10.168  0.00  0.00    -0.012 C 
BRANCH  21  23
ATOM     23  N   UNL     1       2.002   2.107   9.126  0.00  0.00    +0.382 N 
ATOM     24  C   UNL     1       1.988   2.787  10.427  0.00  0.00    -0.078 C 
ATOM     25  C   UNL     1       2.662   4.155  10.299  0.00  0.00    -0.016 C 
ATOM     26  C   UNL     1       4.109   3.963   9.837  0.00  0.00    -0.018 C 
ATOM     27  C   UNL     1       4.115   3.188   8.517  0.00  0.00    -0.016 C 
ATOM     28  C   UNL     1       3.388   1.856   8.711  0.00  0.00    -0.078 C 
ATOM     29  C   UNL     1       4.766   5.330   9.631  0.00  0.00    +0.007 C 
ATOM     30  H   UNL     1       1.547   2.689   8.440  0.00  0.00    -0.081 HD
ENDBRANCH  21  23
ENDBRANCH  20  21
ENDBRANCH  18  20
ENDBRANCH   1  16
TORSDOF 5
