REMARK  Name = ZINC59170979
REMARK  4 active torsions:
REMARK  status: ('A' for Active; 'I' for Inactive)
REMARK    1  A    between atoms: C_6  and  N_7
REMARK    2  A    between atoms: C_9  and  C_21
REMARK    3  A    between atoms: C_13  and  N_18
REMARK    4  A    between atoms: C_21  and  N_23
REMARK                            x       y       z     vdW  Elec       q    Type
REMARK                         _______ _______ _______ _____ _____    ______ ____
ROOT
ATOM      1  N   UNL     1      -1.509  -0.443  -0.173  0.00  0.00    -0.325 N 
ATOM      2  C   UNL     1      -1.479  -1.555  -0.874  0.00  0.00    +0.209 A 
ATOM      3  C   UNL     1      -2.545  -2.569  -0.738  0.00  0.00    +0.064 A 
ATOM      4  C   UNL     1      -2.780  -3.390  -1.833  0.00  0.00    +0.027 A 
ATOM      5  C   UNL     1      -1.952  -3.178  -3.023  0.00  0.00    +0.020 A 
ATOM      6  C   UNL     1      -2.292  -3.767  -4.247  0.00  0.00    +0.044 A 
ATOM      7  C   UNL     1      -1.506  -3.551  -5.344  0.00  0.00    +0.127 A 
ATOM      8  C   UNL     1      -0.375  -2.753  -5.255  0.00  0.00    +0.036 A 
ATOM      9  C   UNL     1      -0.021  -2.164  -4.058  0.00  0.00    +0.049 A 
ATOM     10  C   UNL     1      -0.803  -2.371  -2.930  0.00  0.00    +0.138 A 
ATOM     11  O   UNL     1      -0.471  -1.804  -1.749  0.00  0.00    -0.439 OA
ATOM     12  H   UNL     1      -2.284  -0.233   0.372  0.00  0.00    +0.169 HD
ENDROOT
BRANCH   1  18
ATOM     13  C   UNL     1      -0.662   1.792  -0.354  0.00  0.00    +0.027 A 
ATOM     14  C   UNL     1       0.412   2.655  -0.392  0.00  0.00    +0.023 A 
ATOM     15  C   UNL     1       1.703   2.165  -0.290  0.00  0.00    +0.059 A 
ATOM     16  C   UNL     1       1.924   0.804  -0.150  0.00  0.00    +0.061 A 
ATOM     17  C   UNL     1       0.858  -0.071  -0.110  0.00  0.00    +0.047 A 
ATOM     18  C   UNL     1      -0.447   0.419  -0.212  0.00  0.00    +0.043 A 
ATOM     19 CL   UNL     1       3.546   0.198  -0.024  0.00  0.00    -0.082 Cl
ATOM     20 CL   UNL     1       3.050   3.259  -0.339  0.00  0.00    -0.082 Cl
ENDBRANCH   1  18
BRANCH   7  21
ATOM     21  N   UNL     1      -1.865  -4.175  -6.638  0.00  0.00    +0.056 N 
ATOM     22  O   UNL     1      -2.850  -4.871  -6.721  0.00  0.00    -0.126 OA
ATOM     23  O   UNL     1      -1.173  -3.987  -7.612  0.00  0.00    -0.126 OA
ENDBRANCH   7  21
BRANCH   3  24
ATOM     24  C   UNL     1      -3.322  -2.703   0.503  0.00  0.00    +0.082 C 
ATOM     25  S   UNL     1      -2.901  -1.780   1.882  0.00  0.00    -0.035 S 
BRANCH  24  26
ATOM     26  N   UNL     1      -4.367  -3.553   0.555  0.00  0.00    -0.352 N 
ATOM     27  H   UNL     1      -4.606  -4.076  -0.226  0.00  0.00    +0.143 HD
ATOM     28  H   UNL     1      -4.880  -3.642   1.373  0.00  0.00    +0.143 HD
ENDBRANCH  24  26
ENDBRANCH   3  24
TORSDOF 4
