REMARK  Name = ZINC21981337
REMARK  14 active torsions:
REMARK  status: ('A' for Active; 'I' for Inactive)
REMARK    1  A    between atoms: C_1  and  C_2
REMARK    2  A    between atoms: C_2  and  C_3
REMARK    3  A    between atoms: C_2  and  N_4
REMARK    4  A    between atoms: N_4  and  C_5
REMARK    5  A    between atoms: C_5  and  C_6
REMARK    6  A    between atoms: C_6  and  C_8
REMARK    7  A    between atoms: C_6  and  O_20
REMARK    8  A    between atoms: C_8  and  O_9
REMARK    9  A    between atoms: O_9  and  C_10
REMARK   10  A    between atoms: O_20  and  C_21
REMARK   11  A    between atoms: C_23  and  O_37
REMARK   12  A    between atoms: C_25  and  O_36
REMARK   13  A    between atoms: C_27  and  O_35
REMARK   14  A    between atoms: C_29  and  C_32
REMARK                            x       y       z     vdW  Elec       q    Type
REMARK                         _______ _______ _______ _____ _____    ______ ____
ROOT
ATOM      1  C   UNL     1      -0.263   0.423   4.657  0.00  0.00    +0.142 C 
ENDROOT
BRANCH   1   2
ATOM      2  C   UNL     1      -1.001   1.052   3.474  0.00  0.00    -0.047 C 
BRANCH   2   3
ATOM      3  N   UNL     1      -0.048   1.322   2.389  0.00  0.00    +0.382 N 
ATOM      4  H   UNL     1       0.347   0.364   2.020  0.00  0.00    -0.085 HD
ATOM      5  H   UNL     1       0.777   1.930   2.788  0.00  0.00    -0.085 HD
BRANCH   3   7
ATOM      6  C   UNL     1       0.075   1.789  -0.012  0.00  0.00    -0.014 C 
ATOM      7  C   UNL     1      -0.698   2.041   1.284  0.00  0.00    -0.078 C 
ATOM      8  C   UNL     1      -0.709   3.540   1.589  0.00  0.00    -0.014 C 
ENDBRANCH   3   7
ENDBRANCH   2   3
ENDBRANCH   1   2
BRANCH   1   9
ATOM      9  C   UNL     1      -1.269   0.056   5.750  0.00  0.00    +0.258 C 
BRANCH   9  10
ATOM     10  O   UNL     1      -2.030   1.212   6.103  0.00  0.00    -0.489 OA
BRANCH  10  11
ATOM     11  C   UNL     1      -2.975   1.058   7.066  0.00  0.00    +0.128 A 
ATOM     12  C   UNL     1      -3.166  -0.162   7.654  0.00  0.00    +0.046 A 
ATOM     13  C   UNL     1      -4.129  -0.337   8.643  0.00  0.00    +0.004 A 
ATOM     14  C   UNL     1      -4.910   0.700   9.053  0.00  0.00    +0.009 A 
ATOM     15  C   UNL     1      -4.746   1.970   8.474  0.00  0.00    -0.014 A 
ATOM     16  C   UNL     1      -3.762   2.155   7.472  0.00  0.00    +0.024 A 
ATOM     17  C   UNL     1      -3.593   3.425   6.898  0.00  0.00    +0.012 A 
ATOM     18  C   UNL     1      -4.371   4.461   7.314  0.00  0.00    +0.001 A 
ATOM     19  C   UNL     1      -5.335   4.282   8.304  0.00  0.00    +0.001 A 
ATOM     20  C   UNL     1      -5.535   3.062   8.875  0.00  0.00    +0.008 A 
ENDBRANCH  10  11
ENDBRANCH   9  10
ENDBRANCH   1   9
BRANCH   1  21
ATOM     21  O   UNL     1       0.686   1.356   5.176  0.00  0.00    -0.344 OA
BRANCH  21  22
ATOM     22  C   UNL     1       1.851   0.749   5.739  0.00  0.00    +0.283 C 
ATOM     23  C   UNL     1       2.676   1.810   6.472  0.00  0.00    +0.201 C 
ATOM     24  C   UNL     1       3.953   1.163   7.020  0.00  0.00    +0.179 C 
ATOM     25  C   UNL     1       4.725   0.523   5.862  0.00  0.00    +0.185 C 
ATOM     26  C   UNL     1       3.821  -0.488   5.153  0.00  0.00    +0.265 C 
ATOM     27  O   UNL     1       2.638   0.172   4.695  0.00  0.00    -0.331 OA
BRANCH  26  28
ATOM     28  C   UNL     1       4.553  -1.079   3.976  0.00  0.00    +0.387 C 
ATOM     29  O   UNL     1       4.197  -0.822   2.851  0.00  0.00    -0.243 OA
ATOM     30  O   UNL     1       5.603  -1.892   4.179  0.00  0.00    -0.243 OA
ENDBRANCH  26  28
BRANCH  25  31
ATOM     31  O   UNL     1       5.881  -0.146   6.372  0.00  0.00    -0.386 OA
ATOM     32  H   UNL     1       6.562  -0.667   5.684  0.00  0.00    +0.210 HD
ENDBRANCH  25  31
BRANCH  24  33
ATOM     33  O   UNL     1       4.765   2.160   7.644  0.00  0.00    -0.386 OA
ATOM     34  H   UNL     1       5.728   1.880   8.097  0.00  0.00    +0.210 HD
ENDBRANCH  24  33
BRANCH  23  35
ATOM     35  O   UNL     1       1.911   2.347   7.553  0.00  0.00    -0.384 OA
ATOM     36  H   UNL     1       2.343   3.127   8.197  0.00  0.00    +0.210 HD
ENDBRANCH  23  35
ENDBRANCH  21  22
ENDBRANCH   1  21
TORSDOF 12
