REMARK  Name = ZINC12244517
REMARK  10 active torsions:
REMARK  status: ('A' for Active; 'I' for Inactive)
REMARK    1  A    between atoms: C_1  and  C_2
REMARK    2  A    between atoms: C_2  and  C_3
REMARK    3  A    between atoms: C_2  and  C_4
REMARK    4  A    between atoms: C_4  and  C_5
REMARK    5  A    between atoms: C_5  and  C_19
REMARK    6  A    between atoms: N_8  and  C_12
REMARK    7  A    between atoms: C_12  and  C_13
REMARK    8  A    between atoms: C_13  and  C_14
REMARK    9  A    between atoms: C_24  and  C_25
REMARK   10  A    between atoms: C_24  and  N_68
REMARK                            x       y       z     vdW  Elec       q    Type
REMARK                         _______ _______ _______ _____ _____    ______ ____
ROOT
ATOM      1  C   UNL     1      -4.805   7.296   4.997  0.00  0.00    +0.115 C 
ATOM      2  C   UNL     1      -3.391   7.529   5.492  0.00  0.00    +0.247 C 
ATOM      3  O   UNL     1      -2.552   6.688   5.733  0.00  0.00    -0.273 OA
ATOM      4  N   UNL     1      -3.261   8.865   5.609  0.00  0.00    -0.224 N 
ATOM      5  C   UNL     1      -4.385   9.502   5.261  0.00  0.00    +0.309 C 
ATOM      6  O   UNL     1      -4.511  10.711   5.284  0.00  0.00    -0.252 OA
ATOM      7  N   UNL     1      -5.359   8.656   4.882  0.00  0.00    -0.285 N 
ATOM      8  H   UNL     1      -6.253   8.894   4.589  0.00  0.00    +0.151 HD
ENDROOT
BRANCH   1   9
ATOM      9  C   UNL     1      -4.790   6.604   3.632  0.00  0.00    +0.018 C 
ATOM     10  C   UNL     1      -3.842   7.350   2.690  0.00  0.00    -0.013 C 
ATOM     11  C   UNL     1      -3.785   6.619   1.347  0.00  0.00    -0.078 C 
ATOM     12  C   UNL     1      -4.232   4.493   2.421  0.00  0.00    -0.078 C 
ATOM     13  C   UNL     1      -4.303   5.161   3.796  0.00  0.00    -0.013 C 
ATOM     14  N   UNL     1      -3.285   5.245   1.570  0.00  0.00    +0.383 N 
ATOM     15  H   UNL     1      -2.377   5.294   2.045  0.00  0.00    -0.081 HD
BRANCH  14  16
ATOM     16  C   UNL     1      -3.113   4.554   0.275  0.00  0.00    -0.025 C 
BRANCH  16  17
ATOM     17  C   UNL     1      -2.402   3.247   0.514  0.00  0.00    +0.000 A 
ATOM     18  C   UNL     1      -1.076   3.063   0.421  0.00  0.00    +0.029 A 
ATOM     19  C   UNL     1      -0.816   1.654   0.729  0.00  0.00    -0.000 A 
ATOM     20  C   UNL     1       0.339   0.872   0.797  0.00  0.00    +0.010 A 
ATOM     21  C   UNL     1       0.243  -0.451   1.121  0.00  0.00    +0.001 A 
ATOM     22  C   UNL     1      -0.993  -1.026   1.385  0.00  0.00    +0.002 A 
ATOM     23  C   UNL     1      -2.145  -0.274   1.319  0.00  0.00    +0.026 A 
ATOM     24  C   UNL     1      -2.071   1.077   0.996  0.00  0.00    +0.047 A 
ATOM     25  N   UNL     1      -3.013   2.072   0.856  0.00  0.00    -0.360 N 
ATOM     26  H   UNL     1      -3.968   1.956   0.982  0.00  0.00    +0.166 HD
ENDBRANCH  16  17
ENDBRANCH  14  16
ENDBRANCH   1   9
BRANCH   1  27
ATOM     27  C   UNL     1      -5.604   6.472   6.008  0.00  0.00    +0.038 C 
BRANCH  27  29
ATOM     28  C   UNL     1      -6.715   6.536   8.245  0.00  0.00    +0.007 C 
ATOM     29  C   UNL     1      -5.740   7.259   7.313  0.00  0.00    -0.015 C 
ATOM     30  C   UNL     1      -4.371   7.364   7.989  0.00  0.00    +0.007 C 
ENDBRANCH  27  29
ENDBRANCH   1  27
BRANCH   4  31
ATOM     31  C   UNL     1      -2.041   9.537   6.064  0.00  0.00    +0.123 C 
BRANCH  31  32
ATOM     32  C   UNL     1      -2.083   9.695   7.585  0.00  0.00    +0.062 C 
BRANCH  32  33
ATOM     33  C   UNL     1      -0.828  10.386   8.052  0.00  0.00    -0.009 A 
ATOM     34  C   UNL     1      -0.588  11.712   8.201  0.00  0.00    +0.011 A 
ATOM     35  C   UNL     1       0.652  12.123   8.653  0.00  0.00    +0.008 A 
ATOM     36  C   UNL     1       1.595  11.188   8.924  0.00  0.00    +0.045 A 
ATOM     37  S   UNL     1       0.732   9.672   8.545  0.00  0.00    -0.102 S 
ENDBRANCH  32  33
ENDBRANCH  31  32
ENDBRANCH   4  31
TORSDOF 8
