REMARK  Name = ZINC50987696
REMARK  3 active torsions:
REMARK  status: ('A' for Active; 'I' for Inactive)
REMARK    1  A    between atoms: C_2  and  C_3
REMARK    2  A    between atoms: C_3  and  N_4
REMARK    3  A    between atoms: C_7  and  C_10
REMARK                            x       y       z     vdW  Elec       q    Type
REMARK                         _______ _______ _______ _____ _____    ______ ____
ROOT
ATOM      1  N   UNL     1      -0.704   1.940   1.215  0.00  0.00    -0.269 N 
ATOM      2  C   UNL     1      -0.095   2.203   2.410  0.00  0.00    +0.161 C 
ATOM      3  N   UNL     1      -0.910   2.607   3.319  0.00  0.00    -0.366 N 
ATOM      4  C   UNL     1      -2.261   2.648   2.740  0.00  0.00    +0.172 C 
ATOM      5  C   UNL     1      -2.056   2.190   1.308  0.00  0.00    +0.101 C 
ATOM      6  N   UNL     1      -2.949   2.060   0.383  0.00  0.00    -0.388 N 
ATOM      7  H   UNL     1      -2.692   1.754  -0.500  0.00  0.00    +0.157 HD
ATOM      8  H   UNL     1      -3.877   2.269   0.573  0.00  0.00    +0.157 HD
ATOM      9  H   UNL     1      -0.674   2.844   4.230  0.00  0.00    +0.161 HD
ENDROOT
BRANCH   4  10
ATOM     10  C   UNL     1      -2.807   4.052   2.768  0.00  0.00    -0.013 A 
ATOM     11  C   UNL     1      -4.141   4.268   3.060  0.00  0.00    +0.055 A 
ATOM     12  C   UNL     1      -4.646   5.558   3.087  0.00  0.00    +0.168 A 
ATOM     13  C   UNL     1      -3.806   6.636   2.819  0.00  0.00    +0.184 A 
ATOM     14  C   UNL     1      -2.470   6.413   2.526  0.00  0.00    +0.087 A 
ATOM     15  C   UNL     1      -1.972   5.122   2.507  0.00  0.00    +0.030 A 
ATOM     16 CL   UNL     1      -1.419   7.753   2.191  0.00  0.00    -0.080 Cl
ATOM     17  O   UNL     1      -4.533   7.788   2.907  0.00  0.00    -0.451 OA
ATOM     18  C   UNL     1      -5.912   7.379   2.829  0.00  0.00    +0.466 C 
ATOM     19  O   UNL     1      -5.899   6.034   3.343  0.00  0.00    -0.453 OA
ENDBRANCH   4  10
BRANCH   1  20
ATOM     20  C   UNL     1      -0.018   1.468   0.010  0.00  0.00    +0.201 C 
BRANCH  20  22
ATOM     21  C   UNL     1       0.018  -1.178  -0.004  0.00  0.00    +0.005 C 
ATOM     22  C   UNL     1       0.002  -0.004   0.002  0.00  0.00    -0.086 C 
ENDBRANCH  20  22
ENDBRANCH   1  20
TORSDOF 3
