REMARK  Name = ZINC06108683
REMARK  6 active torsions:
REMARK  status: ('A' for Active; 'I' for Inactive)
REMARK    1  A    between atoms: C_6  and  C_7
REMARK    2  A    between atoms: C_7  and  C_8
REMARK    3  A    between atoms: C_8  and  N_9
REMARK    4  A    between atoms: C_10  and  C_12
REMARK    5  A    between atoms: C_12  and  S_13
REMARK    6  A    between atoms: S_13  and  C_14
REMARK                            x       y       z     vdW  Elec       q    Type
REMARK                         _______ _______ _______ _____ _____    ______ ____
ROOT
ATOM      1  C   UNL     1      -2.097   7.711  -0.450  0.00  0.00    +0.191 A 
ATOM      2  N   UNL     1      -1.761   7.335   0.775  0.00  0.00    -0.207 NA
ATOM      3  C   UNL     1      -1.273   6.135   1.075  0.00  0.00    +0.129 A 
ATOM      4  C   UNL     1      -1.120   5.232  -0.018  0.00  0.00    +0.051 A 
ATOM      5  C   UNL     1      -0.614   3.870   0.035  0.00  0.00    -0.025 A 
ATOM      6  C   UNL     1      -0.558   3.197  -1.136  0.00  0.00    -0.004 A 
ATOM      7  S   UNL     1      -1.170   4.332  -2.357  0.00  0.00    -0.073 S 
ATOM      8  C   UNL     1      -1.500   5.705  -1.299  0.00  0.00    +0.115 A 
ATOM      9  N   UNL     1      -1.978   6.914  -1.514  0.00  0.00    -0.214 NA
ATOM     10  C   UNL     1      -0.081   1.794  -1.355  0.00  0.00    +0.043 C 
ATOM     11  C   UNL     1       0.687   1.341  -0.106  0.00  0.00    +0.005 C 
ATOM     12  C   UNL     1      -0.139   1.691   1.136  0.00  0.00    +0.005 C 
ATOM     13  C   UNL     1      -0.161   3.206   1.333  0.00  0.00    +0.037 C 
ATOM     14  N   UNL     1      -0.935   5.783   2.369  0.00  0.00    -0.343 N 
ATOM     15  H   UNL     1      -1.267   6.305   3.116  0.00  0.00    +0.144 HD
ATOM     16  H   UNL     1      -0.366   5.014   2.530  0.00  0.00    +0.144 HD
ENDROOT
BRANCH   1  17
ATOM     17  S   UNL     1      -2.731   9.338  -0.686  0.00  0.00    -0.077 S 
BRANCH  17  18
ATOM     18  C   UNL     1      -2.677   9.947   1.018  0.00  0.00    +0.173 C 
BRANCH  18  20
ATOM     19  N   UNL     1      -3.241  12.025   2.236  0.00  0.00    -0.314 N 
ATOM     20  C   UNL     1      -3.189  11.363   1.062  0.00  0.00    +0.223 C 
ATOM     21  O   UNL     1      -3.554  11.908   0.042  0.00  0.00    -0.275 OA
ATOM     22  H   UNL     1      -2.949  11.589   3.051  0.00  0.00    +0.149 HD
BRANCH  19  23
ATOM     23  C   UNL     1      -3.738  13.402   2.279  0.00  0.00    +0.109 C 
BRANCH  23  24
ATOM     24  C   UNL     1      -3.692  13.916   3.719  0.00  0.00    +0.054 C 
BRANCH  24  30
ATOM     25  C   UNL     1      -3.326  16.390   3.609  0.00  0.00    +0.006 A 
ATOM     26  C   UNL     1      -3.795  17.689   3.644  0.00  0.00    +0.038 A 
ATOM     27  C   UNL     1      -5.143  17.933   3.845  0.00  0.00    +0.123 A 
ATOM     28  C   UNL     1      -6.020  16.874   4.005  0.00  0.00    +0.038 A 
ATOM     29  C   UNL     1      -5.550  15.575   3.964  0.00  0.00    +0.006 A 
ATOM     30  C   UNL     1      -4.204  15.333   3.763  0.00  0.00    -0.046 A 
ATOM     31  F   UNL     1      -5.601  19.203   3.885  0.00  0.00    -0.205 F 
ENDBRANCH  24  30
ENDBRANCH  23  24
ENDBRANCH  19  23
ENDBRANCH  18  20
ENDBRANCH  17  18
ENDBRANCH   1  17
TORSDOF 6
