REMARK  Name = ZINC20065089
REMARK  10 active torsions:
REMARK  status: ('A' for Active; 'I' for Inactive)
REMARK    1  A    between atoms: C_1  and  C_2
REMARK    2  A    between atoms: C_2  and  O_3
REMARK    3  A    between atoms: O_3  and  C_4
REMARK    4  A    between atoms: C_7  and  C_10
REMARK    5  A    between atoms: C_11  and  C_30
REMARK    6  A    between atoms: C_12  and  N_29
REMARK    7  A    between atoms: C_16  and  N_28
REMARK    8  A    between atoms: C_17  and  C_19
REMARK    9  A    between atoms: C_19  and  C_21
REMARK   10  A    between atoms: C_24  and  C_27
REMARK                            x       y       z     vdW  Elec       q    Type
REMARK                         _______ _______ _______ _____ _____    ______ ____
ROOT
ATOM      1  C   UNL     1       1.284   2.632  -1.545  0.00  0.00    +0.014 A 
ATOM      2  C   UNL     1       0.068   1.989  -1.813  0.00  0.00    +0.100 A 
ATOM      3  C   UNL     1      -1.143   2.694  -1.666  0.00  0.00    +0.136 A 
ATOM      4  N   UNL     1      -1.134   3.955  -1.266  0.00  0.00    -0.224 NA
ATOM      5  C   UNL     1      -0.013   4.596  -1.003  0.00  0.00    +0.113 A 
ATOM      6  C   UNL     1       1.261   3.994  -1.120  0.00  0.00    +0.038 A 
ATOM      7  C   UNL     1       2.384   4.853  -0.789  0.00  0.00    +0.053 A 
ATOM      8  C   UNL     1       2.120   6.154  -0.397  0.00  0.00    +0.083 A 
ATOM      9  S   UNL     1       0.342   6.251  -0.466  0.00  0.00    -0.063 S 
ENDROOT
BRANCH   1  13
ATOM     10  C   UNL     1       4.970   0.565  -1.985  0.00  0.00    +0.121 A 
ATOM     11  C   UNL     1       4.220   0.891  -3.108  0.00  0.00    +0.046 A 
ATOM     12  C   UNL     1       3.024   1.561  -2.970  0.00  0.00    +0.012 A 
ATOM     13  C   UNL     1       2.566   1.913  -1.698  0.00  0.00    -0.016 A 
ATOM     14  C   UNL     1       3.326   1.588  -0.572  0.00  0.00    +0.012 A 
ATOM     15  C   UNL     1       4.518   0.913  -0.719  0.00  0.00    +0.046 A 
BRANCH  10  16
ATOM     16  O   UNL     1       6.148  -0.096  -2.126  0.00  0.00    -0.492 OA
BRANCH  16  18
ATOM     17  C   UNL     1       8.159  -1.141  -1.286  0.00  0.00    +0.048 C 
ATOM     18  C   UNL     1       6.868  -0.401  -0.930  0.00  0.00    +0.225 C 
ENDBRANCH  16  18
ENDBRANCH  10  16
ENDBRANCH   1  13
BRANCH   7  19
ATOM     19  N   UNL     1       3.685   4.383  -0.864  0.00  0.00    -0.356 N 
ATOM     20  H   UNL     1       4.525   5.046  -0.610  0.00  0.00    +0.142 HD
ATOM     21  H   UNL     1       3.878   3.346  -1.177  0.00  0.00    +0.142 HD
ENDBRANCH   7  19
BRANCH   3  22
ATOM     22  N   UNL     1      -2.343   2.064  -1.935  0.00  0.00    -0.342 N 
ATOM     23  H   UNL     1      -3.290   2.613  -1.821  0.00  0.00    +0.144 HD
ATOM     24  H   UNL     1      -2.353   1.015  -2.264  0.00  0.00    +0.144 HD
ENDBRANCH   3  22
BRANCH   8  25
ATOM     25  C   UNL     1       3.039   7.162  -0.032  0.00  0.00    +0.202 C 
ATOM     26  O   UNL     1       4.223   6.896   0.077  0.00  0.00    -0.286 OA
BRANCH  25  27
ATOM     27  C   UNL     1       2.564   8.540   0.220  0.00  0.00    +0.023 A 
ATOM     28  C   UNL     1       1.382   8.992  -0.369  0.00  0.00    +0.012 A 
ATOM     29  C   UNL     1       0.941  10.277  -0.127  0.00  0.00    +0.004 A 
ATOM     30  C   UNL     1       1.675  11.120   0.689  0.00  0.00    -0.050 A 
ATOM     31  C   UNL     1       2.850  10.680   1.271  0.00  0.00    +0.004 A 
ATOM     32  C   UNL     1       3.299   9.396   1.041  0.00  0.00    +0.012 A 
ATOM     33  C   UNL     1       1.191  12.524   0.945  0.00  0.00    +0.044 C 
ENDBRANCH  25  27
ENDBRANCH   8  25
BRANCH   2  34
ATOM     34  C   UNL     1       0.057   0.622  -2.240  0.00  0.00    +0.103 C 
ATOM     35  N   UNL     1       0.048  -0.462  -2.580  0.00  0.00    -0.191 NA
ENDBRANCH   2  34
TORSDOF 8
