REMARK  Name = ZINC06321131
REMARK  8 active torsions:
REMARK  status: ('A' for Active; 'I' for Inactive)
REMARK    1  A    between atoms: C_1  and  C_2
REMARK    2  A    between atoms: C_6  and  C_15
REMARK    3  A    between atoms: C_13  and  C_14
REMARK    4  A    between atoms: C_15  and  C_17
REMARK    5  A    between atoms: C_15  and  N_63
REMARK    6  A    between atoms: N_21  and  C_22
REMARK    7  A    between atoms: C_22  and  C_23
REMARK    8  A    between atoms: C_32  and  C_35
REMARK                            x       y       z     vdW  Elec       q    Type
REMARK                         _______ _______ _______ _____ _____    ______ ____
ROOT
ATOM      1  C   UNL     1      -2.349  -0.745   1.988  0.00  0.00    +0.039 C 
ENDROOT
BRANCH   1   7
ATOM      2  C   UNL     1      -5.172   6.149   1.627  0.00  0.00    +0.044 C 
ATOM      3  C   UNL     1      -4.705   4.960   2.427  0.00  0.00    -0.047 A 
ATOM      4  C   UNL     1      -4.232   3.853   1.781  0.00  0.00    +0.013 A 
ATOM      5  C   UNL     1      -3.799   2.749   2.523  0.00  0.00    -0.001 A 
ATOM      6  C   UNL     1      -3.283   1.548   1.864  0.00  0.00    +0.017 A 
ATOM      7  C   UNL     1      -2.881   0.508   2.635  0.00  0.00    +0.011 A 
ATOM      8  C   UNL     1      -2.954   0.596   4.042  0.00  0.00    +0.251 A 
ATOM      9  O   UNL     1      -2.584  -0.350   4.716  0.00  0.00    -0.268 OA
ATOM     10  N   UNL     1      -3.422   1.696   4.657  0.00  0.00    -0.322 N 
ATOM     11  H   UNL     1      -3.459   1.723   5.625  0.00  0.00    +0.169 HD
ATOM     12  C   UNL     1      -3.851   2.786   3.930  0.00  0.00    +0.049 A 
ATOM     13  C   UNL     1      -4.336   3.925   4.565  0.00  0.00    +0.030 A 
ATOM     14  C   UNL     1      -4.758   5.000   3.813  0.00  0.00    -0.046 A 
ATOM     15  C   UNL     1      -5.283   6.232   4.504  0.00  0.00    +0.044 C 
ENDBRANCH   1   7
BRANCH   1  22
ATOM     16  C   UNL     1      -4.567  -1.664   2.299  0.00  0.00    -0.077 C 
ATOM     17  C   UNL     1      -5.346  -2.825   2.922  0.00  0.00    -0.015 C 
ATOM     18  C   UNL     1      -4.950  -4.131   2.227  0.00  0.00    -0.018 C 
ATOM     19  C   UNL     1      -3.438  -4.331   2.358  0.00  0.00    -0.015 C 
ATOM     20  C   UNL     1      -2.714  -3.126   1.751  0.00  0.00    -0.077 C 
ATOM     21  C   UNL     1      -5.680  -5.303   2.886  0.00  0.00    +0.007 C 
ATOM     22  N   UNL     1      -3.120  -1.906   2.479  0.00  0.00    +0.389 N 
ATOM     23  H   UNL     1      -2.926  -2.035   3.479  0.00  0.00    -0.080 HD
ENDBRANCH   1  22
BRANCH   1  24
ATOM     24  C   UNL     1      -0.902  -0.929   2.364  0.00  0.00    +0.143 A 
ATOM     25  N   UNL     1      -0.432  -1.209   3.555  0.00  0.00    -0.115 NA
ATOM     26  N   UNL     1       0.851  -1.285   3.469  0.00  0.00    -0.023 NA
ATOM     27  N   UNL     1       1.212  -1.065   2.253  0.00  0.00    -0.044 NA
ATOM     28  N   UNL     1       0.160  -0.836   1.542  0.00  0.00    -0.226 N 
BRANCH  28  29
ATOM     29  C   UNL     1       0.127  -0.537   0.108  0.00  0.00    +0.182 C 
BRANCH  29  30
ATOM     30  C   UNL     1       0.367   0.936  -0.104  0.00  0.00    -0.026 A 
ATOM     31  C   UNL     1      -0.705   1.794  -0.268  0.00  0.00    +0.008 A 
ATOM     32  C   UNL     1      -0.486   3.145  -0.457  0.00  0.00    +0.038 A 
ATOM     33  C   UNL     1       0.808   3.638  -0.493  0.00  0.00    +0.123 A 
ATOM     34  C   UNL     1       1.880   2.777  -0.334  0.00  0.00    +0.038 A 
ATOM     35  C   UNL     1       1.659   1.427  -0.139  0.00  0.00    +0.008 A 
ATOM     36  F   UNL     1       1.023   4.958  -0.683  0.00  0.00    -0.205 F 
ENDBRANCH  29  30
ENDBRANCH  28  29
ENDBRANCH   1  24
TORSDOF 5
