REMARK  Name = ZINC46089043
REMARK  11 active torsions:
REMARK  status: ('A' for Active; 'I' for Inactive)
REMARK    1  A    between atoms: C_1  and  C_2
REMARK    2  A    between atoms: C_2  and  C_3
REMARK    3  A    between atoms: C_2  and  C_4
REMARK    4  A    between atoms: N_6  and  C_7
REMARK    5  A    between atoms: C_9  and  C_13
REMARK    6  A    between atoms: N_11  and  C_12
REMARK    7  A    between atoms: N_15  and  C_16
REMARK    8  A    between atoms: C_18  and  C_24
REMARK    9  A    between atoms: C_18  and  C_25
REMARK   10  A    between atoms: C_20  and  C_22
REMARK   11  A    between atoms: C_20  and  C_23
REMARK                            x       y       z     vdW  Elec       q    Type
REMARK                         _______ _______ _______ _____ _____    ______ ____
ROOT
ATOM      1  C   UNL     1      -6.247  -2.896   0.356  0.00  0.00    +0.264 C 
ATOM      2  O   UNL     1      -5.884  -3.488   1.354  0.00  0.00    -0.268 OA
ATOM      3  N   UNL     1      -7.517  -3.019  -0.076  0.00  0.00    -0.307 N 
ATOM      4  H   UNL     1      -7.806  -2.547  -0.873  0.00  0.00    +0.149 HD
ENDROOT
BRANCH   3   5
ATOM      5  C   UNL     1      -8.464  -3.868   0.658  0.00  0.00    +0.071 C 
ATOM      6  C   UNL     1      -8.344  -5.308   0.154  0.00  0.00    +0.009 C 
ATOM      7  C   UNL     1      -9.332  -6.202   0.901  0.00  0.00    -0.072 C 
ATOM      8  N   UNL     1     -10.694  -5.697   0.825  0.00  0.00    +0.386 N 
ATOM      9  C   UNL     1     -10.905  -4.282   1.086  0.00  0.00    -0.072 C 
ATOM     10  C   UNL     1      -9.888  -3.384   0.390  0.00  0.00    +0.009 C 
ATOM     11  C   UNL     1     -12.301  -3.910   0.531  0.00  0.00    -0.010 C 
ATOM     12  C   UNL     1     -10.927  -3.980   2.587  0.00  0.00    -0.010 C 
ATOM     13  C   UNL     1      -8.873  -6.407   2.344  0.00  0.00    -0.010 C 
ATOM     14  C   UNL     1      -9.309  -7.586   0.212  0.00  0.00    -0.010 C 
ATOM     15  H   UNL     1     -11.065  -5.911  -0.104  0.00  0.00    -0.084 HD
ATOM     16  H   UNL     1     -11.273  -6.234   1.476  0.00  0.00    -0.084 HD
ENDBRANCH   3   5
BRANCH   1  19
ATOM     17  C   UNL     1      -3.415  -0.982  -0.970  0.00  0.00    +0.124 A 
ATOM     18  C   UNL     1      -3.943  -1.824  -0.045  0.00  0.00    +0.078 A 
ATOM     19  C   UNL     1      -5.295  -2.042  -0.383  0.00  0.00    +0.149 A 
ATOM     20  N   UNL     1      -5.560  -1.351  -1.474  0.00  0.00    -0.165 NA
ATOM     21  N   UNL     1      -4.396  -0.673  -1.858  0.00  0.00    -0.253 N 
ATOM     22  C   UNL     1      -4.260   0.213  -3.017  0.00  0.00    +0.174 C 
BRANCH  17  25
ATOM     23  C   UNL     1      -1.226  -0.901  -0.051  0.00  0.00    +0.221 C 
ATOM     24  O   UNL     1      -1.580  -1.658   0.828  0.00  0.00    -0.275 OA
ATOM     25  N   UNL     1      -2.101  -0.513  -0.999  0.00  0.00    -0.270 N 
ATOM     26  H   UNL     1      -1.818   0.093  -1.702  0.00  0.00    +0.156 HD
BRANCH  23  28
ATOM     27  C   UNL     1       0.192   1.133   0.018  0.00  0.00    +0.017 C 
ATOM     28  C   UNL     1       0.193  -0.394  -0.082  0.00  0.00    +0.069 C 
ATOM     29  C   UNL     1       0.971  -0.982   1.096  0.00  0.00    +0.017 C 
ENDBRANCH  23  28
ENDBRANCH  17  25
ENDBRANCH   1  19
TORSDOF 4
