REMARK  Name = ZINC28885661
REMARK  6 active torsions:
REMARK  status: ('A' for Active; 'I' for Inactive)
REMARK    1  A    between atoms: C_3  and  C_6
REMARK    2  A    between atoms: C_12  and  C_14
REMARK    3  A    between atoms: C_14  and  S_15
REMARK    4  A    between atoms: S_15  and  C_16
REMARK    5  A    between atoms: C_19  and  C_25
REMARK    6  A    between atoms: C_21  and  N_22
REMARK                            x       y       z     vdW  Elec       q    Type
REMARK                         _______ _______ _______ _____ _____    ______ ____
ROOT
ATOM      1  C   UNL     1       7.484   6.593  -0.024  0.00  0.00    +0.170 C 
ENDROOT
BRANCH   1   8
ATOM      2  C   UNL     1       3.741   1.824  -0.024  0.00  0.00    +0.087 A 
ATOM      3  C   UNL     1       4.789   0.944  -0.044  0.00  0.00    +0.077 A 
ATOM      4  S   UNL     1       6.173   2.075  -0.050  0.00  0.00    -0.060 S 
ATOM      5  C   UNL     1       5.227   3.591  -0.026  0.00  0.00    +0.165 A 
ATOM      6  N   UNL     1       3.990   3.131  -0.021  0.00  0.00    -0.224 NA
ATOM      7  N   UNL     1       5.676   4.906  -0.019  0.00  0.00    -0.264 N 
ATOM      8  C   UNL     1       6.998   5.167  -0.032  0.00  0.00    +0.229 C 
ATOM      9  O   UNL     1       7.796   4.254  -0.049  0.00  0.00    -0.275 OA
ATOM     10  H   UNL     1       5.037   5.636  -0.004  0.00  0.00    +0.157 HD
BRANCH   2  13
ATOM     11  C   UNL     1      -0.016   1.353   0.009  0.00  0.00    +0.008 A 
ATOM     12  C   UNL     1       1.179   2.041   0.002  0.00  0.00    +0.017 A 
ATOM     13  C   UNL     1       2.348   1.328  -0.013  0.00  0.00    +0.038 A 
ATOM     14  S   UNL     1       1.752  -0.355  -0.017  0.00  0.00    -0.095 S 
ATOM     15  C   UNL     1       0.002  -0.004   0.002  0.00  0.00    +0.046 A 
ENDBRANCH   2  13
ENDBRANCH   1   8
BRANCH   1  16
ATOM     16  S   UNL     1       9.298   6.614  -0.045  0.00  0.00    -0.114 S 
BRANCH  16  17
ATOM     17  C   UNL     1       9.705   8.328  -0.034  0.00  0.00    +0.039 A 
ATOM     18  C   UNL     1       8.692   9.283  -0.007  0.00  0.00    +0.018 A 
ATOM     19  C   UNL     1       9.001  10.613   0.002  0.00  0.00    +0.014 A 
ATOM     20  C   UNL     1      10.339  11.021  -0.017  0.00  0.00    +0.039 A 
ATOM     21  C   UNL     1      11.358  10.064  -0.043  0.00  0.00    +0.047 A 
ATOM     22  C   UNL     1      11.040   8.725  -0.045  0.00  0.00    +0.140 A 
BRANCH  20  23
ATOM     23  C   UNL     1      10.673  12.457  -0.008  0.00  0.00    +0.242 C 
ATOM     24  O   UNL     1      11.837  12.811  -0.024  0.00  0.00    -0.270 OA
ATOM     25  N   UNL     1       9.689  13.378   0.017  0.00  0.00    -0.325 N 
ATOM     26  H   UNL     1       8.761  13.096   0.029  0.00  0.00    +0.145 HD
ATOM     27  H   UNL     1       9.909  14.323   0.023  0.00  0.00    +0.145 HD
ENDBRANCH  20  23
BRANCH  22  28
ATOM     28  N   UNL     1      12.116   7.709  -0.067  0.00  0.00    +0.058 N 
ATOM     29  O   UNL     1      13.274   8.054  -0.077  0.00  0.00    -0.126 OA
ATOM     30  O   UNL     1      11.836   6.533  -0.075  0.00  0.00    -0.126 OA
ENDBRANCH  22  28
ENDBRANCH  16  17
ENDBRANCH   1  16
TORSDOF 6
