REMARK  Name = ZINC24310223
REMARK  6 active torsions:
REMARK  status: ('A' for Active; 'I' for Inactive)
REMARK    1  A    between atoms: C_1  and  C_2
REMARK    2  A    between atoms: C_9  and  C_11
REMARK    3  A    between atoms: N_13  and  N_14
REMARK    4  A    between atoms: C_15  and  C_17
REMARK    5  A    between atoms: C_17  and  C_18
REMARK    6  A    between atoms: C_18  and  N_19
REMARK                            x       y       z     vdW  Elec       q    Type
REMARK                         _______ _______ _______ _____ _____    ______ ____
ROOT
ATOM      1  N   UNL     1       5.671   6.423  -0.755  0.00  0.00    -0.234 N 
ATOM      2  C   UNL     1       5.440   7.708  -1.090  0.00  0.00    +0.231 C 
ATOM      3  O   UNL     1       4.304   8.092  -1.273  0.00  0.00    -0.274 OA
ATOM      4  H   UNL     1       6.702   6.075  -0.589  0.00  0.00    +0.173 HD
ENDROOT
BRANCH   1   7
ATOM      5  C   UNL     1       4.832   4.246  -0.283  0.00  0.00    +0.267 C 
ATOM      6  O   UNL     1       5.971   3.861  -0.099  0.00  0.00    -0.268 OA
ATOM      7  N   UNL     1       4.600   5.531  -0.618  0.00  0.00    -0.230 N 
ATOM      8  H   UNL     1       3.570   5.879  -0.784  0.00  0.00    +0.173 HD
BRANCH   5  16
ATOM      9  C   UNL     1       0.830  -1.998   1.260  0.00  0.00    +0.008 C 
ATOM     10  C   UNL     1       0.991  -0.489   1.066  0.00  0.00    -0.009 C 
ATOM     11  C   UNL     1       0.002  -0.004   0.002  0.00  0.00    +0.009 C 
ATOM     12  C   UNL     1      -0.019   1.531   0.011  0.00  0.00    +0.043 C 
ATOM     13  C   UNL     1       1.396   2.023  -0.000  0.00  0.00    -0.006 A 
ATOM     14  C   UNL     1       2.522   1.297   0.266  0.00  0.00    -0.036 A 
ATOM     15  C   UNL     1       3.730   1.971   0.194  0.00  0.00    +0.024 A 
ATOM     16  C   UNL     1       3.711   3.313  -0.140  0.00  0.00    +0.076 A 
ATOM     17  S   UNL     1       1.963   3.611  -0.348  0.00  0.00    -0.088 S 
ATOM     18  C   UNL     1       2.423  -0.183   0.625  0.00  0.00    +0.039 C 
ENDBRANCH   5  16
ENDBRANCH   1   7
BRANCH   2  19
ATOM     19  C   UNL     1       6.593   8.668  -1.237  0.00  0.00    +0.117 C 
BRANCH  19  20
ATOM     20  C   UNL     1       6.060  10.050  -1.619  0.00  0.00    +0.127 C 
BRANCH  20  21
ATOM     21  N   UNL     1       7.180  10.983  -1.762  0.00  0.00    -0.224 N 
ATOM     22  C   UNL     1       7.844  11.199  -2.917  0.00  0.00    +0.247 C 
ATOM     23  O   UNL     1       7.635  10.679  -3.992  0.00  0.00    -0.273 OA
ATOM     24  C   UNL     1       8.902  12.227  -2.587  0.00  0.00    +0.113 C 
ATOM     25  C   UNL     1       8.688  13.492  -3.410  0.00  0.00    +0.035 C 
ATOM     26  C   UNL     1       9.752  14.530  -3.042  0.00  0.00    +0.003 C 
ATOM     27  C   UNL     1      11.142  13.953  -3.316  0.00  0.00    +0.000 C 
ATOM     28  C   UNL     1      11.351  12.698  -2.466  0.00  0.00    +0.003 C 
ATOM     29  C   UNL     1      10.294  11.653  -2.831  0.00  0.00    +0.035 C 
ATOM     30  N   UNL     1       8.701  12.500  -1.159  0.00  0.00    -0.285 N 
ATOM     31  C   UNL     1       7.668  11.731  -0.765  0.00  0.00    +0.309 C 
ATOM     32  O   UNL     1       7.231  11.714   0.369  0.00  0.00    -0.252 OA
ATOM     33  H   UNL     1       9.349  13.223  -0.641  0.00  0.00    +0.151 HD
ENDBRANCH  20  21
ENDBRANCH  19  20
ENDBRANCH   2  19
TORSDOF 5
