REMARK  Name = ZINC33706405
REMARK  5 active torsions:
REMARK  status: ('A' for Active; 'I' for Inactive)
REMARK    1  A    between atoms: C_4  and  C_7
REMARK    2  A    between atoms: C_10  and  C_11
REMARK    3  A    between atoms: N_20  and  C_21
REMARK    4  A    between atoms: C_24  and  S_27
REMARK    5  A    between atoms: S_27  and  N_30
REMARK                            x       y       z     vdW  Elec       q    Type
REMARK                         _______ _______ _______ _____ _____    ______ ____
ROOT
ATOM      1  C   UNL     1       3.695  -0.750  -0.469  0.00  0.00    +0.140 C 
ATOM      2  N   UNL     1       4.857  -0.153  -0.484  0.00  0.00    -0.226 NA
ATOM      3  C   UNL     1       5.798  -0.983   0.049  0.00  0.00    +0.129 C 
ATOM      4  C   UNL     1       7.141  -0.719   0.208  0.00  0.00    +0.041 C 
ATOM      5  C   UNL     1       5.085  -2.220   0.421  0.00  0.00    +0.275 C 
ATOM      6  O   UNL     1       5.559  -3.218   0.931  0.00  0.00    -0.268 OA
ATOM      7  N   UNL     1       3.795  -2.008   0.081  0.00  0.00    -0.219 N 
ENDROOT
BRANCH   4   8
ATOM      8  C   UNL     1       8.056  -1.794   0.605  0.00  0.00    -0.023 A 
ATOM      9  C   UNL     1       7.851  -3.101   0.144  0.00  0.00    +0.009 A 
ATOM     10  C   UNL     1       8.716  -4.104   0.521  0.00  0.00    +0.020 A 
ATOM     11  C   UNL     1       9.787  -3.824   1.355  0.00  0.00    +0.041 A 
ATOM     12  C   UNL     1       9.998  -2.533   1.815  0.00  0.00    +0.020 A 
ATOM     13  C   UNL     1       9.145  -1.517   1.443  0.00  0.00    +0.009 A 
ATOM     14 CL   UNL     1      10.871  -5.096   1.825  0.00  0.00    -0.084 Cl
ENDBRANCH   4   8
BRANCH   1  18
ATOM     15  C   UNL     1       0.087   0.969  -1.905  0.00  0.00    +0.000 A 
ATOM     16  C   UNL     1       0.104  -0.352  -1.493  0.00  0.00    +0.001 A 
ATOM     17  C   UNL     1       1.273  -0.916  -1.025  0.00  0.00    +0.011 A 
ATOM     18  C   UNL     1       2.440  -0.152  -0.969  0.00  0.00    +0.016 A 
ATOM     19  C   UNL     1       2.416   1.180  -1.386  0.00  0.00    +0.011 A 
ATOM     20  C   UNL     1       1.240   1.732  -1.851  0.00  0.00    +0.001 A 
ENDBRANCH   1  18
BRANCH   7  21
ATOM     21  C   UNL     1       2.740  -2.915   0.256  0.00  0.00    +0.043 A 
ATOM     22  C   UNL     1       2.515  -3.909  -0.687  0.00  0.00    +0.026 A 
ATOM     23  C   UNL     1       1.475  -4.801  -0.512  0.00  0.00    +0.030 A 
ATOM     24  C   UNL     1       0.659  -4.705   0.601  0.00  0.00    +0.105 A 
ATOM     25  C   UNL     1       0.881  -3.715   1.541  0.00  0.00    +0.030 A 
ATOM     26  C   UNL     1       1.923  -2.824   1.374  0.00  0.00    +0.026 A 
BRANCH  24  27
ATOM     27  S   UNL     1      -0.666  -5.845   0.820  0.00  0.00    +0.056 S 
ATOM     28  O   UNL     1      -1.617  -5.205   1.661  0.00  0.00    -0.153 OA
ATOM     29  O   UNL     1      -1.000  -6.333  -0.472  0.00  0.00    -0.153 OA
BRANCH  27  30
ATOM     30  N   UNL     1      -0.069  -7.132   1.674  0.00  0.00    -0.204 NA
ATOM     31  H   UNL     1       0.861  -7.142   1.948  0.00  0.00    +0.144 HD
ATOM     32  H   UNL     1      -0.649  -7.875   1.899  0.00  0.00    +0.144 HD
ENDBRANCH  27  30
ENDBRANCH  24  27
ENDBRANCH   7  21
TORSDOF 5
