REMARK  Name = ZINC36550687
REMARK  19 active torsions:
REMARK  status: ('A' for Active; 'I' for Inactive)
REMARK    1  A    between atoms: C_1  and  C_2
REMARK    2  A    between atoms: C_2  and  C_3
REMARK    3  A    between atoms: C_3  and  C_4
REMARK    4  A    between atoms: C_4  and  C_5
REMARK    5  A    between atoms: N_7  and  C_8
REMARK    6  A    between atoms: N_7  and  C_15
REMARK    7  A    between atoms: C_15  and  C_17
REMARK    8  A    between atoms: C_15  and  C_26
REMARK    9  A    between atoms: C_18  and  O_25
REMARK   10  A    between atoms: C_20  and  O_24
REMARK   11  A    between atoms: C_22  and  O_23
REMARK   12  A    between atoms: N_28  and  C_29
REMARK   13  A    between atoms: C_29  and  C_30
REMARK   14  A    between atoms: C_29  and  C_31
REMARK   15  A    between atoms: C_29  and  C_32
REMARK   16  A    between atoms: C_32  and  C_33
REMARK   17  A    between atoms: C_33  and  C_34
REMARK   18  A    between atoms: C_33  and  C_35
REMARK   19  A    between atoms: C_33  and  C_36
REMARK                            x       y       z     vdW  Elec       q    Type
REMARK                         _______ _______ _______ _____ _____    ______ ____
ROOT
ATOM      1  C   UNL     1       1.758  -5.026   4.605  0.00  0.00    +0.204 C 
ENDROOT
BRANCH   1   2
ATOM      2  C   UNL     1       2.326  -6.215   3.874  0.00  0.00    +0.065 A 
ATOM      3  C   UNL     1       1.491  -7.034   3.128  0.00  0.00    +0.129 A 
ATOM      4  C   UNL     1       2.014  -8.128   2.455  0.00  0.00    +0.091 A 
ATOM      5  C   UNL     1       3.371  -8.404   2.528  0.00  0.00    +0.124 A 
ATOM      6  C   UNL     1       4.206  -7.585   3.274  0.00  0.00    +0.091 A 
ATOM      7  C   UNL     1       3.684  -6.488   3.943  0.00  0.00    +0.129 A 
BRANCH   7   8
ATOM      8  O   UNL     1       4.502  -5.683   4.670  0.00  0.00    -0.506 OA
ATOM      9  H   UNL     1       4.602  -5.954   5.593  0.00  0.00    +0.292 HD
ENDBRANCH   7   8
BRANCH   5  10
ATOM     10  O   UNL     1       3.883  -9.477   1.870  0.00  0.00    -0.507 OA
ATOM     11  H   UNL     1       4.172  -9.283   0.968  0.00  0.00    +0.292 HD
ENDBRANCH   5  10
BRANCH   3  12
ATOM     12  O   UNL     1       0.162  -6.764   3.056  0.00  0.00    -0.506 OA
ATOM     13  H   UNL     1      -0.095  -6.253   2.275  0.00  0.00    +0.292 HD
ENDBRANCH   3  12
ENDBRANCH   1   2
BRANCH   1  14
ATOM     14  C   UNL     1       0.904  -5.503   5.752  0.00  0.00    +0.239 C 
ATOM     15  O   UNL     1      -0.267  -5.189   5.807  0.00  0.00    -0.273 OA
ATOM     16  N   UNL     1       1.440  -6.277   6.716  0.00  0.00    -0.308 N 
ATOM     17  H   UNL     1       2.376  -6.527   6.671  0.00  0.00    +0.149 HD
BRANCH  16  18
ATOM     18  C   UNL     1       0.610  -6.740   7.830  0.00  0.00    +0.030 C 
ATOM     19  C   UNL     1       0.172  -5.540   8.673  0.00  0.00    +0.031 C 
ATOM     20  C   UNL     1      -0.626  -7.456   7.282  0.00  0.00    +0.031 C 
BRANCH  18  21
ATOM     21  C   UNL     1       1.416  -7.706   8.700  0.00  0.00    +0.031 C 
BRANCH  21  22
ATOM     22  C   UNL     1       2.404  -8.478   7.823  0.00  0.00    -0.036 C 
ATOM     23  C   UNL     1       3.648  -7.620   7.580  0.00  0.00    +0.010 C 
ATOM     24  C   UNL     1       2.808  -9.774   8.530  0.00  0.00    +0.010 C 
ATOM     25  C   UNL     1       1.745  -8.811   6.484  0.00  0.00    +0.010 C 
ENDBRANCH  21  22
ENDBRANCH  18  21
ENDBRANCH  16  18
ENDBRANCH   1  14
BRANCH   1  28
ATOM     26  C   UNL     1       1.309  -4.106   2.394  0.00  0.00    +0.221 C 
ATOM     27  O   UNL     1       2.317  -4.650   1.995  0.00  0.00    -0.275 OA
ATOM     28  N   UNL     1       0.941  -4.232   3.685  0.00  0.00    -0.254 N 
BRANCH  28  29
ATOM     29  C   UNL     1      -0.222  -3.603   4.145  0.00  0.00    +0.056 A 
ATOM     30  C   UNL     1      -1.464  -4.178   3.908  0.00  0.00    +0.025 A 
ATOM     31  C   UNL     1      -2.610  -3.556   4.364  0.00  0.00    +0.002 A 
ATOM     32  C   UNL     1      -2.522  -2.362   5.056  0.00  0.00    +0.002 A 
ATOM     33  C   UNL     1      -1.287  -1.786   5.294  0.00  0.00    +0.022 A 
ATOM     34  C   UNL     1      -0.136  -2.406   4.846  0.00  0.00    +0.062 A 
ATOM     35 CL   UNL     1       1.414  -1.688   5.151  0.00  0.00    -0.082 Cl
ENDBRANCH  28  29
BRANCH  26  36
ATOM     36  C   UNL     1       0.469  -3.288   1.447  0.00  0.00    +0.096 C 
BRANCH  36  37
ATOM     37  C   UNL     1       1.103  -3.308   0.056  0.00  0.00    +0.009 C 
BRANCH  37  39
ATOM     38  C   UNL     1       0.885  -2.497  -2.298  0.00  0.00    +0.004 C 
ATOM     39  C   UNL     1       0.250  -2.478  -0.906  0.00  0.00    -0.003 C 
ENDBRANCH  37  39
ENDBRANCH  36  37
ENDBRANCH  26  36
ENDBRANCH   1  28
TORSDOF 13
