REMARK  Name = ZINC39467377
REMARK  4 active torsions:
REMARK  status: ('A' for Active; 'I' for Inactive)
REMARK    1  A    between atoms: C_4  and  O_33
REMARK    2  A    between atoms: C_5  and  C_7
REMARK    3  A    between atoms: P_23  and  C_26
REMARK    4  A    between atoms: C_31  and  O_32
REMARK                            x       y       z     vdW  Elec       q    Type
REMARK                         _______ _______ _______ _____ _____    ______ ____
ROOT
ATOM      1  C   UNL     1       1.245  -2.165  -0.023  0.00  0.00    -0.000 C 
ATOM      2  C   UNL     1       0.951  -2.843  -1.145  0.00  0.00    -0.015 C 
ATOM      3  C   UNL     1       0.973  -4.348  -1.125  0.00  0.00    +0.005 C 
ATOM      4  C   UNL     1       0.102  -4.912  -2.239  0.00  0.00    -0.046 C 
ATOM      5  N   UNL     1      -1.305  -4.513  -2.068  0.00  0.00    +0.398 N 
ATOM      6  C   UNL     1      -1.827  -5.021  -0.797  0.00  0.00    -0.020 C 
ATOM      7  C   UNL     1      -1.008  -4.461   0.372  0.00  0.00    -0.003 C 
ATOM      8  C   UNL     1       0.444  -4.851   0.221  0.00  0.00    +0.017 C 
ATOM      9  C   UNL     1       1.218  -4.183   1.332  0.00  0.00    -0.003 C 
ATOM     10  C   UNL     1       1.601  -2.915   1.202  0.00  0.00    +0.045 C 
ATOM     11 CL   UNL     1       2.507  -2.142   2.465  0.00  0.00    -0.083 Cl
ATOM     12  C   UNL     1      -3.281  -4.587  -0.571  0.00  0.00    +0.157 C 
ATOM     13  O   UNL     1      -4.111  -5.125  -1.615  0.00  0.00    -0.316 OA
ATOM     14  P   UNL     1      -3.634  -4.894  -3.154  0.00  0.00    +0.291 P 
ATOM     15  O   UNL     1      -4.003  -3.534  -3.606  0.00  0.00    -0.269 OA
ATOM     16  N   UNL     1      -1.988  -5.069  -3.128  0.00  0.00    -0.288 NA
ATOM     17  H   UNL     1      -1.519  -5.540  -3.835  0.00  0.00    +0.111 HD
ATOM     18  H   UNL     1      -1.380  -3.507  -2.103  0.00  0.00    -0.055 HD
ENDROOT
BRANCH   1  23
ATOM     19  C   UNL     1      -0.017   1.376   0.010  0.00  0.00    +0.001 A 
ATOM     20  C   UNL     1       1.169   2.089   0.002  0.00  0.00    +0.004 A 
ATOM     21  C   UNL     1       2.382   1.426  -0.013  0.00  0.00    +0.046 A 
ATOM     22  C   UNL     1       2.415   0.041  -0.022  0.00  0.00    +0.125 A 
ATOM     23  C   UNL     1       1.219  -0.683  -0.014  0.00  0.00    +0.025 A 
ATOM     24  C   UNL     1       0.002  -0.004   0.002  0.00  0.00    +0.012 A 
BRANCH  22  25
ATOM     25  O   UNL     1       3.607  -0.612  -0.038  0.00  0.00    -0.506 OA
ATOM     26  H   UNL     1       3.961  -0.806   0.841  0.00  0.00    +0.292 HD
ENDBRANCH  22  25
ENDBRANCH   1  23
BRANCH  14  27
ATOM     27  C   UNL     1      -4.383  -6.141  -4.239  0.00  0.00    +0.091 A 
ATOM     28  C   UNL     1      -3.733  -7.339  -4.465  0.00  0.00    +0.018 A 
ATOM     29  C   UNL     1      -4.303  -8.289  -5.292  0.00  0.00    +0.001 A 
ATOM     30  C   UNL     1      -5.523  -8.044  -5.894  0.00  0.00    +0.004 A 
ATOM     31  C   UNL     1      -6.176  -6.847  -5.670  0.00  0.00    +0.046 A 
ATOM     32  C   UNL     1      -5.610  -5.894  -4.837  0.00  0.00    +0.131 A 
BRANCH  32  33
ATOM     33  O   UNL     1      -6.253  -4.719  -4.610  0.00  0.00    -0.506 OA
ATOM     34  H   UNL     1      -6.029  -4.020  -5.240  0.00  0.00    +0.292 HD
ENDBRANCH  32  33
ENDBRANCH  14  27
TORSDOF 4
