REMARK  Name = ZINC13502547
REMARK  9 active torsions:
REMARK  status: ('A' for Active; 'I' for Inactive)
REMARK    1  A    between atoms: C_1  and  C_2
REMARK    2  A    between atoms: C_3  and  C_33
REMARK    3  A    between atoms: C_8  and  C_10
REMARK    4  A    between atoms: C_10  and  S_11
REMARK    5  A    between atoms: S_11  and  C_12
REMARK    6  A    between atoms: C_17  and  C_30
REMARK    7  A    between atoms: C_25  and  C_29
REMARK    8  A    between atoms: C_30  and  C_31
REMARK    9  A    between atoms: C_30  and  C_32
REMARK                            x       y       z     vdW  Elec       q    Type
REMARK                         _______ _______ _______ _____ _____    ______ ____
ROOT
ATOM      1  C   UNL     1      -2.210   4.245   0.130  0.00  0.00    +0.198 A 
ATOM      2  N   UNL     1      -3.085   3.266   0.160  0.00  0.00    -0.122 NA
ATOM      3  N   UNL     1      -2.482   2.128   0.123  0.00  0.00    -0.128 NA
ATOM      4  C   UNL     1      -1.188   2.317   0.062  0.00  0.00    +0.173 A 
ATOM      5  N   UNL     1      -0.968   3.677   0.070  0.00  0.00    -0.257 N 
ATOM      6  C   UNL     1       0.302   4.175   0.020  0.00  0.00    +0.121 A 
ATOM      7  N   UNL     1       1.338   3.388  -0.033  0.00  0.00    -0.226 NA
ATOM      8  C   UNL     1       1.225   2.062  -0.041  0.00  0.00    +0.114 A 
ATOM      9  C   UNL     1      -0.017   1.413   0.008  0.00  0.00    +0.056 A 
ATOM     10  C   UNL     1       0.002  -0.004  -0.008  0.00  0.00    -0.024 A 
ATOM     11  C   UNL     1       1.208  -0.615  -0.067  0.00  0.00    -0.004 A 
ATOM     12  S   UNL     1       2.380   0.714  -0.105  0.00  0.00    -0.073 S 
ATOM     13  C   UNL     1       1.483  -2.086  -0.094  0.00  0.00    +0.046 C 
ATOM     14  C   UNL     1       0.204  -2.826   0.326  0.00  0.00    -0.009 C 
ATOM     15  C   UNL     1      -0.978  -2.244  -0.455  0.00  0.00    +0.008 C 
ATOM     16  C   UNL     1      -1.282  -0.829   0.040  0.00  0.00    +0.037 C 
ATOM     17  C   UNL     1       0.347  -4.317   0.011  0.00  0.00    +0.008 C 
ENDROOT
BRANCH   6  18
ATOM     18  C   UNL     1       0.509   5.668   0.025  0.00  0.00    +0.049 C 
ATOM     19  C   UNL     1       1.194   6.083   1.328  0.00  0.00    +0.015 C 
ATOM     20  C   UNL     1       1.388   6.065  -1.163  0.00  0.00    +0.015 C 
ENDBRANCH   6  18
BRANCH   1  21
ATOM     21  S   UNL     1      -2.571   5.970   0.159  0.00  0.00    -0.076 S 
BRANCH  21  22
ATOM     22  C   UNL     1      -4.382   6.038   0.239  0.00  0.00    +0.173 C 
BRANCH  22  30
ATOM     23  C   UNL     1      -5.533  12.637   0.344  0.00  0.00    +0.066 C 
ATOM     24  C   UNL     1      -6.379  11.391   0.371  0.00  0.00    +0.050 A 
ATOM     25  C   UNL     1      -7.731  11.472   0.431  0.00  0.00    +0.011 A 
ATOM     26  S   UNL     1      -8.168   9.740   0.436  0.00  0.00    -0.057 S 
ATOM     27  C   UNL     1      -6.555   9.100   0.360  0.00  0.00    +0.165 A 
ATOM     28  N   UNL     1      -5.822  10.196   0.343  0.00  0.00    -0.230 NA
ATOM     29  N   UNL     1      -6.143   7.773   0.331  0.00  0.00    -0.264 N 
ATOM     30  C   UNL     1      -4.829   7.477   0.271  0.00  0.00    +0.229 C 
ATOM     31  O   UNL     1      -4.007   8.368   0.242  0.00  0.00    -0.275 OA
ATOM     32  C   UNL     1      -8.620  12.688   0.480  0.00  0.00    +0.053 C 
ATOM     33  H   UNL     1      -6.800   7.060   0.354  0.00  0.00    +0.157 HD
ENDBRANCH  22  30
ENDBRANCH  21  22
ENDBRANCH   1  21
TORSDOF 4
