REMARK  Name = ZINC00806399
REMARK  12 active torsions:
REMARK  status: ('A' for Active; 'I' for Inactive)
REMARK    1  A    between atoms: C_1  and  C_2
REMARK    2  A    between atoms: C_2  and  C_3
REMARK    3  A    between atoms: C_2  and  O_4
REMARK    4  A    between atoms: O_4  and  C_5
REMARK    5  A    between atoms: C_8  and  C_11
REMARK    6  A    between atoms: C_14  and  C_25
REMARK    7  A    between atoms: C_20  and  N_24
REMARK    8  A    between atoms: C_21  and  C_22
REMARK    9  A    between atoms: C_27  and  O_33
REMARK   10  A    between atoms: C_30  and  O_31
REMARK   11  A    between atoms: O_31  and  C_32
REMARK   12  A    between atoms: O_33  and  C_34
REMARK                            x       y       z     vdW  Elec       q    Type
REMARK                         _______ _______ _______ _____ _____    ______ ____
ROOT
ATOM      1  C   UNL     1      -2.138  -5.730  -2.184  0.00  0.00    +0.102 C 
ATOM      2  C   UNL     1      -2.873  -6.540  -1.149  0.00  0.00    +0.054 A 
ATOM      3  C   UNL     1      -2.406  -7.063   0.061  0.00  0.00    +0.104 A 
ATOM      4  N   UNL     1      -3.406  -7.702   0.640  0.00  0.00    -0.170 NA
ATOM      5  N   UNL     1      -4.534  -7.602  -0.189  0.00  0.00    -0.246 N 
ATOM      6  H   UNL     1      -5.409  -7.979  -0.009  0.00  0.00    +0.192 HD
ATOM      7  C   UNL     1      -4.187  -6.887  -1.280  0.00  0.00    +0.223 A 
ATOM      8  O   UNL     1      -4.934  -6.532  -2.355  0.00  0.00    -0.423 OA
ATOM      9  C   UNL     1      -4.285  -6.056  -3.437  0.00  0.00    +0.200 C 
ATOM     10  C   UNL     1      -2.989  -5.668  -3.427  0.00  0.00    +0.098 C 
ENDROOT
BRANCH   1  14
ATOM     11  C   UNL     1      -1.456  -1.779  -0.705  0.00  0.00    +0.121 A 
ATOM     12  C   UNL     1      -0.391  -2.546  -1.154  0.00  0.00    +0.046 A 
ATOM     13  C   UNL     1      -0.614  -3.823  -1.631  0.00  0.00    +0.008 A 
ATOM     14  C   UNL     1      -1.897  -4.337  -1.662  0.00  0.00    -0.034 A 
ATOM     15  C   UNL     1      -2.961  -3.574  -1.216  0.00  0.00    +0.008 A 
ATOM     16  C   UNL     1      -2.742  -2.298  -0.733  0.00  0.00    +0.046 A 
BRANCH  11  17
ATOM     17  O   UNL     1      -1.239  -0.522  -0.235  0.00  0.00    -0.489 OA
BRANCH  17  19
ATOM     18  C   UNL     1      -1.873   1.216   1.320  0.00  0.00    +0.051 C 
ATOM     19  C   UNL     1      -2.362   0.165   0.322  0.00  0.00    +0.167 C 
ATOM     20  C   UNL     1      -3.147   0.851  -0.798  0.00  0.00    +0.051 C 
ENDBRANCH  17  19
ENDBRANCH  11  17
ENDBRANCH   1  14
BRANCH   3  21
ATOM     21  C   UNL     1      -1.031  -6.924   0.600  0.00  0.00    +0.048 A 
ATOM     22  C   UNL     1       0.068  -7.172  -0.219  0.00  0.00    +0.059 A 
ATOM     23  C   UNL     1       1.350  -7.041   0.289  0.00  0.00    +0.121 A 
ATOM     24  C   UNL     1       1.540  -6.662   1.611  0.00  0.00    +0.049 A 
ATOM     25  C   UNL     1       0.453  -6.415   2.427  0.00  0.00    +0.050 A 
ATOM     26  C   UNL     1      -0.833  -6.538   1.928  0.00  0.00    +0.130 A 
BRANCH  26  27
ATOM     27  O   UNL     1      -1.901  -6.288   2.731  0.00  0.00    -0.494 OA
ATOM     28  C   UNL     1      -1.624  -5.898   4.077  0.00  0.00    +0.277 C 
ENDBRANCH  26  27
BRANCH  23  29
ATOM     29  O   UNL     1       2.424  -7.283  -0.509  0.00  0.00    -0.495 OA
ATOM     30  C   UNL     1       3.717  -7.129   0.079  0.00  0.00    +0.277 C 
ENDBRANCH  23  29
ENDBRANCH   3  21
BRANCH   9  31
ATOM     31  N   UNL     1      -4.980  -5.959  -4.617  0.00  0.00    -0.328 N 
ATOM     32  H   UNL     1      -5.910  -6.229  -4.655  0.00  0.00    +0.145 HD
ATOM     33  H   UNL     1      -4.540  -5.620  -5.412  0.00  0.00    +0.145 HD
ENDBRANCH   9  31
BRANCH  10  34
ATOM     34  C   UNL     1      -2.405  -5.182  -4.641  0.00  0.00    +0.101 C 
ATOM     35  N   UNL     1      -1.941  -4.796  -5.603  0.00  0.00    -0.191 NA
ENDBRANCH  10  34
TORSDOF 8
