REMARK  Name = ZINC58144041
REMARK  10 active torsions:
REMARK  status: ('A' for Active; 'I' for Inactive)
REMARK    1  A    between atoms: C_1  and  C_2
REMARK    2  A    between atoms: C_5  and  C_33
REMARK    3  A    between atoms: N_8  and  C_10
REMARK    4  A    between atoms: C_10  and  C_11
REMARK    5  A    between atoms: C_16  and  C_17
REMARK    6  A    between atoms: C_17  and  N_18
REMARK    7  A    between atoms: C_19  and  C_21
REMARK    8  A    between atoms: C_21  and  N_22
REMARK    9  A    between atoms: C_25  and  C_29
REMARK   10  A    between atoms: C_25  and  C_30
REMARK                            x       y       z     vdW  Elec       q    Type
REMARK                         _______ _______ _______ _____ _____    ______ ____
ROOT
ATOM      1  C   UNL     1       0.437  -1.763   3.434  0.00  0.00    +0.139 C 
ENDROOT
BRANCH   1   7
ATOM      2  C   UNL     1       2.180   0.032   3.384  0.00  0.00    -0.059 A 
ATOM      3  C   UNL     1       2.723   1.211   3.861  0.00  0.00    +0.002 A 
ATOM      4  C   UNL     1       2.122   1.871   4.916  0.00  0.00    +0.000 A 
ATOM      5  C   UNL     1       0.977   1.354   5.494  0.00  0.00    +0.000 A 
ATOM      6  C   UNL     1       0.434   0.177   5.016  0.00  0.00    +0.005 A 
ATOM      7  C   UNL     1       1.033  -0.482   3.958  0.00  0.00    -0.029 A 
BRANCH   2   8
ATOM      8  C   UNL     1       2.836  -0.688   2.234  0.00  0.00    -0.043 C 
BRANCH   8  14
ATOM      9  C   UNL     1       4.773  -3.151   5.061  0.00  0.00    +0.005 C 
ATOM     10  C   UNL     1       5.643  -2.303   4.131  0.00  0.00    -0.031 C 
ATOM     11  C   UNL     1       6.202  -3.183   3.010  0.00  0.00    +0.003 C 
ATOM     12  C   UNL     1       5.040  -3.725   2.172  0.00  0.00    -0.031 C 
ATOM     13  C   UNL     1       4.217  -2.553   1.633  0.00  0.00    -0.075 C 
ATOM     14  N   UNL     1       3.689  -1.765   2.754  0.00  0.00    +0.383 N 
ATOM     15  C   UNL     1       4.797  -1.183   3.521  0.00  0.00    -0.075 C 
ATOM     16  C   UNL     1       5.592  -4.543   1.002  0.00  0.00    +0.005 C 
ATOM     17  H   UNL     1       3.143  -2.363   3.356  0.00  0.00    -0.081 HD
ENDBRANCH   8  14
ENDBRANCH   2   8
ENDBRANCH   1   7
BRANCH   1  18
ATOM     18  N   UNL     1       1.148  -2.905   4.014  0.00  0.00    -0.310 N 
ATOM     19  C   UNL     1       0.815  -4.160   3.653  0.00  0.00    +0.231 C 
ATOM     20  O   UNL     1      -0.072  -4.344   2.847  0.00  0.00    -0.274 OA
ATOM     21  H   UNL     1       1.858  -2.758   4.659  0.00  0.00    +0.149 HD
BRANCH  19  22
ATOM     22  C   UNL     1       1.546  -5.335   4.250  0.00  0.00    +0.213 C 
BRANCH  22  23
ATOM     23  N   UNL     1       1.003  -6.580   3.699  0.00  0.00    -0.215 N 
ATOM     24  C   UNL     1      -0.026  -7.261   4.241  0.00  0.00    +0.247 C 
ATOM     25  O   UNL     1      -0.652  -6.972   5.238  0.00  0.00    -0.273 OA
ATOM     26  C   UNL     1      -0.237  -8.465   3.344  0.00  0.00    +0.113 C 
ATOM     27  N   UNL     1       0.794  -8.307   2.304  0.00  0.00    -0.285 N 
ATOM     28  C   UNL     1       1.463  -7.176   2.594  0.00  0.00    +0.310 C 
ATOM     29  O   UNL     1       2.384  -6.747   1.927  0.00  0.00    -0.252 OA
ATOM     30  C   UNL     1      -0.019  -9.763   4.125  0.00  0.00    +0.042 C 
ATOM     31  H   UNL     1       0.957  -8.900   1.554  0.00  0.00    +0.151 HD
BRANCH  26  32
ATOM     32  C   UNL     1      -1.636  -8.436   2.725  0.00  0.00    +0.021 C 
ATOM     33  C   UNL     1      -2.670  -9.424   3.269  0.00  0.00    +0.006 C 
ATOM     34  C   UNL     1      -2.060  -9.640   1.882  0.00  0.00    +0.006 C 
ENDBRANCH  26  32
ENDBRANCH  22  23
ENDBRANCH  19  22
ENDBRANCH   1  18
TORSDOF 7
