REMARK  Name = ZINC09167461
REMARK  7 active torsions:
REMARK  status: ('A' for Active; 'I' for Inactive)
REMARK    1  A    between atoms: C_8  and  C_11
REMARK    2  A    between atoms: N_13  and  C_14
REMARK    3  A    between atoms: C_14  and  C_16
REMARK    4  A    between atoms: C_14  and  C_27
REMARK    5  A    between atoms: C_16  and  C_17
REMARK    6  A    between atoms: N_29  and  C_30
REMARK    7  A    between atoms: C_30  and  C_31
REMARK                            x       y       z     vdW  Elec       q    Type
REMARK                         _______ _______ _______ _____ _____    ______ ____
ROOT
ATOM      1  C   UNL     1       1.248   1.716  -0.001  0.00  0.00    +0.163 C 
ENDROOT
BRANCH   1   4
ATOM      2  C   UNL     1      -1.187   1.624   0.017  0.00  0.00    +0.200 C 
ATOM      3  O   UNL     1      -1.204   2.837   0.023  0.00  0.00    -0.278 OA
ATOM      4  N   UNL     1      -0.011   0.966   0.007  0.00  0.00    -0.305 N 
ATOM      5  H   UNL     1       0.002  -0.004   0.002  0.00  0.00    +0.149 HD
BRANCH   2  13
ATOM      6  C   UNL     1      -5.806  -1.517   2.672  0.00  0.00    +0.000 A 
ATOM      7  C   UNL     1      -6.741  -1.243   1.691  0.00  0.00    +0.000 A 
ATOM      8  C   UNL     1      -6.397  -0.447   0.618  0.00  0.00    +0.002 A 
ATOM      9  C   UNL     1      -5.118   0.081   0.517  0.00  0.00    -0.061 A 
ATOM     10  C   UNL     1      -4.188  -0.189   1.498  0.00  0.00    -0.047 A 
ATOM     11  C   UNL     1      -4.534  -0.991   2.575  0.00  0.00    +0.004 A 
ATOM     12  C   UNL     1      -2.789   0.367   1.435  0.00  0.00    +0.028 C 
ATOM     13  C   UNL     1      -2.482   0.853   0.018  0.00  0.00    +0.021 C 
ATOM     14  C   UNL     1      -4.788   0.938  -0.677  0.00  0.00    -0.045 C 
ATOM     15  N   UNL     1      -3.579   1.733  -0.424  0.00  0.00    +0.389 N 
ATOM     16  H   UNL     1      -3.301   2.215  -1.288  0.00  0.00    -0.084 HD
ATOM     17  H   UNL     1      -3.775   2.427   0.307  0.00  0.00    -0.084 HD
ENDBRANCH   2  13
ENDBRANCH   1   4
BRANCH   1  18
ATOM     18  C   UNL     1       2.344   0.863   0.585  0.00  0.00    +0.234 C 
ATOM     19  O   UNL     1       2.098  -0.260   0.971  0.00  0.00    -0.274 OA
ATOM     20  N   UNL     1       3.597   1.349   0.679  0.00  0.00    -0.307 N 
ATOM     21  H   UNL     1       3.794   2.247   0.371  0.00  0.00    +0.149 HD
BRANCH  20  22
ATOM     22  C   UNL     1       4.663   0.520   1.249  0.00  0.00    +0.178 C 
BRANCH  22  23
ATOM     23  C   UNL     1       5.958   1.291   1.240  0.00  0.00    +0.122 A 
ATOM     24  C   UNL     1       6.407   2.085   2.229  0.00  0.00    +0.046 A 
ATOM     25  C   UNL     1       7.651   2.605   1.804  0.00  0.00    +0.041 A 
ATOM     26  C   UNL     1       7.888   2.098   0.581  0.00  0.00    +0.195 A 
ATOM     27  O   UNL     1       6.861   1.298   0.247  0.00  0.00    -0.466 OA
ENDBRANCH  22  23
ENDBRANCH  20  22
ENDBRANCH   1  18
BRANCH   1  28
ATOM     28  C   UNL     1       1.608   2.092  -1.439  0.00  0.00    +0.069 C 
BRANCH  28  29
ATOM     29  C   UNL     1       0.573   3.044  -1.983  0.00  0.00    -0.020 A 
ATOM     30  C   UNL     1      -0.504   2.719  -2.715  0.00  0.00    +0.087 A 
ATOM     31  N   UNL     1      -1.213   3.847  -3.028  0.00  0.00    -0.360 N 
ATOM     32  H   UNL     1      -2.030   3.864  -3.550  0.00  0.00    +0.165 HD
ATOM     33  C   UNL     1      -0.593   4.953  -2.491  0.00  0.00    +0.047 A 
ATOM     34  C   UNL     1       0.550   4.498  -1.808  0.00  0.00    +0.003 A 
ATOM     35  C   UNL     1       1.379   5.410  -1.154  0.00  0.00    +0.010 A 
ATOM     36  C   UNL     1       1.074   6.742  -1.177  0.00  0.00    +0.001 A 
ATOM     37  C   UNL     1      -0.054   7.196  -1.846  0.00  0.00    +0.002 A 
ATOM     38  C   UNL     1      -0.882   6.313  -2.505  0.00  0.00    +0.026 A 
ENDBRANCH  28  29
ENDBRANCH   1  28
TORSDOF 7
