REMARK  Name = ZINC39637477
REMARK  7 active torsions:
REMARK  status: ('A' for Active; 'I' for Inactive)
REMARK    1  A    between atoms: C_1  and  C_2
REMARK    2  A    between atoms: C_7  and  N_12
REMARK    3  A    between atoms: C_9  and  C_11
REMARK    4  A    between atoms: C_13  and  C_15
REMARK    5  A    between atoms: C_26  and  C_28
REMARK    6  A    between atoms: C_31  and  O_35
REMARK    7  A    between atoms: O_35  and  C_36
REMARK                            x       y       z     vdW  Elec       q    Type
REMARK                         _______ _______ _______ _____ _____    ______ ____
ROOT
ATOM      1  C   UNL     1       3.145  -4.001   3.085  0.00  0.00    +0.100 C 
ATOM      2  C   UNL     1       4.331  -3.205   3.675  0.00  0.00    +0.121 C 
ATOM      3  N   UNL     1       5.260  -4.242   4.185  0.00  0.00    -0.296 N 
ATOM      4  C   UNL     1       5.209  -5.316   3.164  0.00  0.00    +0.115 C 
ATOM      5  C   UNL     1       3.725  -5.385   2.750  0.00  0.00    -0.004 C 
ATOM      6  C   UNL     1       3.608  -5.659   1.254  0.00  0.00    -0.010 C 
ATOM      7  C   UNL     1       4.138  -7.064   0.954  0.00  0.00    -0.082 C 
ATOM      8  N   UNL     1       3.365  -8.053   1.715  0.00  0.00    +0.379 N 
ATOM      9  C   UNL     1       3.558  -7.840   3.154  0.00  0.00    -0.082 C 
ATOM     10  C   UNL     1       3.004  -6.467   3.547  0.00  0.00    -0.010 C 
ATOM     11  C   UNL     1       5.987  -4.214   5.319  0.00  0.00    +0.247 C 
ATOM     12  O   UNL     1       5.825  -3.316   6.123  0.00  0.00    -0.270 OA
ATOM     13  H   UNL     1       2.386  -7.958   1.490  0.00  0.00    -0.086 HD
ATOM     14  H   UNL     1       3.676  -8.982   1.470  0.00  0.00    -0.086 HD
ENDROOT
BRANCH  11  15
ATOM     15  C   UNL     1       6.980  -5.273   5.586  0.00  0.00    +0.040 A 
ATOM     16  C   UNL     1       7.488  -6.037   4.532  0.00  0.00    +0.036 A 
ATOM     17  C   UNL     1       8.415  -7.026   4.785  0.00  0.00    +0.085 A 
ATOM     18  C   UNL     1       8.844  -7.263   6.087  0.00  0.00    +0.157 A 
ATOM     19  C   UNL     1       8.340  -6.504   7.137  0.00  0.00    +0.085 A 
ATOM     20  C   UNL     1       7.417  -5.510   6.891  0.00  0.00    +0.036 A 
ATOM     21 CL   UNL     1       8.879  -6.805   8.760  0.00  0.00    -0.080 Cl
ATOM     22 CL   UNL     1       9.048  -7.976   3.477  0.00  0.00    -0.080 Cl
BRANCH  18  23
ATOM     23  O   UNL     1       9.756  -8.237   6.332  0.00  0.00    -0.492 OA
ATOM     24  C   UNL     1      11.134  -7.861   6.292  0.00  0.00    +0.277 C 
ENDBRANCH  18  23
ENDBRANCH  11  15
BRANCH   1  26
ATOM     25  N   UNL     1       1.333  -3.435   1.499  0.00  0.00    -0.312 N 
ATOM     26  C   UNL     1       2.634  -3.330   1.836  0.00  0.00    +0.218 C 
ATOM     27  O   UNL     1       3.393  -2.696   1.134  0.00  0.00    -0.275 OA
ATOM     28  H   UNL     1       0.726  -3.942   2.061  0.00  0.00    +0.149 HD
BRANCH  25  34
ATOM     29  C   UNL     1      -2.679  -1.547  -0.689  0.00  0.00    +0.008 C 
ATOM     30  C   UNL     1      -1.181  -1.824  -0.836  0.00  0.00    -0.009 C 
ATOM     31  C   UNL     1      -0.948  -2.740  -2.039  0.00  0.00    +0.003 C 
ATOM     32  C   UNL     1       0.550  -3.018  -2.186  0.00  0.00    +0.002 C 
ATOM     33  C   UNL     1       1.069  -3.699  -0.918  0.00  0.00    +0.022 C 
ATOM     34  C   UNL     1       0.836  -2.783   0.285  0.00  0.00    +0.076 C 
ATOM     35  C   UNL     1      -0.662  -2.505   0.432  0.00  0.00    +0.009 C 
ATOM     36  C   UNL     1      -1.407  -3.825   0.644  0.00  0.00    +0.009 C 
ENDBRANCH  25  34
ENDBRANCH   1  26
TORSDOF 4
