REMARK  Name = ZINC11207575
REMARK  8 active torsions:
REMARK  status: ('A' for Active; 'I' for Inactive)
REMARK    1  A    between atoms: C_1  and  C_2
REMARK    2  A    between atoms: C_5  and  C_27
REMARK    3  A    between atoms: N_6  and  C_7
REMARK    4  A    between atoms: C_11  and  C_13
REMARK    5  A    between atoms: N_15  and  C_16
REMARK    6  A    between atoms: C_16  and  C_17
REMARK    7  A    between atoms: C_20  and  S_22
REMARK    8  A    between atoms: S_22  and  N_25
REMARK                            x       y       z     vdW  Elec       q    Type
REMARK                         _______ _______ _______ _____ _____    ______ ____
ROOT
ATOM      1  C   UNL     1       5.498  -0.954  -1.682  0.00  0.00    +0.246 C 
ATOM      2  O   UNL     1       6.257  -1.205  -0.767  0.00  0.00    -0.270 OA
ATOM      3  N   UNL     1       4.242  -0.541  -1.422  0.00  0.00    -0.307 N 
ATOM      4  H   UNL     1       3.636  -0.340  -2.153  0.00  0.00    +0.149 HD
ENDROOT
BRANCH   1   9
ATOM      5  C   UNL     1       5.517  -0.953  -5.442  0.00  0.00    +0.047 A 
ATOM      6  C   UNL     1       6.814  -1.379  -5.703  0.00  0.00    +0.027 A 
ATOM      7  C   UNL     1       7.676  -1.665  -4.662  0.00  0.00    +0.023 A 
ATOM      8  C   UNL     1       7.255  -1.528  -3.353  0.00  0.00    +0.053 A 
ATOM      9  C   UNL     1       5.953  -1.100  -3.081  0.00  0.00    +0.057 A 
ATOM     10  C   UNL     1       5.082  -0.818  -4.134  0.00  0.00    +0.040 A 
ATOM     11 CL   UNL     1       8.342  -1.888  -2.049  0.00  0.00    -0.083 Cl
BRANCH   5  17
ATOM     12  C   UNL     1       4.385   1.836  -6.033  0.00  0.00    +0.064 C 
ATOM     13  C   UNL     1       4.125   0.562  -6.794  0.00  0.00    +0.021 A 
ATOM     14  C   UNL     1       3.338   0.438  -7.883  0.00  0.00    +0.023 A 
ATOM     15  C   UNL     1       3.368  -0.916  -8.274  0.00  0.00    +0.023 A 
ATOM     16  C   UNL     1       4.175  -1.568  -7.413  0.00  0.00    +0.021 A 
ATOM     17  N   UNL     1       4.647  -0.666  -6.503  0.00  0.00    -0.318 N 
ATOM     18  C   UNL     1       4.501  -3.039  -7.449  0.00  0.00    +0.064 C 
ENDBRANCH   5  17
ENDBRANCH   1   9
BRANCH   3  19
ATOM     19  C   UNL     1       3.791  -0.395  -0.036  0.00  0.00    +0.147 C 
BRANCH  19  20
ATOM     20  C   UNL     1       2.360   0.076  -0.020  0.00  0.00    +0.009 A 
ATOM     21  C   UNL     1       1.220  -0.658  -0.013  0.00  0.00    +0.015 A 
ATOM     22  C   UNL     1       0.002  -0.004   0.002  0.00  0.00    +0.036 A 
ATOM     23  C   UNL     1      -0.016   1.351   0.009  0.00  0.00    +0.142 A 
ATOM     24  S   UNL     1       1.725   1.744  -0.005  0.00  0.00    -0.072 S 
BRANCH  23  25
ATOM     25  S   UNL     1      -1.400   2.442   0.022  0.00  0.00    +0.062 S 
ATOM     26  O   UNL     1      -0.951   3.675  -0.524  0.00  0.00    -0.153 OA
ATOM     27  O   UNL     1      -2.493   1.719  -0.527  0.00  0.00    -0.153 OA
BRANCH  25  28
ATOM     28  N   UNL     1      -1.776   2.737   1.608  0.00  0.00    -0.203 NA
ATOM     29  H   UNL     1      -2.174   3.584   1.863  0.00  0.00    +0.144 HD
ATOM     30  H   UNL     1      -1.600   2.062   2.282  0.00  0.00    +0.144 HD
ENDBRANCH  25  28
ENDBRANCH  23  25
ENDBRANCH  19  20
ENDBRANCH   3  19
TORSDOF 6
