REMARK  Name = ZINC39673389
REMARK  6 active torsions:
REMARK  status: ('A' for Active; 'I' for Inactive)
REMARK    1  A    between atoms: C_7  and  C_10
REMARK    2  A    between atoms: C_14  and  C_23
REMARK    3  A    between atoms: N_25  and  C_26
REMARK    4  A    between atoms: C_26  and  C_27
REMARK    5  A    between atoms: C_30  and  O_33
REMARK    6  A    between atoms: O_33  and  C_34
REMARK                            x       y       z     vdW  Elec       q    Type
REMARK                         _______ _______ _______ _____ _____    ______ ____
ROOT
ATOM      1  C   UNL     1       0.381  -3.115  -0.015  0.00  0.00    +0.248 C 
ATOM      2  O   UNL     1      -0.768  -2.735   0.105  0.00  0.00    -0.270 OA
ATOM      3  N   UNL     1       0.647  -4.432  -0.127  0.00  0.00    -0.296 N 
ATOM      4  C   UNL     1       1.974  -5.091  -0.156  0.00  0.00    +0.121 C 
ATOM      5  C   UNL     1       1.787  -6.380   0.675  0.00  0.00    +0.100 C 
ATOM      6  C   UNL     1       0.280  -6.675   0.608  0.00  0.00    -0.004 C 
ATOM      7  C   UNL     1      -0.322  -5.548  -0.243  0.00  0.00    +0.115 C 
ATOM      8  C   UNL     1      -0.326  -6.651   2.008  0.00  0.00    -0.010 C 
ATOM      9  C   UNL     1      -1.814  -7.003   1.921  0.00  0.00    -0.082 C 
ATOM     10  N   UNL     1      -1.970  -8.334   1.322  0.00  0.00    +0.379 N 
ATOM     11  C   UNL     1      -1.468  -8.324  -0.058  0.00  0.00    -0.082 C 
ATOM     12  C   UNL     1       0.034  -8.027  -0.055  0.00  0.00    -0.010 C 
ATOM     13  H   UNL     1      -1.448  -9.008   1.863  0.00  0.00    -0.086 HD
ATOM     14  H   UNL     1      -2.946  -8.590   1.322  0.00  0.00    -0.086 HD
ENDROOT
BRANCH   1  21
ATOM     15  C   UNL     1       0.335   0.985   1.837  0.00  0.00    +0.001 A 
ATOM     16  C   UNL     1       1.486   1.747   1.697  0.00  0.00    +0.001 A 
ATOM     17  C   UNL     1       2.570   1.231   1.014  0.00  0.00    +0.015 A 
ATOM     18  C   UNL     1       2.495  -0.037   0.478  0.00  0.00    +0.020 A 
ATOM     19  C   UNL     1       1.340  -0.831   0.605  0.00  0.00    +0.001 A 
ATOM     20  C   UNL     1       0.251  -0.278   1.307  0.00  0.00    +0.010 A 
ATOM     21  C   UNL     1       1.479  -2.140  -0.038  0.00  0.00    +0.052 A 
ATOM     22  C   UNL     1       2.655  -2.423  -0.656  0.00  0.00    +0.059 A 
ATOM     23  S   UNL     1       3.609  -1.060  -0.445  0.00  0.00    -0.096 S 
ENDBRANCH   1  21
BRANCH   5  24
ATOM     24  C   UNL     1       2.217  -6.152   2.101  0.00  0.00    +0.218 C 
ATOM     25  O   UNL     1       2.034  -5.073   2.624  0.00  0.00    -0.275 OA
ATOM     26  N   UNL     1       2.804  -7.147   2.796  0.00  0.00    -0.311 N 
ATOM     27  H   UNL     1       2.950  -8.010   2.377  0.00  0.00    +0.149 HD
BRANCH  26  28
ATOM     28  C   UNL     1       3.222  -6.925   4.182  0.00  0.00    +0.139 C 
BRANCH  28  29
ATOM     29  C   UNL     1       3.846  -8.184   4.726  0.00  0.00    -0.030 A 
ATOM     30  C   UNL     1       3.056  -9.131   5.353  0.00  0.00    +0.009 A 
ATOM     31  C   UNL     1       3.626 -10.286   5.853  0.00  0.00    +0.046 A 
ATOM     32  C   UNL     1       4.992 -10.495   5.726  0.00  0.00    +0.127 A 
ATOM     33  C   UNL     1       5.782  -9.544   5.096  0.00  0.00    +0.046 A 
ATOM     34  C   UNL     1       5.206  -8.394   4.593  0.00  0.00    +0.009 A 
BRANCH  32  35
ATOM     35  O   UNL     1       5.555 -11.630   6.217  0.00  0.00    -0.434 OA
BRANCH  35  36
ATOM     36  C   UNL     1       6.966 -11.780   6.050  0.00  0.00    +0.541 C 
ATOM     37  F   UNL     1       7.279 -11.765   4.687  0.00  0.00    -0.166 F 
ATOM     38  F   UNL     1       7.625 -10.725   6.691  0.00  0.00    -0.166 F 
ENDBRANCH  35  36
ENDBRANCH  32  35
ENDBRANCH  28  29
ENDBRANCH  26  28
ENDBRANCH   5  24
TORSDOF 6
