REMARK  Name = ZINC16190830
REMARK  12 active torsions:
REMARK  status: ('A' for Active; 'I' for Inactive)
REMARK    1  A    between atoms: C_1  and  C_2
REMARK    2  A    between atoms: C_2  and  C_3
REMARK    3  A    between atoms: C_2  and  C_4
REMARK    4  A    between atoms: C_2  and  C_16
REMARK    5  A    between atoms: C_4  and  N_5
REMARK    6  A    between atoms: N_5  and  C_6
REMARK    7  A    between atoms: C_6  and  N_8
REMARK    8  A    between atoms: N_8  and  C_9
REMARK    9  A    between atoms: C_16  and  N_17
REMARK   10  A    between atoms: N_17  and  C_18
REMARK   11  A    between atoms: C_18  and  N_20
REMARK   12  A    between atoms: N_20  and  C_21
REMARK                            x       y       z     vdW  Elec       q    Type
REMARK                         _______ _______ _______ _____ _____    ______ ____
ROOT
ATOM      1  C   UNL     1       0.118   1.463   0.249  0.00  0.00    +0.014 C 
ATOM      2  C   UNL     1       0.365  -0.041   0.111  0.00  0.00    -0.004 C 
ATOM      3  C   UNL     1       1.227  -0.525   1.279  0.00  0.00    +0.014 C 
ENDROOT
BRANCH   2   4
ATOM      4  C   UNL     1      -0.974  -0.781   0.124  0.00  0.00    +0.111 C 
BRANCH   4   5
ATOM      5  N   UNL     1      -1.667  -0.514   1.387  0.00  0.00    -0.326 N 
ATOM      6  H   UNL     1      -1.257   0.060   2.053  0.00  0.00    +0.148 HD
BRANCH   5   7
ATOM      7  C   UNL     1      -2.874  -1.065   1.623  0.00  0.00    +0.135 C 
ATOM      8  S   UNL     1      -3.597  -2.077   0.447  0.00  0.00    -0.019 S 
BRANCH   7   9
ATOM      9  N   UNL     1      -3.512  -0.819   2.784  0.00  0.00    -0.296 N 
ATOM     10  H   UNL     1      -3.073  -0.304   3.479  0.00  0.00    +0.154 HD
BRANCH   9  11
ATOM     11  C   UNL     1      -4.807  -1.308   2.988  0.00  0.00    +0.051 A 
ATOM     12  C   UNL     1      -5.117  -2.619   2.652  0.00  0.00    +0.025 A 
ATOM     13  C   UNL     1      -6.397  -3.098   2.854  0.00  0.00    +0.002 A 
ATOM     14  C   UNL     1      -7.369  -2.274   3.391  0.00  0.00    +0.002 A 
ATOM     15  C   UNL     1      -7.065  -0.968   3.727  0.00  0.00    +0.022 A 
ATOM     16  C   UNL     1      -5.785  -0.483   3.533  0.00  0.00    +0.062 A 
ATOM     17 CL   UNL     1      -5.400   1.154   3.961  0.00  0.00    -0.082 Cl
ENDBRANCH   9  11
ENDBRANCH   7   9
ENDBRANCH   5   7
ENDBRANCH   4   5
ENDBRANCH   2   4
BRANCH   2  18
ATOM     18  C   UNL     1       1.089  -0.319  -1.208  0.00  0.00    +0.111 C 
BRANCH  18  19
ATOM     19  N   UNL     1       2.371   0.389  -1.220  0.00  0.00    -0.326 N 
ATOM     20  H   UNL     1       2.634   0.930  -0.459  0.00  0.00    +0.148 HD
BRANCH  19  21
ATOM     21  C   UNL     1       3.186   0.290  -2.289  0.00  0.00    +0.135 C 
ATOM     22  S   UNL     1       2.722  -0.664  -3.633  0.00  0.00    -0.019 S 
BRANCH  21  23
ATOM     23  N   UNL     1       4.365   0.942  -2.301  0.00  0.00    -0.296 N 
ATOM     24  H   UNL     1       4.650   1.443  -1.521  0.00  0.00    +0.154 HD
BRANCH  23  25
ATOM     25  C   UNL     1       5.179   0.896  -3.439  0.00  0.00    +0.051 A 
ATOM     26  C   UNL     1       4.609   0.933  -4.704  0.00  0.00    +0.025 A 
ATOM     27  C   UNL     1       5.415   0.887  -5.825  0.00  0.00    +0.002 A 
ATOM     28  C   UNL     1       6.788   0.805  -5.689  0.00  0.00    +0.002 A 
ATOM     29  C   UNL     1       7.360   0.768  -4.430  0.00  0.00    +0.022 A 
ATOM     30  C   UNL     1       6.560   0.819  -3.304  0.00  0.00    +0.062 A 
ATOM     31 CL   UNL     1       7.279   0.780  -1.725  0.00  0.00    -0.082 Cl
ENDBRANCH  23  25
ENDBRANCH  21  23
ENDBRANCH  19  21
ENDBRANCH  18  19
ENDBRANCH   2  18
TORSDOF 10
