REMARK  Name = ZINC09610536
REMARK  6 active torsions:
REMARK  status: ('A' for Active; 'I' for Inactive)
REMARK    1  A    between atoms: C_4  and  C_7
REMARK    2  A    between atoms: C_7  and  C_9
REMARK    3  A    between atoms: C_7  and  N_19
REMARK    4  A    between atoms: N_11  and  C_12
REMARK    5  A    between atoms: N_19  and  S_20
REMARK    6  A    between atoms: S_20  and  C_23
REMARK                            x       y       z     vdW  Elec       q    Type
REMARK                         _______ _______ _______ _____ _____    ______ ____
ROOT
ATOM      1  C   UNL     1      -1.103  -1.968  -2.434  0.00  0.00    +0.192 C 
ENDROOT
BRANCH   1   5
ATOM      2  C   UNL     1      -2.620  -5.961  -2.439  0.00  0.00    +0.000 A 
ATOM      3  C   UNL     1      -1.256  -5.740  -2.420  0.00  0.00    +0.000 A 
ATOM      4  C   UNL     1      -0.765  -4.448  -2.418  0.00  0.00    +0.006 A 
ATOM      5  C   UNL     1      -1.638  -3.376  -2.437  0.00  0.00    -0.020 A 
ATOM      6  C   UNL     1      -3.003  -3.597  -2.451  0.00  0.00    +0.006 A 
ATOM      7  C   UNL     1      -3.494  -4.889  -2.457  0.00  0.00    +0.000 A 
ENDBRANCH   1   5
BRANCH   1   8
ATOM      8  C   UNL     1      -1.134  -1.417  -3.837  0.00  0.00    +0.240 C 
ATOM      9  O   UNL     1      -1.784  -0.423  -4.084  0.00  0.00    -0.273 OA
ATOM     10  N   UNL     1      -0.438  -2.028  -4.816  0.00  0.00    -0.283 N 
ATOM     11  H   UNL     1       0.133  -2.783  -4.607  0.00  0.00    +0.155 HD
BRANCH  10  12
ATOM     12  C   UNL     1      -0.541  -1.573  -6.136  0.00  0.00    +0.048 A 
ATOM     13  C   UNL     1      -0.698  -0.217  -6.394  0.00  0.00    +0.024 A 
ATOM     14  C   UNL     1      -0.795   0.229  -7.698  0.00  0.00    +0.002 A 
ATOM     15  C   UNL     1      -0.746  -0.673  -8.745  0.00  0.00    +0.001 A 
ATOM     16  C   UNL     1      -0.594  -2.024  -8.492  0.00  0.00    +0.017 A 
ATOM     17  C   UNL     1      -0.492  -2.477  -7.190  0.00  0.00    +0.039 A 
ATOM     18 BR   UNL     1      -0.286  -4.324  -6.844  0.00  0.00    -0.048 Br
ENDBRANCH  10  12
ENDBRANCH   1   8
BRANCH   1  19
ATOM     19  N   UNL     1      -1.932  -1.131  -1.563  0.00  0.00    -0.174 NA
ATOM     20  H   UNL     1      -2.742  -0.724  -1.909  0.00  0.00    +0.149 HD
BRANCH  19  21
ATOM     21  S   UNL     1      -1.487  -0.881   0.012  0.00  0.00    +0.059 S 
ATOM     22  O   UNL     1      -1.190  -2.159   0.558  0.00  0.00    -0.153 OA
ATOM     23  O   UNL     1      -2.465  -0.020   0.579  0.00  0.00    -0.153 OA
BRANCH  21  24
ATOM     24  C   UNL     1       0.027   0.020  -0.011  0.00  0.00    +0.106 A 
ATOM     25  C   UNL     1       1.233  -0.656  -0.029  0.00  0.00    +0.030 A 
ATOM     26  C   UNL     1       2.421   0.047  -0.046  0.00  0.00    +0.025 A 
ATOM     27  C   UNL     1       2.404   1.435  -0.045  0.00  0.00    +0.037 A 
ATOM     28  C   UNL     1       1.191   2.112  -0.027  0.00  0.00    -0.024 A 
ATOM     29  C   UNL     1       0.006   1.403  -0.010  0.00  0.00    +0.034 A 
ATOM     30  C   UNL     1       1.173   3.618  -0.028  0.00  0.00    +0.046 C 
ATOM     31  C   UNL     1       2.374   4.144   0.757  0.00  0.00    +0.101 C 
ATOM     32  C   UNL     1       3.629   3.448   0.302  0.00  0.00    +0.218 C 
ATOM     33  O   UNL     1       4.675   4.061   0.266  0.00  0.00    -0.275 OA
ATOM     34  N   UNL     1       3.603   2.154  -0.063  0.00  0.00    -0.285 N 
ATOM     35  H   UNL     1       4.423   1.716  -0.342  0.00  0.00    +0.155 HD
ENDBRANCH  21  24
ENDBRANCH  19  21
ENDBRANCH   1  19
TORSDOF 6
