REMARK  Name = ZINC62832073
REMARK  8 active torsions:
REMARK  status: ('A' for Active; 'I' for Inactive)
REMARK    1  A    between atoms: C_1  and  C_2
REMARK    2  A    between atoms: C_2  and  C_3
REMARK    3  A    between atoms: C_2  and  C_4
REMARK    4  A    between atoms: C_2  and  N_5
REMARK    5  A    between atoms: N_8  and  C_9
REMARK    6  A    between atoms: N_8  and  C_10
REMARK    7  A    between atoms: C_13  and  N_19
REMARK    8  A    between atoms: C_15  and  C_16
REMARK                            x       y       z     vdW  Elec       q    Type
REMARK                         _______ _______ _______ _____ _____    ______ ____
ROOT
ATOM      1  C   UNL     1       3.930  -0.211  -2.767  0.00  0.00    +0.052 A 
ATOM      2  C   UNL     1       4.959  -1.015  -2.296  0.00  0.00    +0.026 A 
ATOM      3  C   UNL     1       6.273  -0.664  -2.524  0.00  0.00    +0.024 A 
ATOM      4  C   UNL     1       6.579   0.497  -3.228  0.00  0.00    +0.025 A 
ATOM      5  C   UNL     1       5.566   1.310  -3.704  0.00  0.00    +0.039 A 
ATOM      6  C   UNL     1       4.231   0.959  -3.482  0.00  0.00    +0.086 A 
ENDROOT
BRANCH   1  10
ATOM      7  N   UNL     1       0.688  -0.476  -1.203  0.00  0.00    -0.294 N 
ATOM      8  C   UNL     1       1.972  -0.132  -1.427  0.00  0.00    +0.307 C 
ATOM      9  O   UNL     1       2.560   0.570  -0.628  0.00  0.00    -0.252 OA
ATOM     10  N   UNL     1       2.602  -0.567  -2.536  0.00  0.00    -0.258 N 
ATOM     11  C   UNL     1       1.893  -1.414  -3.498  0.00  0.00    +0.140 C 
ATOM     12  H   UNL     1       0.218  -1.037  -1.840  0.00  0.00    +0.151 HD
BRANCH   7  14
ATOM     13  C   UNL     1      -0.019   1.526   0.010  0.00  0.00    +0.031 C 
ATOM     14  C   UNL     1       0.002  -0.004   0.002  0.00  0.00    +0.028 C 
ATOM     15  C   UNL     1       0.742  -0.511   1.242  0.00  0.00    +0.031 C 
ATOM     16  C   UNL     1      -1.433  -0.534   0.013  0.00  0.00    +0.031 C 
ENDBRANCH   7  14
ENDBRANCH   1  10
BRANCH   6  17
ATOM     17  C   UNL     1       3.147   1.814  -3.991  0.00  0.00    +0.388 C 
ATOM     18  O   UNL     1       3.413   2.833  -4.614  0.00  0.00    -0.241 OA
ATOM     19  O   UNL     1       1.980   1.507  -3.791  0.00  0.00    -0.241 OA
ENDBRANCH   6  17
BRANCH   4  20
ATOM     20  N   UNL     1       7.916   0.843  -3.454  0.00  0.00    -0.358 N 
ATOM     21  H   UNL     1       8.628   0.274  -3.121  0.00  0.00    +0.142 HD
ATOM     22  H   UNL     1       8.131   1.652  -3.945  0.00  0.00    +0.142 HD
ENDBRANCH   4  20
TORSDOF 4
