REMARK  Name = ZINC17577149
REMARK  8 active torsions:
REMARK  status: ('A' for Active; 'I' for Inactive)
REMARK    1  A    between atoms: C_1  and  C_2
REMARK    2  A    between atoms: N_10  and  C_13
REMARK    3  A    between atoms: C_13  and  C_14
REMARK    4  A    between atoms: N_16  and  N_17
REMARK    5  A    between atoms: C_18  and  C_20
REMARK    6  A    between atoms: C_25  and  N_26
REMARK    7  A    between atoms: N_26  and  S_27
REMARK    8  A    between atoms: S_27  and  C_30
REMARK                            x       y       z     vdW  Elec       q    Type
REMARK                         _______ _______ _______ _____ _____    ______ ____
ROOT
ATOM      1  N   UNL     1       4.594   0.002  -2.697  0.00  0.00    -0.230 N 
ATOM      2  C   UNL     1       5.650  -0.750  -3.065  0.00  0.00    +0.262 C 
ATOM      3  O   UNL     1       6.311  -1.325  -2.220  0.00  0.00    -0.269 OA
ATOM      4  H   UNL     1       4.067   0.460  -3.371  0.00  0.00    +0.173 HD
ENDROOT
BRANCH   2   5
ATOM      5  C   UNL     1       6.005  -0.877  -4.490  0.00  0.00    +0.060 A 
ATOM      6  C   UNL     1       5.249  -0.219  -5.464  0.00  0.00    +0.015 A 
ATOM      7  C   UNL     1       5.585  -0.342  -6.794  0.00  0.00    +0.001 A 
ATOM      8  C   UNL     1       6.671  -1.115  -7.173  0.00  0.00    +0.002 A 
ATOM      9  C   UNL     1       7.428  -1.771  -6.224  0.00  0.00    +0.025 A 
ATOM     10  C   UNL     1       7.107  -1.655  -4.877  0.00  0.00    +0.060 A 
BRANCH  10  11
ATOM     11  N   UNL     1       7.870  -2.309  -3.919  0.00  0.00    -0.215 N 
ATOM     12  H   UNL     1       7.445  -2.677  -3.129  0.00  0.00    +0.174 HD
BRANCH  11  13
ATOM     13  S   UNL     1       9.506  -2.462  -4.126  0.00  0.00    +0.079 S 
ATOM     14  O   UNL     1      10.014  -3.046  -2.934  0.00  0.00    -0.149 OA
ATOM     15  O   UNL     1       9.701  -3.050  -5.405  0.00  0.00    -0.149 OA
BRANCH  13  16
ATOM     16  C   UNL     1      10.174  -0.834  -4.214  0.00  0.00    +0.146 A 
ATOM     17  C   UNL     1      10.630  -0.043  -3.212  0.00  0.00    +0.036 A 
ATOM     18  C   UNL     1      11.117   1.214  -3.518  0.00  0.00    +0.010 A 
ATOM     19  C   UNL     1      11.123   1.619  -4.811  0.00  0.00    +0.047 A 
ATOM     20  S   UNL     1      10.433   0.200  -5.646  0.00  0.00    -0.077 S 
ENDBRANCH  13  16
ENDBRANCH  11  13
ENDBRANCH  10  11
ENDBRANCH   2   5
BRANCH   1  23
ATOM     21  C   UNL     1       3.201   0.875  -0.976  0.00  0.00    +0.249 C 
ATOM     22  O   UNL     1       2.542   1.448  -1.818  0.00  0.00    -0.272 OA
ATOM     23  N   UNL     1       4.257   0.123  -1.343  0.00  0.00    -0.233 N 
ATOM     24  H   UNL     1       4.784  -0.335  -0.669  0.00  0.00    +0.173 HD
BRANCH  21  25
ATOM     25  C   UNL     1       2.839   1.005   0.481  0.00  0.00    +0.223 C 
BRANCH  25  35
ATOM     26  C   UNL     1      -3.153   3.436   0.942  0.00  0.00    +0.046 C 
ATOM     27  C   UNL     1      -1.809   4.117   0.983  0.00  0.00    -0.024 A 
ATOM     28  C   UNL     1      -1.730   5.483   1.141  0.00  0.00    +0.005 A 
ATOM     29  C   UNL     1      -0.500   6.125   1.180  0.00  0.00    +0.001 A 
ATOM     30  C   UNL     1       0.670   5.405   1.062  0.00  0.00    +0.015 A 
ATOM     31  C   UNL     1       0.612   4.023   0.901  0.00  0.00    +0.065 A 
ATOM     32  C   UNL     1      -0.638   3.367   0.860  0.00  0.00    +0.081 A 
ATOM     33  N   UNL     1      -0.670   2.020   0.697  0.00  0.00    -0.237 NA
ATOM     34  C   UNL     1       0.419   1.322   0.589  0.00  0.00    +0.203 A 
ATOM     35  N   UNL     1       1.663   1.869   0.617  0.00  0.00    -0.290 N 
ATOM     36  C   UNL     1       1.826   3.204   0.769  0.00  0.00    +0.262 A 
ATOM     37  O   UNL     1       2.934   3.706   0.797  0.00  0.00    -0.267 OA
ENDBRANCH  25  35
ENDBRANCH  21  25
ENDBRANCH   1  23
TORSDOF 7
