REMARK  Name = ZINC33637415
REMARK  11 active torsions:
REMARK  status: ('A' for Active; 'I' for Inactive)
REMARK    1  A    between atoms: C_1  and  C_2
REMARK    2  A    between atoms: C_2  and  C_39
REMARK    3  A    between atoms: C_9  and  C_21
REMARK    4  A    between atoms: C_17  and  C_19
REMARK    5  A    between atoms: C_17  and  C_20
REMARK    6  A    between atoms: N_23  and  C_24
REMARK    7  A    between atoms: C_24  and  C_25
REMARK    8  A    between atoms: N_27  and  C_28
REMARK    9  A    between atoms: C_28  and  C_29
REMARK   10  A    between atoms: N_31  and  C_32
REMARK   11  A    between atoms: C_37  and  O_38
REMARK                            x       y       z     vdW  Elec       q    Type
REMARK                         _______ _______ _______ _____ _____    ______ ____
ROOT
ATOM      1  C   UNL     1       2.918  -2.005   1.050  0.00  0.00    +0.245 C 
ATOM      2  O   UNL     1       3.973  -2.292   0.524  0.00  0.00    -0.273 OA
ATOM      3  N   UNL     1       2.804  -2.040   2.393  0.00  0.00    -0.305 N 
ATOM      4  H   UNL     1       1.847  -1.779   2.870  0.00  0.00    +0.149 HD
ENDROOT
BRANCH   1  11
ATOM      5  C   UNL     1      -0.719   2.114  -1.165  0.00  0.00    +0.074 C 
ATOM      6  C   UNL     1       0.014   1.582   0.068  0.00  0.00    +0.166 C 
ATOM      7  O   UNL     1       1.365   2.063   0.070  0.00  0.00    -0.341 OA
ATOM      8  C   UNL     1       2.231   0.903   0.015  0.00  0.00    +0.187 C 
ATOM      9  C   UNL     1       1.316  -0.209   0.585  0.00  0.00    +0.191 C 
ATOM     10  O   UNL     1       0.033   0.143   0.037  0.00  0.00    -0.340 OA
ATOM     11  C   UNL     1       1.737  -1.608   0.203  0.00  0.00    +0.238 C 
ATOM     12  O   UNL     1       2.098  -1.741  -1.179  0.00  0.00    -0.333 OA
ATOM     13  C   UNL     1       3.123  -0.826  -1.518  0.00  0.00    +0.286 C 
ATOM     14  C   UNL     1       2.485   0.589  -1.451  0.00  0.00    +0.209 C 
ATOM     15  O   UNL     1       3.502   1.364  -2.091  0.00  0.00    -0.338 OA
ATOM     16  C   UNL     1       3.928   0.516  -3.187  0.00  0.00    +0.168 C 
ATOM     17  O   UNL     1       3.632  -0.857  -2.846  0.00  0.00    -0.318 OA
ATOM     18  C   UNL     1       3.174   0.904  -4.461  0.00  0.00    +0.074 C 
ATOM     19  C   UNL     1       5.433   0.678  -3.410  0.00  0.00    +0.074 C 
ATOM     20  C   UNL     1      -0.703   2.059   1.333  0.00  0.00    +0.074 C 
ENDBRANCH   1  11
BRANCH   3  21
ATOM     21  C   UNL     1       3.952  -2.425   3.216  0.00  0.00    +0.200 C 
BRANCH  21  22
ATOM     22  C   UNL     1       3.563  -2.385   4.672  0.00  0.00    +0.231 C 
ATOM     23  O   UNL     1       2.437  -2.065   4.990  0.00  0.00    -0.274 OA
ATOM     24  N   UNL     1       4.466  -2.703   5.620  0.00  0.00    -0.305 N 
ATOM     25  H   UNL     1       5.488  -2.993   5.332  0.00  0.00    +0.149 HD
BRANCH  24  26
ATOM     26  C   UNL     1       4.088  -2.664   7.035  0.00  0.00    +0.200 C 
BRANCH  26  27
ATOM     27  C   UNL     1       5.270  -3.060   7.882  0.00  0.00    +0.234 C 
ATOM     28  O   UNL     1       6.324  -3.348   7.356  0.00  0.00    -0.274 OA
ATOM     29  N   UNL     1       5.155  -3.095   9.224  0.00  0.00    -0.281 N 
ATOM     30  H   UNL     1       4.177  -2.926   9.697  0.00  0.00    +0.155 HD
BRANCH  29  31
ATOM     31  C   UNL     1       6.282  -3.348  10.017  0.00  0.00    +0.075 A 
ATOM     32  C   UNL     1       7.529  -2.889   9.620  0.00  0.00    +0.027 A 
ATOM     33  C   UNL     1       8.640  -3.139  10.404  0.00  0.00    +0.002 A 
ATOM     34  C   UNL     1       8.511  -3.846  11.585  0.00  0.00    +0.004 A 
ATOM     35  C   UNL     1       7.271  -4.306  11.988  0.00  0.00    +0.047 A 
ATOM     36  C   UNL     1       6.153  -4.056  11.210  0.00  0.00    +0.138 A 
BRANCH  36  37
ATOM     37  O   UNL     1       4.932  -4.503  11.608  0.00  0.00    -0.505 OA
ATOM     38  H   UNL     1       4.831  -5.062  12.550  0.00  0.00    +0.292 HD
ENDBRANCH  36  37
ENDBRANCH  29  31
ENDBRANCH  26  27
ENDBRANCH  24  26
ENDBRANCH  21  22
ENDBRANCH   3  21
TORSDOF 7
