REMARK  Name = ZINC12401269
REMARK  9 active torsions:
REMARK  status: ('A' for Active; 'I' for Inactive)
REMARK    1  A    between atoms: C_1  and  C_2
REMARK    2  A    between atoms: C_2  and  C_3
REMARK    3  A    between atoms: C_2  and  C_4
REMARK    4  A    between atoms: C_6  and  C_33
REMARK    5  A    between atoms: C_6  and  C_34
REMARK    6  A    between atoms: C_9  and  C_12
REMARK    7  A    between atoms: C_16  and  N_18
REMARK    8  A    between atoms: N_18  and  S_19
REMARK    9  A    between atoms: S_19  and  C_22
REMARK                            x       y       z     vdW  Elec       q    Type
REMARK                         _______ _______ _______ _____ _____    ______ ____
ROOT
ATOM      1  C   UNL     1      -0.429   2.290  -3.571  0.00  0.00    +0.010 A 
ATOM      2  C   UNL     1      -0.685   0.986  -3.957  0.00  0.00    +0.009 A 
ATOM      3  C   UNL     1      -1.168   0.719  -5.224  0.00  0.00    +0.002 A 
ATOM      4  C   UNL     1      -1.385   1.753  -6.114  0.00  0.00    +0.024 A 
ATOM      5  C   UNL     1      -1.124   3.062  -5.733  0.00  0.00    +0.048 A 
ATOM      6  C   UNL     1      -0.645   3.328  -4.456  0.00  0.00    +0.033 A 
ENDROOT
BRANCH   1  11
ATOM      7  C   UNL     1       0.694   1.520  -0.123  0.00  0.00    +0.132 C 
ATOM      8  C   UNL     1      -0.276   2.438   0.629  0.00  0.00    +0.015 C 
ATOM      9  C   UNL     1      -0.434   3.742  -0.160  0.00  0.00    +0.172 C 
ATOM     10  O   UNL     1      -0.827   3.432  -1.500  0.00  0.00    -0.347 OA
ATOM     11  C   UNL     1       0.091   2.577  -2.186  0.00  0.00    +0.282 C 
ATOM     12  O   UNL     1       0.230   1.350  -1.466  0.00  0.00    -0.343 OA
ATOM     13  C   UNL     1      -1.636   1.750   0.759  0.00  0.00    +0.016 C 
ATOM     14  C   UNL     1       0.282   2.742   2.021  0.00  0.00    +0.016 C 
BRANCH   7  16
ATOM     15  C   UNL     1       2.901   1.561  -1.294  0.00  0.00    +0.010 C 
ATOM     16  C   UNL     1       2.088   2.150  -0.139  0.00  0.00    +0.012 C 
ATOM     17  C   UNL     1       1.962   3.663  -0.323  0.00  0.00    +0.010 C 
ENDBRANCH   7  16
ENDBRANCH   1  11
BRANCH   5  18
ATOM     18  N   UNL     1      -1.343   4.110  -6.630  0.00  0.00    -0.216 N 
ATOM     19  H   UNL     1      -1.796   4.915  -6.335  0.00  0.00    +0.174 HD
BRANCH  18  20
ATOM     20  S   UNL     1      -0.827   3.978  -8.199  0.00  0.00    +0.072 S 
ATOM     21  O   UNL     1      -1.323   2.738  -8.686  0.00  0.00    -0.150 OA
ATOM     22  O   UNL     1      -1.122   5.217  -8.829  0.00  0.00    -0.150 OA
BRANCH  20  23
ATOM     23  C   UNL     1       0.929   3.837  -8.160  0.00  0.00    +0.110 A 
ATOM     24  C   UNL     1       1.710   4.976  -8.111  0.00  0.00    +0.032 A 
ATOM     25  C   UNL     1       3.089   4.875  -8.074  0.00  0.00    +0.049 A 
ATOM     26  C   UNL     1       3.689   3.628  -8.098  0.00  0.00    +0.142 A 
ATOM     27  C   UNL     1       2.901   2.479  -8.153  0.00  0.00    +0.078 A 
ATOM     28  C   UNL     1       1.521   2.587  -8.184  0.00  0.00    +0.055 A 
ATOM     29  N   UNL     1       3.522   1.222  -8.178  0.00  0.00    -0.280 N 
ATOM     30  C   UNL     1       4.825   1.129  -7.834  0.00  0.00    +0.255 C 
ATOM     31  O   UNL     1       5.391   0.057  -7.878  0.00  0.00    -0.272 OA
ATOM     32  C   UNL     1       5.573   2.362  -7.395  0.00  0.00    +0.325 C 
ATOM     33  O   UNL     1       5.044   3.509  -8.066  0.00  0.00    -0.481 OA
ATOM     34  H   UNL     1       3.024   0.432  -8.440  0.00  0.00    +0.155 HD
ENDBRANCH  20  23
ENDBRANCH  18  20
ENDBRANCH   5  18
TORSDOF 5
