REMARK  Name = ZINC45471080
REMARK  13 active torsions:
REMARK  status: ('A' for Active; 'I' for Inactive)
REMARK    1  A    between atoms: C_1  and  C_2
REMARK    2  A    between atoms: C_9  and  N_15
REMARK    3  A    between atoms: C_10  and  C_11
REMARK    4  A    between atoms: C_11  and  O_13
REMARK    5  A    between atoms: O_13  and  C_14
REMARK    6  A    between atoms: C_16  and  C_18
REMARK    7  A    between atoms: C_18  and  N_19
REMARK    8  A    between atoms: N_23  and  C_26
REMARK    9  A    between atoms: C_26  and  C_27
REMARK   10  A    between atoms: N_29  and  C_30
REMARK   11  A    between atoms: C_30  and  C_31
REMARK   12  A    between atoms: C_30  and  C_32
REMARK   13  A    between atoms: C_30  and  C_33
REMARK                            x       y       z     vdW  Elec       q    Type
REMARK                         _______ _______ _______ _____ _____    ______ ____
ROOT
ATOM      1  N   UNL     1       1.940  -5.826   1.701  0.00  0.00    -0.278 N 
ATOM      2  C   UNL     1       2.250  -6.085   2.987  0.00  0.00    +0.232 C 
ATOM      3  O   UNL     1       2.229  -5.192   3.808  0.00  0.00    -0.274 OA
ATOM      4  H   UNL     1       1.957  -6.540   1.045  0.00  0.00    +0.155 HD
ENDROOT
BRANCH   1  12
ATOM      5  C   UNL     1      -0.019   1.526   0.010  0.00  0.00    +0.008 C 
ATOM      6  C   UNL     1       0.002  -0.004   0.002  0.00  0.00    -0.009 C 
ATOM      7  C   UNL     1       0.724  -0.500  -1.254  0.00  0.00    +0.008 C 
ATOM      8  C   UNL     1       0.537  -2.012  -1.399  0.00  0.00    +0.037 C 
ATOM      9  C   UNL     1       0.935  -2.680  -0.091  0.00  0.00    -0.021 A 
ATOM     10  C   UNL     1       1.020  -1.977   1.059  0.00  0.00    -0.004 A 
ATOM     11  S   UNL     1       1.507  -3.164   2.276  0.00  0.00    -0.077 S 
ATOM     12  C   UNL     1       1.598  -4.539   1.316  0.00  0.00    +0.086 A 
ATOM     13  C   UNL     1       1.254  -4.091   0.050  0.00  0.00    +0.091 A 
ATOM     14  C   UNL     1       0.750  -0.515   1.242  0.00  0.00    +0.046 C 
BRANCH  13  15
ATOM     15  C   UNL     1       1.213  -5.001  -1.097  0.00  0.00    +0.342 C 
ATOM     16  O   UNL     1       2.208  -5.170  -1.774  0.00  0.00    -0.245 OA
BRANCH  15  17
ATOM     17  O   UNL     1       0.071  -5.651  -1.401  0.00  0.00    -0.464 OA
ATOM     18  C   UNL     1       0.103  -6.523  -2.533  0.00  0.00    +0.280 C 
ENDBRANCH  15  17
ENDBRANCH  13  15
ENDBRANCH   1  12
BRANCH   2  19
ATOM     19  C   UNL     1       2.621  -7.484   3.406  0.00  0.00    +0.180 C 
BRANCH  19  20
ATOM     20  N   UNL     1       2.912  -7.504   4.845  0.00  0.00    -0.296 NA
ATOM     21  C   UNL     1       1.723  -7.236   5.617  0.00  0.00    +0.083 C 
ATOM     22  C   UNL     1       1.999  -6.390   6.876  0.00  0.00    -0.003 C 
ATOM     23  C   UNL     1       3.287  -6.830   7.599  0.00  0.00    -0.077 C 
ATOM     24  N   UNL     1       3.417  -8.267   7.639  0.00  0.00    +0.386 N 
ATOM     25  C   UNL     1       4.258  -8.683   6.500  0.00  0.00    -0.063 C 
ATOM     26  C   UNL     1       3.510  -8.801   5.250  0.00  0.00    +0.066 C 
ATOM     27  H   UNL     1       2.506  -8.694   7.564  0.00  0.00    -0.081 HD
BRANCH  24  28
ATOM     28  C   UNL     1       4.053  -8.673   8.899  0.00  0.00    +0.019 C 
BRANCH  28  29
ATOM     29  C   UNL     1       3.149  -8.326  10.053  0.00  0.00    +0.197 C 
ATOM     30  O   UNL     1       2.079  -7.793   9.846  0.00  0.00    -0.278 OA
ATOM     31  N   UNL     1       3.528  -8.607  11.316  0.00  0.00    -0.312 N 
ATOM     32  H   UNL     1       4.383  -9.034  11.481  0.00  0.00    +0.149 HD
BRANCH  31  33
ATOM     33  C   UNL     1       2.648  -8.270  12.438  0.00  0.00    +0.026 C 
ATOM     34  C   UNL     1       1.316  -9.005  12.280  0.00  0.00    +0.031 C 
ATOM     35  C   UNL     1       3.311  -8.692  13.750  0.00  0.00    +0.031 C 
ATOM     36  C   UNL     1       2.400  -6.760  12.455  0.00  0.00    +0.031 C 
ENDBRANCH  31  33
ENDBRANCH  28  29
ENDBRANCH  24  28
ENDBRANCH  19  20
ENDBRANCH   2  19
TORSDOF 8
