REMARK  Name = ZINC12497432
REMARK  14 active torsions:
REMARK  status: ('A' for Active; 'I' for Inactive)
REMARK    1  A    between atoms: C_1  and  C_2
REMARK    2  A    between atoms: C_2  and  O_3
REMARK    3  A    between atoms: O_3  and  C_4
REMARK    4  A    between atoms: C_4  and  C_6
REMARK    5  A    between atoms: C_6  and  C_34
REMARK    6  A    between atoms: C_11  and  C_13
REMARK    7  A    between atoms: C_16  and  O_21
REMARK    8  A    between atoms: C_17  and  O_19
REMARK    9  A    between atoms: O_19  and  C_20
REMARK   10  A    between atoms: N_24  and  C_27
REMARK   11  A    between atoms: C_30  and  C_33
REMARK   12  A    between atoms: C_34  and  C_35
REMARK   13  A    between atoms: C_35  and  S_36
REMARK   14  A    between atoms: S_36  and  C_37
REMARK                            x       y       z     vdW  Elec       q    Type
REMARK                         _______ _______ _______ _____ _____    ______ ____
ROOT
ATOM      1  C   UNL     1      -1.723   4.324  -0.366  0.00  0.00    +0.044 C 
ATOM      2  C   UNL     1      -0.722   3.246  -0.744  0.00  0.00    +0.086 C 
ATOM      3  C   UNL     1      -1.311   2.046   0.078  0.00  0.00    +0.077 C 
ATOM      4  C   UNL     1      -2.752   2.137  -0.202  0.00  0.00    -0.027 C 
ATOM      5  C   UNL     1      -0.208   1.125   0.122  0.00  0.00    +0.229 C 
ATOM      6  O   UNL     1      -0.261  -0.086   0.139  0.00  0.00    -0.275 OA
ATOM      7  N   UNL     1       0.918   1.910   0.135  0.00  0.00    -0.210 N 
ATOM      8  C   UNL     1       0.654   3.219  -0.157  0.00  0.00    +0.229 C 
ATOM      9  O   UNL     1       1.387   4.167   0.024  0.00  0.00    -0.275 OA
ATOM     10  N   UNL     1      -3.008   3.611  -0.143  0.00  0.00    +0.395 N 
ATOM     11  H   UNL     1      -3.682   3.874  -0.872  0.00  0.00    -0.083 HD
ATOM     12  H   UNL     1      -3.387   3.859   0.778  0.00  0.00    -0.083 HD
ENDROOT
BRANCH   7  13
ATOM     13  C   UNL     1       2.202   1.422   0.417  0.00  0.00    +0.044 A 
ATOM     14  C   UNL     1       3.291   2.282   0.405  0.00  0.00    +0.024 A 
ATOM     15  C   UNL     1       4.554   1.799   0.690  0.00  0.00    +0.005 A 
ATOM     16  C   UNL     1       4.735   0.459   0.975  0.00  0.00    -0.050 A 
ATOM     17  C   UNL     1       3.652  -0.402   0.983  0.00  0.00    +0.005 A 
ATOM     18  C   UNL     1       2.386   0.076   0.705  0.00  0.00    +0.024 A 
ATOM     19  C   UNL     1       6.114  -0.066   1.279  0.00  0.00    +0.044 C 
ENDBRANCH   7  13
BRANCH   4  20
ATOM     20  C   UNL     1      -3.557   1.406   0.841  0.00  0.00    -0.057 A 
ATOM     21  C   UNL     1      -3.734   1.964   2.093  0.00  0.00    +0.006 A 
ATOM     22  C   UNL     1      -4.471   1.297   3.053  0.00  0.00    +0.049 A 
ATOM     23  C   UNL     1      -5.036   0.066   2.762  0.00  0.00    +0.158 A 
ATOM     24  C   UNL     1      -4.859  -0.496   1.501  0.00  0.00    +0.161 A 
ATOM     25  C   UNL     1      -4.122   0.180   0.542  0.00  0.00    +0.051 A 
BRANCH  24  26
ATOM     26  O   UNL     1      -5.411  -1.704   1.210  0.00  0.00    -0.491 OA
ATOM     27  C   UNL     1      -5.188  -2.220  -0.104  0.00  0.00    +0.277 C 
ENDBRANCH  24  26
BRANCH  23  28
ATOM     28  O   UNL     1      -5.762  -0.592   3.705  0.00  0.00    -0.503 OA
ATOM     29  H   UNL     1      -6.705  -0.378   3.695  0.00  0.00    +0.292 HD
ENDBRANCH  23  28
ENDBRANCH   4  20
BRANCH   1  30
ATOM     30  C   UNL     1      -1.284   5.022   0.895  0.00  0.00    +0.297 C 
ATOM     31  O   UNL     1      -0.634   6.038   0.829  0.00  0.00    -0.252 OA
BRANCH  30  32
ATOM     32  O   UNL     1      -1.617   4.515   2.093  0.00  0.00    -0.466 OA
BRANCH  32  34
ATOM     33  C   UNL     1      -1.632   4.516   4.528  0.00  0.00    +0.048 C 
ATOM     34  C   UNL     1      -1.160   5.240   3.265  0.00  0.00    +0.228 C 
ENDBRANCH  32  34
ENDBRANCH  30  32
ENDBRANCH   1  30
BRANCH   1  35
ATOM     35  C   UNL     1      -1.865   5.335  -1.506  0.00  0.00    +0.010 C 
BRANCH  35  36
ATOM     36  C   UNL     1      -2.877   6.412  -1.109  0.00  0.00    +0.068 C 
BRANCH  36  37
ATOM     37  S   UNL     1      -3.045   7.610  -2.460  0.00  0.00    -0.164 S 
ATOM     38  C   UNL     1      -4.262   8.803  -1.839  0.00  0.00    +0.084 C 
ENDBRANCH  36  37
ENDBRANCH  35  36
ENDBRANCH   1  35
TORSDOF 10
