REMARK  Name = ZINC15074313
REMARK  7 active torsions:
REMARK  status: ('A' for Active; 'I' for Inactive)
REMARK    1  A    between atoms: C_1  and  C_2
REMARK    2  A    between atoms: C_6  and  C_10
REMARK    3  A    between atoms: C_10  and  N_11
REMARK    4  A    between atoms: C_12  and  C_14
REMARK    5  A    between atoms: C_14  and  C_15
REMARK    6  A    between atoms: C_22  and  C_23
REMARK    7  A    between atoms: C_22  and  N_56
REMARK                            x       y       z     vdW  Elec       q    Type
REMARK                         _______ _______ _______ _____ _____    ______ ____
ROOT
ATOM      1  C   UNL     1       4.094   5.146   1.395  0.00  0.00    +0.028 C 
ATOM      2  C   UNL     1       4.735   5.479   2.713  0.00  0.00    +0.200 C 
ATOM      3  O   UNL     1       5.605   6.323   2.740  0.00  0.00    -0.278 OA
ATOM      4  N   UNL     1       4.385   4.883   3.858  0.00  0.00    -0.318 N 
ATOM      5  C   UNL     1       3.325   3.882   3.940  0.00  0.00    +0.085 C 
ATOM      6  C   UNL     1       3.029   3.317   2.550  0.00  0.00    -0.058 C 
ATOM      7  H   UNL     1       4.856   5.127   4.670  0.00  0.00    +0.149 HD
ATOM      8  N   UNL     1       2.814   4.453   1.631  0.00  0.00    +0.391 N 
ATOM      9  H   UNL     1       2.151   5.109   2.058  0.00  0.00    -0.080 HD
ENDROOT
BRANCH   1  10
ATOM     10  C   UNL     1       3.825   6.439   0.621  0.00  0.00    +0.089 C 
BRANCH  10  12
ATOM     11  N   UNL     1       2.451   8.477   0.895  0.00  0.00    -0.310 N 
ATOM     12  C   UNL     1       2.889   7.314   1.415  0.00  0.00    +0.212 C 
ATOM     13  O   UNL     1       2.530   6.970   2.521  0.00  0.00    -0.276 OA
ATOM     14  H   UNL     1       2.739   8.752   0.010  0.00  0.00    +0.149 HD
BRANCH  11  15
ATOM     15  C   UNL     1       1.542   9.328   1.666  0.00  0.00    +0.161 C 
BRANCH  15  21
ATOM     16  C   UNL     1      -0.824  14.997  -2.555  0.00  0.00    +0.075 C 
ATOM     17  C   UNL     1      -0.162  13.992  -1.648  0.00  0.00    +0.099 A 
ATOM     18  N   UNL     1      -0.550  12.793  -1.337  0.00  0.00    -0.163 NA
ATOM     19  N   UNL     1       0.189  11.991  -0.474  0.00  0.00    -0.213 N 
ATOM     20  C   UNL     1       0.127  10.718   0.079  0.00  0.00    +0.140 A 
ATOM     21  C   UNL     1       1.206  10.560   0.866  0.00  0.00    +0.079 A 
ATOM     22  N   UNL     1       1.936  11.684   0.813  0.00  0.00    -0.223 NA
ATOM     23  C   UNL     1       1.344  12.534   0.025  0.00  0.00    +0.196 A 
ATOM     24  S   UNL     1       1.360  14.145  -0.726  0.00  0.00    -0.033 S 
ENDBRANCH  15  21
ENDBRANCH  11  15
ENDBRANCH  10  12
ENDBRANCH   1  10
BRANCH   8  25
ATOM     25  C   UNL     1       2.256   3.970   0.348  0.00  0.00    -0.041 C 
BRANCH  25  26
ATOM     26  C   UNL     1       0.880   3.406   0.593  0.00  0.00    -0.056 A 
ATOM     27  C   UNL     1       0.698   2.060   0.684  0.00  0.00    +0.002 A 
ATOM     28  C   UNL     1      -0.567   1.521   0.911  0.00  0.00    +0.001 A 
ATOM     29  C   UNL     1      -1.658   2.324   1.043  0.00  0.00    +0.008 A 
ATOM     30  C   UNL     1      -1.508   3.719   0.960  0.00  0.00    -0.018 A 
ATOM     31  C   UNL     1      -0.222   4.267   0.729  0.00  0.00    -0.017 A 
ATOM     32  C   UNL     1      -0.074   5.662   0.641  0.00  0.00    +0.009 A 
ATOM     33  C   UNL     1      -1.164   6.465   0.777  0.00  0.00    +0.001 A 
ATOM     34  C   UNL     1      -2.429   5.926   1.004  0.00  0.00    +0.001 A 
ATOM     35  C   UNL     1      -2.611   4.580   1.096  0.00  0.00    +0.008 A 
ENDBRANCH  25  26
ENDBRANCH   8  25
TORSDOF 6
