REMARK  Name = ZINC03670589
REMARK  9 active torsions:
REMARK  status: ('A' for Active; 'I' for Inactive)
REMARK    1  A    between atoms: C_1  and  C_2
REMARK    2  A    between atoms: C_2  and  C_3
REMARK    3  A    between atoms: C_3  and  C_5
REMARK    4  A    between atoms: C_3  and  N_6
REMARK    5  A    between atoms: C_7  and  C_9
REMARK    6  A    between atoms: C_9  and  O_29
REMARK    7  A    between atoms: N_19  and  C_20
REMARK    8  A    between atoms: C_23  and  C_27
REMARK    9  A    between atoms: C_24  and  C_26
REMARK                            x       y       z     vdW  Elec       q    Type
REMARK                         _______ _______ _______ _____ _____    ______ ____
ROOT
ATOM      1  C   UNL     1      -3.826  -0.734   1.803  0.00  0.00    +0.247 C 
ATOM      2  C   UNL     1      -4.211  -1.054   0.377  0.00  0.00    +0.034 A 
ATOM      3  C   UNL     1      -3.532  -2.004  -0.351  0.00  0.00    +0.025 A 
ATOM      4  C   UNL     1      -3.913  -2.270  -1.657  0.00  0.00    +0.018 A 
ATOM      5  C   UNL     1      -4.971  -1.581  -2.223  0.00  0.00    +0.017 A 
ATOM      6  C   UNL     1      -5.653  -0.627  -1.494  0.00  0.00    +0.025 A 
ATOM      7  C   UNL     1      -5.276  -0.357  -0.185  0.00  0.00    +0.043 A 
ATOM      8  N   UNL     1      -5.952   0.603   0.568  0.00  0.00    -0.269 N 
ATOM      9  C   UNL     1      -5.626   0.900   1.833  0.00  0.00    +0.314 C 
ATOM     10  O   UNL     1      -6.271   1.752   2.413  0.00  0.00    -0.252 OA
ATOM     11  N   UNL     1      -4.618   0.299   2.491  0.00  0.00    -0.214 N 
ATOM     12 BR   UNL     1      -2.986  -3.574  -2.665  0.00  0.00    -0.050 Br
ATOM     13  H   UNL     1      -6.692   1.077   0.158  0.00  0.00    +0.156 HD
ENDROOT
BRANCH  11  14
ATOM     14  C   UNL     1      -4.325   0.653   3.813  0.00  0.00    +0.042 A 
ATOM     15  C   UNL     1      -4.425  -0.294   4.824  0.00  0.00    +0.024 A 
ATOM     16  C   UNL     1      -4.129   0.056   6.127  0.00  0.00    +0.005 A 
ATOM     17  C   UNL     1      -3.747   1.351   6.427  0.00  0.00    -0.047 A 
ATOM     18  C   UNL     1      -3.652   2.297   5.423  0.00  0.00    -0.046 A 
ATOM     19  C   UNL     1      -3.941   1.952   4.117  0.00  0.00    +0.027 A 
ATOM     20  C   UNL     1      -3.234   3.707   5.754  0.00  0.00    +0.044 C 
ATOM     21  C   UNL     1      -3.432   1.731   7.851  0.00  0.00    +0.044 C 
ENDBRANCH  11  14
BRANCH   1  23
ATOM     22  N   UNL     1      -2.044   0.909   1.308  0.00  0.00    -0.309 N 
ATOM     23  C   UNL     1      -2.384  -0.296   1.808  0.00  0.00    +0.269 C 
ATOM     24  O   UNL     1      -1.530  -1.027   2.263  0.00  0.00    -0.270 OA
ATOM     25  H   UNL     1      -2.728   1.493   0.945  0.00  0.00    +0.149 HD
BRANCH  22  26
ATOM     26  C   UNL     1      -0.643   1.335   1.313  0.00  0.00    +0.070 C 
ATOM     27  C   UNL     1       0.062   0.784   0.072  0.00  0.00    +0.028 C 
BRANCH  26  29
ATOM     28  C   UNL     1      -1.169   3.410   2.602  0.00  0.00    +0.005 C 
ATOM     29  C   UNL     1      -0.575   2.863   1.302  0.00  0.00    +0.018 C 
ENDBRANCH  26  29
ENDBRANCH  22  26
ENDBRANCH   1  23
BRANCH   1  30
ATOM     30  O   UNL     1      -3.919  -1.940   2.564  0.00  0.00    -0.360 OA
ATOM     31  H   UNL     1      -3.383  -2.666   2.217  0.00  0.00    +0.213 HD
ENDBRANCH   1  30
TORSDOF 5
