REMARK  Name = ZINC08933084
REMARK  7 active torsions:
REMARK  status: ('A' for Active; 'I' for Inactive)
REMARK    1  A    between atoms: C_4  and  C_7
REMARK    2  A    between atoms: C_7  and  N_8
REMARK    3  A    between atoms: N_19  and  C_22
REMARK    4  A    between atoms: C_22  and  C_23
REMARK    5  A    between atoms: N_25  and  C_26
REMARK    6  A    between atoms: C_26  and  C_27
REMARK    7  A    between atoms: C_27  and  N_65
REMARK                            x       y       z     vdW  Elec       q    Type
REMARK                         _______ _______ _______ _____ _____    ______ ____
ROOT
ATOM      1  N   UNL     1      -2.272   4.050   0.046  0.00  0.00    -0.331 N 
ATOM      2  C   UNL     1      -1.241   3.135   0.031  0.00  0.00    +0.051 A 
ATOM      3  C   UNL     1      -1.218   1.742   0.017  0.00  0.00    +0.026 A 
ATOM      4  C   UNL     1      -0.013   1.076   0.008  0.00  0.00    +0.002 A 
ATOM      5  C   UNL     1       1.183   1.780   0.000  0.00  0.00    +0.001 A 
ATOM      6  C   UNL     1       1.183   3.146   0.007  0.00  0.00    +0.010 A 
ATOM      7  C   UNL     1      -0.026   3.841   0.022  0.00  0.00    +0.009 A 
ATOM      8  C   UNL     1      -0.378   5.268   0.034  0.00  0.00    +0.033 A 
ATOM      9  C   UNL     1      -1.771   5.333   0.048  0.00  0.00    +0.119 A 
ATOM     10  C   UNL     1      -2.388   6.606   0.061  0.00  0.00    +0.292 A 
ATOM     11  O   UNL     1      -3.605   6.702   0.074  0.00  0.00    -0.264 OA
ATOM     12  N   UNL     1      -1.619   7.713   0.060  0.00  0.00    -0.219 N 
ATOM     13  N   UNL     1      -0.224   7.618   0.045  0.00  0.00    -0.175 NA
ATOM     14  C   UNL     1       0.376   6.460   0.033  0.00  0.00    +0.143 A 
ENDROOT
BRANCH   1  15
ATOM     15  C   UNL     1      -3.696   3.707   0.057  0.00  0.00    +0.157 C 
BRANCH  15  19
ATOM     16  C   UNL     1      -5.119   3.394  -3.958  0.00  0.00    +0.000 A 
ATOM     17  C   UNL     1      -4.609   2.281  -3.317  0.00  0.00    +0.000 A 
ATOM     18  C   UNL     1      -4.148   2.382  -2.018  0.00  0.00    +0.005 A 
ATOM     19  C   UNL     1      -4.198   3.597  -1.359  0.00  0.00    -0.028 A 
ATOM     20  C   UNL     1      -4.713   4.709  -1.999  0.00  0.00    +0.005 A 
ATOM     21  C   UNL     1      -5.169   4.609  -3.300  0.00  0.00    +0.000 A 
ENDBRANCH  15  19
ENDBRANCH   1  15
BRANCH  12  22
ATOM     22  C   UNL     1      -2.252   9.034   0.073  0.00  0.00    +0.243 C 
BRANCH  22  23
ATOM     23  C   UNL     1      -2.456   9.479   1.498  0.00  0.00    +0.235 C 
ATOM     24  O   UNL     1      -2.106   8.764   2.413  0.00  0.00    -0.274 OA
ATOM     25  N   UNL     1      -3.027  10.672   1.756  0.00  0.00    -0.316 N 
ATOM     26  H   UNL     1      -3.307  11.245   1.025  0.00  0.00    +0.149 HD
BRANCH  25  27
ATOM     27  C   UNL     1      -3.225  11.105   3.142  0.00  0.00    +0.086 C 
BRANCH  27  28
ATOM     28  C   UNL     1      -3.887  12.485   3.156  0.00  0.00    -0.060 C 
BRANCH  28  35
ATOM     29  C   UNL     1      -4.976  11.985   5.270  0.00  0.00    -0.079 C 
ATOM     30  C   UNL     1      -5.427  12.524   6.601  0.00  0.00    -0.019 C 
ATOM     31  C   UNL     1      -6.785  13.231   6.408  0.00  0.00    -0.002 C 
ATOM     32  C   UNL     1      -6.636  14.562   5.830  0.00  0.00    -0.002 C 
ATOM     33  C   UNL     1      -5.984  14.520   4.432  0.00  0.00    -0.019 C 
ATOM     34  C   UNL     1      -4.500  14.338   4.603  0.00  0.00    -0.079 C 
ATOM     35  N   UNL     1      -4.032  12.911   4.557  0.00  0.00    +0.381 N 
ATOM     36  H   UNL     1      -3.115  12.856   5.017  0.00  0.00    -0.082 HD
ENDBRANCH  28  35
ENDBRANCH  27  28
ENDBRANCH  25  27
ENDBRANCH  22  23
ENDBRANCH  12  22
TORSDOF 7
