REMARK  Name = ZINC57297089
REMARK  6 active torsions:
REMARK  status: ('A' for Active; 'I' for Inactive)
REMARK    1  A    between atoms: C_4  and  C_7
REMARK    2  A    between atoms: N_10  and  C_13
REMARK    3  A    between atoms: C_13  and  C_14
REMARK    4  A    between atoms: N_16  and  N_17
REMARK    5  A    between atoms: C_20  and  C_24
REMARK    6  A    between atoms: C_20  and  C_30
REMARK                            x       y       z     vdW  Elec       q    Type
REMARK                         _______ _______ _______ _____ _____    ______ ____
ROOT
ATOM      1  N   UNL     1       9.677  -4.249   2.943  0.00  0.00    -0.137 N 
ATOM      2  C   UNL     1      10.195  -4.205   4.186  0.00  0.00    +0.272 C 
ATOM      3  O   UNL     1      10.916  -3.347   4.649  0.00  0.00    -0.270 OA
ATOM      4  C   UNL     1       9.688  -5.450   4.886  0.00  0.00    +0.165 C 
ATOM      5  N   UNL     1       8.866  -6.114   3.860  0.00  0.00    -0.276 N 
ATOM      6  C   UNL     1       8.917  -5.336   2.763  0.00  0.00    +0.327 C 
ATOM      7  O   UNL     1       8.340  -5.593   1.725  0.00  0.00    -0.251 OA
ATOM      8  H   UNL     1       8.380  -6.948   3.956  0.00  0.00    +0.152 HD
ENDROOT
BRANCH   4   9
ATOM      9  C   UNL     1       8.847  -5.081   6.082  0.00  0.00    -0.011 A 
ATOM     10  C   UNL     1       7.602  -5.656   6.255  0.00  0.00    +0.006 A 
ATOM     11  C   UNL     1       6.831  -5.318   7.351  0.00  0.00    +0.000 A 
ATOM     12  C   UNL     1       7.305  -4.405   8.274  0.00  0.00    +0.000 A 
ATOM     13  C   UNL     1       8.551  -3.831   8.102  0.00  0.00    +0.000 A 
ATOM     14  C   UNL     1       9.323  -4.172   7.008  0.00  0.00    +0.006 A 
ENDBRANCH   4   9
BRANCH   4  15
ATOM     15  C   UNL     1      10.838  -6.333   5.297  0.00  0.00    -0.011 A 
ATOM     16  C   UNL     1      10.828  -7.676   4.973  0.00  0.00    +0.006 A 
ATOM     17  C   UNL     1      11.883  -8.486   5.350  0.00  0.00    +0.000 A 
ATOM     18  C   UNL     1      12.948  -7.952   6.051  0.00  0.00    +0.000 A 
ATOM     19  C   UNL     1      12.958  -6.609   6.375  0.00  0.00    +0.000 A 
ATOM     20  C   UNL     1      11.905  -5.798   5.994  0.00  0.00    +0.006 A 
ENDBRANCH   4  15
BRANCH   1  23
ATOM     21  C   UNL     1       8.933  -2.389   1.657  0.00  0.00    +0.244 C 
ATOM     22  O   UNL     1       7.867  -2.435   2.232  0.00  0.00    -0.273 OA
ATOM     23  N   UNL     1       9.902  -3.275   1.961  0.00  0.00    -0.223 N 
ATOM     24  H   UNL     1      10.755  -3.238   1.501  0.00  0.00    +0.174 HD
BRANCH  21  25
ATOM     25  C   UNL     1       9.175  -1.341   0.601  0.00  0.00    +0.182 C 
BRANCH  25  29
ATOM     26  C   UNL     1       6.128   1.544   0.273  0.00  0.00    -0.042 C 
ATOM     27  C   UNL     1       6.580   1.220   1.464  0.00  0.00    -0.008 C 
ATOM     28  C   UNL     1       7.729   0.276   1.675  0.00  0.00    +0.112 C 
ATOM     29  N   UNL     1       7.976  -0.505   0.457  0.00  0.00    -0.290 NA
ATOM     30  C   UNL     1       8.092   0.388  -0.708  0.00  0.00    +0.090 C 
ATOM     31  C   UNL     1       6.712   0.988  -0.996  0.00  0.00    +0.051 C 
BRANCH  26  35
ATOM     32  C   UNL     1       2.873   4.259  -0.002  0.00  0.00    +0.000 A 
ATOM     33  C   UNL     1       4.087   4.688   0.505  0.00  0.00    +0.001 A 
ATOM     34  C   UNL     1       5.148   3.811   0.597  0.00  0.00    +0.008 A 
ATOM     35  C   UNL     1       4.995   2.489   0.177  0.00  0.00    -0.022 A 
ATOM     36  C   UNL     1       3.769   2.062  -0.333  0.00  0.00    +0.008 A 
ATOM     37  C   UNL     1       2.715   2.950  -0.420  0.00  0.00    +0.001 A 
ENDBRANCH  26  35
ENDBRANCH  25  29
ENDBRANCH  21  25
ENDBRANCH   1  23
TORSDOF 6
