REMARK  Name = ZINC12714972
REMARK  12 active torsions:
REMARK  status: ('A' for Active; 'I' for Inactive)
REMARK    1  A    between atoms: C_1  and  C_2
REMARK    2  A    between atoms: C_5  and  N_9
REMARK    3  A    between atoms: C_7  and  C_8
REMARK    4  A    between atoms: N_9  and  C_10
REMARK    5  A    between atoms: C_10  and  C_12
REMARK    6  A    between atoms: C_10  and  C_18
REMARK    7  A    between atoms: C_15  and  C_17
REMARK    8  A    between atoms: N_20  and  C_21
REMARK    9  A    between atoms: C_21  and  C_22
REMARK   10  A    between atoms: C_28  and  C_30
REMARK   11  A    between atoms: C_31  and  N_38
REMARK   12  A    between atoms: C_32  and  C_35
REMARK                            x       y       z     vdW  Elec       q    Type
REMARK                         _______ _______ _______ _____ _____    ______ ____
ROOT
ATOM      1  N   UNL     1      -0.008  -4.347   0.103  0.00  0.00    -0.248 N 
ATOM      2  C   UNL     1      -0.048  -4.728   1.395  0.00  0.00    +0.262 C 
ATOM      3  O   UNL     1      -0.444  -5.840   1.690  0.00  0.00    -0.269 OA
ENDROOT
BRANCH   1   8
ATOM      4  C   UNL     1       1.321   1.003  -1.234  0.00  0.00    +0.044 C 
ATOM      5  C   UNL     1       0.968  -0.418  -0.879  0.00  0.00    -0.047 A 
ATOM      6  C   UNL     1      -0.336  -0.745  -0.555  0.00  0.00    +0.005 A 
ATOM      7  C   UNL     1      -0.663  -2.046  -0.229  0.00  0.00    +0.024 A 
ATOM      8  C   UNL     1       0.320  -3.028  -0.227  0.00  0.00    +0.038 A 
ATOM      9  C   UNL     1       1.628  -2.697  -0.553  0.00  0.00    +0.027 A 
ATOM     10  C   UNL     1       1.948  -1.394  -0.883  0.00  0.00    -0.046 A 
ATOM     11  C   UNL     1       3.366  -1.034  -1.242  0.00  0.00    +0.044 C 
ENDBRANCH   1   8
BRANCH   2  12
ATOM     12  C   UNL     1       0.385  -3.804   2.445  0.00  0.00    +0.116 A 
ATOM     13  C   UNL     1       0.531  -4.027   3.815  0.00  0.00    +0.076 A 
ATOM     14  C   UNL     1       0.968  -2.905   4.516  0.00  0.00    +0.155 A 
ATOM     15  N   UNL     1       1.197  -1.783   3.867  0.00  0.00    -0.203 NA
ATOM     16  S   UNL     1       0.872  -2.095   2.314  0.00  0.00    +0.019 S 
BRANCH  14  17
ATOM     17  C   UNL     1       1.173  -2.975   5.975  0.00  0.00    +0.262 C 
ATOM     18  O   UNL     1       1.069  -4.039   6.553  0.00  0.00    -0.269 OA
ATOM     19  N   UNL     1       1.476  -1.859   6.667  0.00  0.00    -0.324 N 
ATOM     20  H   UNL     1       1.559  -1.009   6.205  0.00  0.00    +0.145 HD
ATOM     21  H   UNL     1       1.611  -1.904   7.626  0.00  0.00    +0.145 HD
ENDBRANCH  14  17
BRANCH  13  22
ATOM     22  N   UNL     1       0.267  -5.249   4.420  0.00  0.00    -0.355 N 
ATOM     23  H   UNL     1       0.066  -6.026   3.876  0.00  0.00    +0.142 HD
ATOM     24  H   UNL     1       0.282  -5.324   5.387  0.00  0.00    +0.142 HD
ENDBRANCH  13  22
ENDBRANCH   2  12
BRANCH   1  25
ATOM     25  C   UNL     1      -0.307  -5.314  -0.955  0.00  0.00    +0.233 C 
BRANCH  25  26
ATOM     26  C   UNL     1       0.816  -5.323  -1.960  0.00  0.00    +0.135 A 
ATOM     27  C   UNL     1       1.322  -6.412  -2.565  0.00  0.00    +0.047 A 
ATOM     28  C   UNL     1       2.353  -5.963  -3.423  0.00  0.00    +0.045 A 
ATOM     29  C   UNL     1       2.415  -4.626  -3.290  0.00  0.00    +0.102 A 
ATOM     30  O   UNL     1       1.478  -4.243  -2.407  0.00  0.00    -0.462 OA
ATOM     31  C   UNL     1       3.370  -3.712  -4.014  0.00  0.00    +0.086 C 
ENDBRANCH  25  26
BRANCH  25  32
ATOM     32  C   UNL     1      -1.591  -4.927  -1.641  0.00  0.00    +0.242 C 
ATOM     33  O   UNL     1      -2.226  -3.972  -1.246  0.00  0.00    -0.273 OA
ATOM     34  N   UNL     1      -2.035  -5.642  -2.694  0.00  0.00    -0.311 N 
ATOM     35  H   UNL     1      -1.528  -6.405  -3.011  0.00  0.00    +0.149 HD
BRANCH  34  36
ATOM     36  C   UNL     1      -3.284  -5.265  -3.361  0.00  0.00    +0.135 C 
BRANCH  36  37
ATOM     37  C   UNL     1      -3.557  -6.231  -4.516  0.00  0.00    +0.135 C 
ATOM     38  C   UNL     1      -4.857  -5.830  -5.257  0.00  0.00    +0.035 C 
ATOM     39  C   UNL     1      -4.600  -6.449  -6.658  0.00  0.00    +0.031 C 
ATOM     40  C   UNL     1      -3.073  -6.284  -6.814  0.00  0.00    +0.160 C 
ATOM     41  O   UNL     1      -2.516  -6.138  -5.501  0.00  0.00    -0.375 OA
ENDBRANCH  36  37
ENDBRANCH  34  36
ENDBRANCH  25  32
ENDBRANCH   1  25
TORSDOF 9
