REMARK  Name = ZINC04635151
REMARK  14 active torsions:
REMARK  status: ('A' for Active; 'I' for Inactive)
REMARK    1  A    between atoms: C_1  and  C_2
REMARK    2  A    between atoms: C_2  and  C_3
REMARK    3  A    between atoms: C_2  and  C_4
REMARK    4  A    between atoms: C_2  and  C_5
REMARK    5  A    between atoms: C_8  and  C_11
REMARK    6  A    between atoms: C_13  and  C_24
REMARK    7  A    between atoms: C_14  and  O_23
REMARK    8  A    between atoms: N_17  and  C_18
REMARK    9  A    between atoms: C_18  and  C_19
REMARK   10  A    between atoms: C_19  and  N_60
REMARK   11  A    between atoms: C_20  and  C_21
REMARK   12  A    between atoms: C_20  and  N_60
REMARK   13  A    between atoms: C_21  and  O_22
REMARK   14  A    between atoms: C_24  and  C_26
REMARK                            x       y       z     vdW  Elec       q    Type
REMARK                         _______ _______ _______ _____ _____    ______ ____
ROOT
ATOM      1  C   UNL     1      -1.691   0.423   2.409  0.00  0.00    +0.144 C 
ATOM      2  C   UNL     1      -2.077   1.672   3.166  0.00  0.00    +0.071 C 
ATOM      3  C   UNL     1      -1.374   2.692   2.621  0.00  0.00    +0.188 C 
ATOM      4  C   UNL     1      -0.525   2.168   1.529  0.00  0.00    +0.282 C 
ATOM      5  O   UNL     1       0.227   2.837   0.849  0.00  0.00    -0.267 OA
ATOM      6  N   UNL     1      -0.712   0.843   1.399  0.00  0.00    -0.285 N 
ENDROOT
BRANCH   1  10
ATOM      7  C   UNL     1       0.070  -2.419   5.067  0.00  0.00    -0.042 A 
ATOM      8  C   UNL     1      -1.213  -2.618   4.595  0.00  0.00    +0.004 A 
ATOM      9  C   UNL     1      -1.783  -1.698   3.735  0.00  0.00    +0.006 A 
ATOM     10  C   UNL     1      -1.069  -0.580   3.347  0.00  0.00    -0.022 A 
ATOM     11  C   UNL     1       0.216  -0.384   3.815  0.00  0.00    +0.006 A 
ATOM     12  C   UNL     1       0.785  -1.301   4.679  0.00  0.00    +0.004 A 
BRANCH   7  14
ATOM     13  C   UNL     1       0.757  -4.788   5.321  0.00  0.00    +0.015 C 
ATOM     14  C   UNL     1       0.692  -3.421   6.006  0.00  0.00    -0.013 C 
ATOM     15  C   UNL     1       2.106  -2.967   6.374  0.00  0.00    +0.015 C 
ATOM     16  C   UNL     1      -0.157  -3.527   7.274  0.00  0.00    +0.015 C 
ENDBRANCH   7  14
ENDBRANCH   1  10
BRANCH   3  17
ATOM     17  O   UNL     1      -1.434   3.985   3.016  0.00  0.00    -0.502 OA
ATOM     18  H   UNL     1      -0.818   4.535   2.451  0.00  0.00    +0.292 HD
ENDBRANCH   3  17
BRANCH   2  19
ATOM     19  C   UNL     1      -3.030   1.762   4.276  0.00  0.00    +0.195 C 
ATOM     20  O   UNL     1      -2.647   2.097   5.381  0.00  0.00    -0.287 OA
BRANCH  19  21
ATOM     21  C   UNL     1      -4.457   1.446   4.053  0.00  0.00    +0.022 A 
ATOM     22  C   UNL     1      -4.923   1.181   2.764  0.00  0.00    +0.013 A 
ATOM     23  C   UNL     1      -6.254   0.881   2.563  0.00  0.00    +0.021 A 
ATOM     24  C   UNL     1      -7.130   0.854   3.636  0.00  0.00    +0.041 A 
ATOM     25  C   UNL     1      -6.674   1.121   4.917  0.00  0.00    +0.021 A 
ATOM     26  C   UNL     1      -5.345   1.417   5.131  0.00  0.00    +0.013 A 
ATOM     27 CL   UNL     1      -8.805   0.482   3.374  0.00  0.00    -0.084 Cl
ENDBRANCH  19  21
ENDBRANCH   2  19
BRANCH   6  28
ATOM     28  C   UNL     1      -0.052  -0.029   0.424  0.00  0.00    +0.090 C 
BRANCH  28  29
ATOM     29  C   UNL     1      -0.892  -0.096  -0.853  0.00  0.00    -0.063 C 
BRANCH  29  30
ATOM     30  N   UNL     1      -0.220  -0.975  -1.828  0.00  0.00    +0.382 N 
ATOM     31  H   UNL     1      -0.122  -1.915  -1.426  0.00  0.00    -0.086 HD
ATOM     32  H   UNL     1       0.710  -0.596  -2.042  0.00  0.00    -0.086 HD
BRANCH  30  33
ATOM     33  C   UNL     1      -1.009  -1.058  -3.072  0.00  0.00    -0.054 C 
BRANCH  33  34
ATOM     34  C   UNL     1      -0.288  -1.975  -4.062  0.00  0.00    +0.137 C 
BRANCH  34  35
ATOM     35  O   UNL     1      -0.255  -3.305  -3.542  0.00  0.00    -0.397 OA
ATOM     36  H   UNL     1       0.188  -3.942  -4.119  0.00  0.00    +0.209 HD
ENDBRANCH  34  35
ENDBRANCH  33  34
ENDBRANCH  30  33
ENDBRANCH  29  30
ENDBRANCH  28  29
ENDBRANCH   6  28
TORSDOF 11
