REMARK  Name = ZINC39673234
REMARK  6 active torsions:
REMARK  status: ('A' for Active; 'I' for Inactive)
REMARK    1  A    between atoms: C_3  and  O_32
REMARK    2  A    between atoms: C_6  and  C_7
REMARK    3  A    between atoms: C_7  and  N_8
REMARK    4  A    between atoms: C_9  and  C_11
REMARK    5  A    between atoms: C_22  and  C_24
REMARK    6  A    between atoms: O_32  and  C_33
REMARK                            x       y       z     vdW  Elec       q    Type
REMARK                         _______ _______ _______ _____ _____    ______ ____
ROOT
ATOM      1  C   UNL     1      -3.309  -1.936  -3.025  0.00  0.00    +0.100 C 
ATOM      2  C   UNL     1      -3.724  -0.609  -3.699  0.00  0.00    +0.121 C 
ATOM      3  N   UNL     1      -4.884  -0.967  -4.548  0.00  0.00    -0.296 N 
ATOM      4  C   UNL     1      -5.653  -1.936  -3.731  0.00  0.00    +0.115 C 
ATOM      5  C   UNL     1      -4.578  -2.804  -3.048  0.00  0.00    -0.004 C 
ATOM      6  C   UNL     1      -5.006  -3.151  -1.625  0.00  0.00    -0.010 C 
ATOM      7  C   UNL     1      -6.236  -4.062  -1.675  0.00  0.00    -0.082 C 
ATOM      8  N   UNL     1      -5.912  -5.284  -2.421  0.00  0.00    +0.379 N 
ATOM      9  C   UNL     1      -5.591  -4.950  -3.814  0.00  0.00    -0.082 C 
ATOM     10  C   UNL     1      -4.334  -4.076  -3.855  0.00  0.00    -0.010 C 
ATOM     11  C   UNL     1      -5.175  -0.514  -5.784  0.00  0.00    +0.248 C 
ATOM     12  O   UNL     1      -4.391   0.210  -6.366  0.00  0.00    -0.270 OA
ATOM     13  H   UNL     1      -5.118  -5.737  -1.994  0.00  0.00    -0.086 HD
ATOM     14  H   UNL     1      -6.704  -5.909  -2.400  0.00  0.00    -0.086 HD
ENDROOT
BRANCH  11  15
ATOM     15  C   UNL     1      -6.447  -0.896  -6.430  0.00  0.00    +0.055 A 
ATOM     16  C   UNL     1      -7.604  -1.051  -5.664  0.00  0.00    +0.016 A 
ATOM     17  C   UNL     1      -8.788  -1.408  -6.273  0.00  0.00    +0.021 A 
ATOM     18  C   UNL     1      -8.832  -1.614  -7.643  0.00  0.00    +0.042 A 
ATOM     19  C   UNL     1      -7.689  -1.462  -8.409  0.00  0.00    +0.040 A 
ATOM     20  C   UNL     1      -6.498  -1.098  -7.812  0.00  0.00    +0.054 A 
ATOM     21 CL   UNL     1      -5.067  -0.901  -8.774  0.00  0.00    -0.083 Cl
ATOM     22 CL   UNL     1     -10.328  -2.064  -8.401  0.00  0.00    -0.083 Cl
ENDBRANCH  11  15
BRANCH   1  24
ATOM     23  N   UNL     1      -2.089  -2.591  -0.975  0.00  0.00    -0.311 N 
ATOM     24  C   UNL     1      -2.867  -1.689  -1.606  0.00  0.00    +0.218 C 
ATOM     25  O   UNL     1      -3.212  -0.678  -1.031  0.00  0.00    -0.275 OA
ATOM     26  H   UNL     1      -1.814  -3.399  -1.435  0.00  0.00    +0.149 HD
BRANCH  23  27
ATOM     27  C   UNL     1      -1.660  -2.350   0.405  0.00  0.00    +0.139 C 
BRANCH  27  33
ATOM     28  C   UNL     1       0.563  -3.464   0.685  0.00  0.00    +0.009 A 
ATOM     29  C   UNL     1       1.348  -4.517   1.114  0.00  0.00    +0.046 A 
ATOM     30  C   UNL     1       0.761  -5.611   1.734  0.00  0.00    +0.127 A 
ATOM     31  C   UNL     1      -0.614  -5.644   1.921  0.00  0.00    +0.046 A 
ATOM     32  C   UNL     1      -1.394  -4.589   1.490  0.00  0.00    +0.009 A 
ATOM     33  C   UNL     1      -0.807  -3.500   0.873  0.00  0.00    -0.030 A 
BRANCH  30  34
ATOM     34  O   UNL     1       1.530  -6.648   2.156  0.00  0.00    -0.434 OA
BRANCH  34  35
ATOM     35  C   UNL     1       0.858  -7.741   2.786  0.00  0.00    +0.541 C 
ATOM     36  F   UNL     1       0.188  -7.282   3.925  0.00  0.00    -0.166 F 
ATOM     37  F   UNL     1      -0.065  -8.297   1.894  0.00  0.00    -0.166 F 
ENDBRANCH  34  35
ENDBRANCH  30  34
ENDBRANCH  27  33
ENDBRANCH  23  27
ENDBRANCH   1  24
TORSDOF 6
