REMARK  Name = ZINC14720616
REMARK  18 active torsions:
REMARK  status: ('A' for Active; 'I' for Inactive)
REMARK    1  A    between atoms: C_1  and  C_2
REMARK    2  A    between atoms: C_2  and  C_3
REMARK    3  A    between atoms: C_3  and  C_4
REMARK    4  A    between atoms: C_4  and  N_5
REMARK    5  A    between atoms: N_5  and  C_6
REMARK    6  A    between atoms: C_7  and  N_19
REMARK    7  A    between atoms: N_8  and  C_15
REMARK    8  A    between atoms: C_15  and  C_16
REMARK    9  A    between atoms: C_16  and  C_17
REMARK   10  A    between atoms: C_16  and  C_18
REMARK   11  A    between atoms: C_20  and  C_22
REMARK   12  A    between atoms: C_22  and  C_23
REMARK   13  A    between atoms: C_25  and  O_33
REMARK   14  A    between atoms: C_26  and  O_31
REMARK   15  A    between atoms: C_27  and  O_29
REMARK   16  A    between atoms: O_29  and  C_30
REMARK   17  A    between atoms: O_31  and  C_32
REMARK   18  A    between atoms: O_33  and  C_34
REMARK                            x       y       z     vdW  Elec       q    Type
REMARK                         _______ _______ _______ _____ _____    ______ ____
ROOT
ATOM      1  N   UNL     1       4.096   0.122  -1.698  0.00  0.00    -0.264 N 
ATOM      2  C   UNL     1       3.052   0.929  -1.415  0.00  0.00    +0.224 C 
ATOM      3  O   UNL     1       2.489   1.528  -2.308  0.00  0.00    -0.275 OA
ENDROOT
BRANCH   1   4
ATOM      4  C   UNL     1       4.471  -0.101  -3.040  0.00  0.00    +0.140 A 
ATOM      5  C   UNL     1       3.610  -0.732  -3.914  0.00  0.00    +0.127 A 
ATOM      6  N   UNL     1       4.002  -0.930  -5.217  0.00  0.00    -0.280 N 
ATOM      7  C   UNL     1       5.216  -0.525  -5.632  0.00  0.00    +0.331 A 
ATOM      8  O   UNL     1       5.546  -0.714  -6.787  0.00  0.00    -0.246 OA
ATOM      9  N   UNL     1       6.071   0.086  -4.793  0.00  0.00    -0.273 N 
ATOM     10  H   UNL     1       6.967   0.378  -5.127  0.00  0.00    +0.173 HD
ATOM     11  C   UNL     1       5.733   0.310  -3.508  0.00  0.00    +0.277 A 
ATOM     12  O   UNL     1       6.516   0.866  -2.756  0.00  0.00    -0.266 OA
BRANCH   5  13
ATOM     13  N   UNL     1       2.372  -1.152  -3.489  0.00  0.00    -0.343 N 
ATOM     14  H   UNL     1       2.122  -1.058  -2.556  0.00  0.00    +0.144 HD
ATOM     15  H   UNL     1       1.749  -1.542  -4.121  0.00  0.00    +0.144 HD
ENDBRANCH   5  13
BRANCH   6  16
ATOM     16  C   UNL     1       3.095  -1.593  -6.157  0.00  0.00    +0.131 C 
BRANCH  16  17
ATOM     17  C   UNL     1       3.333  -3.104  -6.116  0.00  0.00    +0.003 C 
ATOM     18  C   UNL     1       2.304  -3.807  -7.003  0.00  0.00    +0.009 C 
ATOM     19  C   UNL     1       4.742  -3.413  -6.627  0.00  0.00    +0.009 C 
ENDBRANCH  16  17
ENDBRANCH   6  16
ENDBRANCH   1   4
BRANCH   1  20
ATOM     20  C   UNL     1       4.839  -0.521  -0.613  0.00  0.00    +0.114 C 
BRANCH  20  21
ATOM     21  C   UNL     1       4.220  -1.888  -0.311  0.00  0.00    +0.019 C 
BRANCH  21  23
ATOM     22  C   UNL     1       4.378  -3.927   1.124  0.00  0.00    +0.004 C 
ATOM     23  C   UNL     1       4.997  -2.560   0.823  0.00  0.00    -0.002 C 
ENDBRANCH  21  23
ENDBRANCH  20  21
ENDBRANCH   1  20
BRANCH   2  24
ATOM     24  C   UNL     1       2.586   1.087   0.009  0.00  0.00    +0.131 C 
BRANCH  24  25
ATOM     25  C   UNL     1       1.415   2.035   0.053  0.00  0.00    -0.031 A 
ATOM     26  C   UNL     1       0.128   1.546  -0.072  0.00  0.00    +0.053 A 
ATOM     27  C   UNL     1      -0.952   2.416  -0.038  0.00  0.00    +0.165 A 
ATOM     28  C   UNL     1      -0.739   3.779   0.132  0.00  0.00    +0.204 A 
ATOM     29  C   UNL     1       0.557   4.266   0.258  0.00  0.00    +0.165 A 
ATOM     30  C   UNL     1       1.631   3.390   0.217  0.00  0.00    +0.053 A 
BRANCH  29  31
ATOM     31  O   UNL     1       0.771   5.599   0.419  0.00  0.00    -0.491 OA
ATOM     32  C   UNL     1       2.128   6.028   0.540  0.00  0.00    +0.277 C 
ENDBRANCH  29  31
BRANCH  28  33
ATOM     33  O   UNL     1      -1.796   4.635   0.171  0.00  0.00    -0.488 OA
ATOM     34  C   UNL     1      -2.232   5.185  -1.074  0.00  0.00    +0.277 C 
ENDBRANCH  28  33
BRANCH  27  35
ATOM     35  O   UNL     1      -2.218   1.935  -0.166  0.00  0.00    -0.491 OA
ATOM     36  C   UNL     1      -2.362   0.523  -0.332  0.00  0.00    +0.277 C 
ENDBRANCH  27  35
ENDBRANCH  24  25
ENDBRANCH   2  24
TORSDOF 12
