REMARK  Name = ZINC06501486
REMARK  17 active torsions:
REMARK  status: ('A' for Active; 'I' for Inactive)
REMARK    1  A    between atoms: C_1  and  C_2
REMARK    2  A    between atoms: C_2  and  C_3
REMARK    3  A    between atoms: C_3  and  C_4
REMARK    4  A    between atoms: C_4  and  C_6
REMARK    5  A    between atoms: C_4  and  N_14
REMARK    6  A    between atoms: N_8  and  C_9
REMARK    7  A    between atoms: C_9  and  C_10
REMARK    8  A    between atoms: C_10  and  C_11
REMARK    9  A    between atoms: C_11  and  C_12
REMARK   10  A    between atoms: C_11  and  C_13
REMARK   11  A    between atoms: N_14  and  C_15
REMARK   12  A    between atoms: C_18  and  C_21
REMARK   13  A    between atoms: C_21  and  C_22
REMARK   14  A    between atoms: C_21  and  C_23
REMARK   15  A    between atoms: C_24  and  C_26
REMARK   16  A    between atoms: C_27  and  N_34
REMARK   17  A    between atoms: C_28  and  C_31
REMARK                            x       y       z     vdW  Elec       q    Type
REMARK                         _______ _______ _______ _____ _____    ______ ____
ROOT
ATOM      1  N   UNL     1       1.487   1.542   2.683  0.00  0.00    -0.255 N 
ATOM      2  C   UNL     1       2.380   0.745   2.064  0.00  0.00    +0.261 C 
ATOM      3  O   UNL     1       2.113  -0.426   1.862  0.00  0.00    -0.269 OA
ENDROOT
BRANCH   1   4
ATOM      4  C   UNL     1       1.824   2.866   2.986  0.00  0.00    +0.037 A 
ATOM      5  C   UNL     1       2.776   3.136   3.960  0.00  0.00    +0.024 A 
ATOM      6  C   UNL     1       3.110   4.444   4.252  0.00  0.00    +0.006 A 
ATOM      7  C   UNL     1       2.489   5.484   3.584  0.00  0.00    -0.045 A 
ATOM      8  C   UNL     1       1.537   5.218   2.618  0.00  0.00    +0.006 A 
ATOM      9  C   UNL     1       1.202   3.912   2.316  0.00  0.00    +0.024 A 
BRANCH   7  10
ATOM     10  C   UNL     1       2.852   6.910   3.910  0.00  0.00    +0.013 C 
ATOM     11  C   UNL     1       2.555   7.188   5.385  0.00  0.00    +0.012 C 
ATOM     12  C   UNL     1       4.341   7.132   3.639  0.00  0.00    +0.012 C 
ENDBRANCH   7  10
ENDBRANCH   1   4
BRANCH   2  13
ATOM     13  C   UNL     1       3.670   1.286   1.634  0.00  0.00    +0.116 A 
ATOM     14  C   UNL     1       4.769   0.623   1.084  0.00  0.00    +0.076 A 
ATOM     15  C   UNL     1       5.827   1.486   0.800  0.00  0.00    +0.155 A 
ATOM     16  N   UNL     1       5.698   2.768   1.061  0.00  0.00    -0.203 NA
ATOM     17  S   UNL     1       4.256   2.967   1.665  0.00  0.00    +0.019 S 
BRANCH  15  18
ATOM     18  C   UNL     1       7.076   0.967   0.213  0.00  0.00    +0.262 C 
ATOM     19  O   UNL     1       7.188  -0.220  -0.025  0.00  0.00    -0.269 OA
ATOM     20  N   UNL     1       8.093   1.808  -0.058  0.00  0.00    -0.324 N 
ATOM     21  H   UNL     1       8.004   2.755   0.132  0.00  0.00    +0.145 HD
ATOM     22  H   UNL     1       8.915   1.466  -0.444  0.00  0.00    +0.145 HD
ENDBRANCH  15  18
BRANCH  14  23
ATOM     23  N   UNL     1       4.805  -0.745   0.846  0.00  0.00    -0.355 N 
ATOM     24  H   UNL     1       4.037  -1.296   1.065  0.00  0.00    +0.142 HD
ATOM     25  H   UNL     1       5.598  -1.150   0.461  0.00  0.00    +0.142 HD
ENDBRANCH  14  23
ENDBRANCH   2  13
BRANCH   1  26
ATOM     26  C   UNL     1       0.165   1.023   3.040  0.00  0.00    +0.167 C 
BRANCH  26  27
ATOM     27  C   UNL     1      -0.028   1.120   4.532  0.00  0.00    +0.234 C 
ATOM     28  O   UNL     1       0.854   1.578   5.228  0.00  0.00    -0.274 OA
ATOM     29  N   UNL     1      -1.179   0.698   5.092  0.00  0.00    -0.314 N 
ATOM     30  H   UNL     1      -1.883   0.332   4.535  0.00  0.00    +0.149 HD
BRANCH  29  31
ATOM     31  C   UNL     1      -1.365   0.793   6.542  0.00  0.00    +0.104 C 
BRANCH  31  32
ATOM     32  C   UNL     1      -2.747   0.250   6.914  0.00  0.00    +0.022 C 
BRANCH  32  33
ATOM     33  C   UNL     1      -2.942   0.349   8.428  0.00  0.00    -0.016 C 
ATOM     34  C   UNL     1      -2.959   1.821   8.846  0.00  0.00    +0.007 C 
ATOM     35  C   UNL     1      -4.269  -0.306   8.815  0.00  0.00    +0.007 C 
ENDBRANCH  32  33
ENDBRANCH  31  32
ENDBRANCH  29  31
ENDBRANCH  26  27
BRANCH  26  36
ATOM     36  C   UNL     1      -0.914   1.846   2.332  0.00  0.00    +0.032 C 
BRANCH  36  38
ATOM     37  C   UNL     1      -1.895   2.446   0.114  0.00  0.00    +0.004 C 
ATOM     38  C   UNL     1      -0.816   1.623   0.822  0.00  0.00    -0.001 C 
ENDBRANCH  36  38
ENDBRANCH  26  36
ENDBRANCH   1  26
TORSDOF 12
