REMARK  Name = ZINC37044518
REMARK  9 active torsions:
REMARK  status: ('A' for Active; 'I' for Inactive)
REMARK    1  A    between atoms: C_1  and  C_2
REMARK    2  A    between atoms: C_2  and  C_4
REMARK    3  A    between atoms: C_2  and  N_13
REMARK    4  A    between atoms: C_7  and  C_10
REMARK    5  A    between atoms: C_10  and  C_11
REMARK    6  A    between atoms: C_10  and  C_12
REMARK    7  A    between atoms: N_13  and  C_14
REMARK    8  A    between atoms: C_14  and  C_16
REMARK    9  A    between atoms: C_14  and  C_17
REMARK                            x       y       z     vdW  Elec       q    Type
REMARK                         _______ _______ _______ _____ _____    ______ ____
ROOT
ATOM      1  N   UNL     1      -1.376  -0.512   0.012  0.00  0.00    +0.388 N 
ATOM      2  H   UNL     1      -1.363  -1.518   0.090  0.00  0.00    -0.084 HD
ATOM      3  H   UNL     1      -1.873  -0.121   0.799  0.00  0.00    -0.084 HD
ENDROOT
BRANCH   1   5
ATOM      4  C   UNL     1      -0.019   1.526   0.010  0.00  0.00    -0.009 C 
ATOM      5  C   UNL     1       0.002  -0.004   0.002  0.00  0.00    -0.043 C 
BRANCH   5   6
ATOM      6  C   UNL     1       0.731  -0.503   1.223  0.00  0.00    -0.062 A 
ATOM      7  C   UNL     1       0.081  -0.558   2.442  0.00  0.00    +0.002 A 
ATOM      8  C   UNL     1       0.749  -1.016   3.562  0.00  0.00    +0.004 A 
ATOM      9  C   UNL     1       2.068  -1.420   3.463  0.00  0.00    -0.045 A 
ATOM     10  C   UNL     1       2.718  -1.365   2.244  0.00  0.00    +0.004 A 
ATOM     11  C   UNL     1       2.048  -0.911   1.123  0.00  0.00    +0.002 A 
BRANCH   9  12
ATOM     12  C   UNL     1       2.797  -1.918   4.684  0.00  0.00    +0.013 C 
ATOM     13  C   UNL     1       3.262  -3.357   4.449  0.00  0.00    +0.012 C 
ATOM     14  C   UNL     1       4.012  -1.027   4.951  0.00  0.00    +0.012 C 
ENDBRANCH   9  12
ENDBRANCH   5   6
ENDBRANCH   1   5
BRANCH   1  15
ATOM     15  C   UNL     1      -2.050  -0.126  -1.234  0.00  0.00    -0.043 C 
ATOM     16  C   UNL     1      -1.371  -0.820  -2.417  0.00  0.00    -0.009 C 
BRANCH  15  17
ATOM     17  C   UNL     1      -3.498  -0.540  -1.172  0.00  0.00    -0.062 A 
ATOM     18  C   UNL     1      -3.846  -1.754  -0.608  0.00  0.00    +0.003 A 
ATOM     19  C   UNL     1      -5.173  -2.134  -0.551  0.00  0.00    +0.015 A 
ATOM     20  C   UNL     1      -6.154  -1.300  -1.057  0.00  0.00    +0.018 A 
ATOM     21  C   UNL     1      -5.805  -0.086  -1.621  0.00  0.00    +0.015 A 
ATOM     22  C   UNL     1      -4.478   0.296  -1.673  0.00  0.00    +0.003 A 
ATOM     23 BR   UNL     1      -7.970  -1.819  -0.979  0.00  0.00    -0.050 Br
ENDBRANCH  15  17
ENDBRANCH   1  15
TORSDOF 5
