REMARK  Name = ZINC57931230
REMARK  8 active torsions:
REMARK  status: ('A' for Active; 'I' for Inactive)
REMARK    1  A    between atoms: C_1  and  C_2
REMARK    2  A    between atoms: C_7  and  C_8
REMARK    3  A    between atoms: N_9  and  C_16
REMARK    4  A    between atoms: C_12  and  C_15
REMARK    5  A    between atoms: C_16  and  C_17
REMARK    6  A    between atoms: C_17  and  C_19
REMARK    7  A    between atoms: C_17  and  O_21
REMARK    8  A    between atoms: C_19  and  O_20
REMARK                            x       y       z     vdW  Elec       q    Type
REMARK                         _______ _______ _______ _____ _____    ______ ____
ROOT
ATOM      1  C   UNL     1      -0.018   1.503   0.010  0.00  0.00    +0.044 C 
ATOM      2  C   UNL     1       0.002  -0.004   0.002  0.00  0.00    -0.046 A 
ATOM      3  C   UNL     1       0.006  -0.688  -1.202  0.00  0.00    +0.028 A 
ATOM      4  C   UNL     1       0.023  -2.070  -1.205  0.00  0.00    +0.050 A 
ATOM      5  C   UNL     1       0.035  -2.776   0.001  0.00  0.00    +0.058 A 
ATOM      6  C   UNL     1       0.034  -2.083   1.200  0.00  0.00    +0.029 A 
ATOM      7  C   UNL     1       0.023  -0.700   1.196  0.00  0.00    -0.046 A 
ATOM      8  C   UNL     1       0.028   0.053   2.502  0.00  0.00    +0.044 C 
ATOM      9  N   UNL     1       0.041  -4.176  -0.018  0.00  0.00    -0.266 N 
ATOM     10  C   UNL     1       0.322  -4.846  -1.152  0.00  0.00    +0.240 C 
ATOM     11  O   UNL     1       0.279  -6.058  -1.157  0.00  0.00    -0.273 OA
ATOM     12  C   UNL     1       0.689  -4.108  -2.414  0.00  0.00    +0.154 C 
ATOM     13  N   UNL     1       0.034  -2.792  -2.407  0.00  0.00    -0.332 N 
ATOM     14  C   UNL     1       2.207  -3.927  -2.478  0.00  0.00    +0.038 C 
ATOM     15  H   UNL     1      -0.378  -2.433  -3.209  0.00  0.00    +0.147 HD
ENDROOT
BRANCH   9  16
ATOM     16  C   UNL     1      -0.261  -4.918   1.208  0.00  0.00    +0.147 C 
BRANCH  16  17
ATOM     17  C   UNL     1      -1.767  -5.178   1.288  0.00  0.00    +0.157 C 
BRANCH  17  18
ATOM     18  O   UNL     1      -2.159  -6.040   0.218  0.00  0.00    -0.388 OA
ATOM     19  H   UNL     1      -1.720  -6.901   0.225  0.00  0.00    +0.210 HD
ENDBRANCH  17  18
BRANCH  17  20
ATOM     20  C   UNL     1      -2.098  -5.843   2.626  0.00  0.00    +0.188 C 
BRANCH  20  21
ATOM     21  O   UNL     1      -3.515  -5.981   2.751  0.00  0.00    -0.392 OA
ATOM     22  H   UNL     1      -3.799  -6.396   3.577  0.00  0.00    +0.210 HD
ENDBRANCH  20  21
ENDBRANCH  17  20
ENDBRANCH  16  17
ENDBRANCH   9  16
TORSDOF 5
