REMARK  Name = ZINC02655434
REMARK  8 active torsions:
REMARK  status: ('A' for Active; 'I' for Inactive)
REMARK    1  A    between atoms: C_1  and  C_2
REMARK    2  A    between atoms: C_4  and  C_29
REMARK    3  A    between atoms: C_11  and  C_13
REMARK    4  A    between atoms: N_15  and  C_16
REMARK    5  A    between atoms: C_16  and  C_17
REMARK    6  A    between atoms: C_17  and  C_18
REMARK    7  A    between atoms: C_21  and  S_24
REMARK    8  A    between atoms: S_24  and  N_27
REMARK                            x       y       z     vdW  Elec       q    Type
REMARK                         _______ _______ _______ _____ _____    ______ ____
ROOT
ATOM      1  C   UNL     1      -2.506   1.666   0.023  0.00  0.00    +0.264 C 
ATOM      2  O   UNL     1      -2.492   0.451   0.017  0.00  0.00    -0.268 OA
ATOM      3  N   UNL     1      -3.681   2.326   0.033  0.00  0.00    -0.310 N 
ATOM      4  H   UNL     1      -3.692   3.296   0.037  0.00  0.00    +0.149 HD
ENDROOT
BRANCH   1  15
ATOM      5  C   UNL     1       1.095   9.207   0.725  0.00  0.00    +0.067 C 
ATOM      6  C   UNL     1       0.345   7.955   0.349  0.00  0.00    +0.061 A 
ATOM      7  C   UNL     1      -0.928   7.906  -0.231  0.00  0.00    +0.048 A 
ATOM      8  C   UNL     1      -1.250   6.606  -0.421  0.00  0.00    +0.044 A 
ATOM      9  N   UNL     1      -0.214   5.855   0.035  0.00  0.00    -0.219 N 
ATOM     10  N   UNL     1       0.773   6.729   0.508  0.00  0.00    -0.170 NA
ATOM     11  C   UNL     1      -0.142   4.458   0.026  0.00  0.00    +0.155 A 
ATOM     12  C   UNL     1       1.103   3.833   0.012  0.00  0.00    +0.050 A 
ATOM     13  C   UNL     1       1.167   2.451   0.004  0.00  0.00    +0.026 A 
ATOM     14  C   UNL     1      -0.021   1.732   0.012  0.00  0.00    +0.072 A 
ATOM     15  C   UNL     1      -1.232   2.421   0.021  0.00  0.00    +0.146 A 
ATOM     16  N   UNL     1      -1.254   3.749   0.033  0.00  0.00    -0.222 NA
ATOM     17 CL   UNL     1       0.002  -0.004   0.002  0.00  0.00    -0.081 Cl
ATOM     18  C   UNL     1      -2.529   6.085  -1.024  0.00  0.00    +0.066 C 
ENDBRANCH   1  15
BRANCH   3  19
ATOM     19  C   UNL     1      -4.941   1.579   0.035  0.00  0.00    +0.109 C 
BRANCH  19  20
ATOM     20  C   UNL     1      -6.115   2.560   0.045  0.00  0.00    +0.054 C 
BRANCH  20  21
ATOM     21  C   UNL     1      -7.412   1.792   0.048  0.00  0.00    -0.046 A 
ATOM     22  C   UNL     1      -8.015   1.450  -1.148  0.00  0.00    +0.005 A 
ATOM     23  C   UNL     1      -9.202   0.742  -1.146  0.00  0.00    +0.029 A 
ATOM     24  C   UNL     1      -9.790   0.382   0.052  0.00  0.00    +0.105 A 
ATOM     25  C   UNL     1      -9.190   0.728   1.248  0.00  0.00    +0.029 A 
ATOM     26  C   UNL     1      -8.001   1.433   1.246  0.00  0.00    +0.005 A 
BRANCH  24  27
ATOM     27  S   UNL     1     -11.306  -0.517   0.055  0.00  0.00    +0.056 S 
ATOM     28  O   UNL     1     -11.380  -1.191  -1.194  0.00  0.00    -0.153 OA
ATOM     29  O   UNL     1     -11.367  -1.205   1.297  0.00  0.00    -0.153 OA
BRANCH  27  30
ATOM     30  N   UNL     1     -12.534   0.593   0.068  0.00  0.00    -0.204 NA
ATOM     31  H   UNL     1     -13.384   0.381  -0.349  0.00  0.00    +0.144 HD
ATOM     32  H   UNL     1     -12.404   1.456   0.492  0.00  0.00    +0.144 HD
ENDBRANCH  27  30
ENDBRANCH  24  27
ENDBRANCH  20  21
ENDBRANCH  19  20
ENDBRANCH   3  19
TORSDOF 6
