REMARK  Name = ZINC36316281
REMARK  19 active torsions:
REMARK  status: ('A' for Active; 'I' for Inactive)
REMARK    1  A    between atoms: C_1  and  C_2
REMARK    2  A    between atoms: C_2  and  C_3
REMARK    3  A    between atoms: C_3  and  C_4
REMARK    4  A    between atoms: C_4  and  O_5
REMARK    5  A    between atoms: O_5  and  C_6
REMARK    6  A    between atoms: C_6  and  C_7
REMARK    7  A    between atoms: C_7  and  C_9
REMARK    8  A    between atoms: C_7  and  O_35
REMARK    9  A    between atoms: C_9  and  N_10
REMARK   10  A    between atoms: N_10  and  C_11
REMARK   11  A    between atoms: N_10  and  C_32
REMARK   12  A    between atoms: C_11  and  C_12
REMARK   13  A    between atoms: C_13  and  C_30
REMARK   14  A    between atoms: N_15  and  C_24
REMARK   15  A    between atoms: C_16  and  O_17
REMARK   16  A    between atoms: O_17  and  C_18
REMARK   17  A    between atoms: C_30  and  C_31
REMARK   18  A    between atoms: C_32  and  C_33
REMARK   19  A    between atoms: C_32  and  C_34
REMARK                            x       y       z     vdW  Elec       q    Type
REMARK                         _______ _______ _______ _____ _____    ______ ____
ROOT
ATOM      1  C   UNL     1      -6.437  -9.771   1.304  0.00  0.00    +0.021 A 
ATOM      2  C   UNL     1      -7.182  -9.771   2.487  0.00  0.00    +0.068 A 
ATOM      3  N   UNL     1      -8.180 -10.605   2.348  0.00  0.00    -0.168 NA
ATOM      4  N   UNL     1      -8.109 -11.170   1.068  0.00  0.00    -0.200 N 
ATOM      5  C   UNL     1      -7.028 -10.637   0.438  0.00  0.00    +0.225 A 
ENDROOT
BRANCH   4   6
ATOM      6  C   UNL     1      -8.996 -12.112   0.531  0.00  0.00    +0.069 A 
ATOM      7  C   UNL     1      -9.345 -12.053  -0.812  0.00  0.00    +0.028 A 
ATOM      8  C   UNL     1     -10.219 -12.983  -1.339  0.00  0.00    +0.002 A 
ATOM      9  C   UNL     1     -10.748 -13.973  -0.530  0.00  0.00    +0.000 A 
ATOM     10  C   UNL     1     -10.404 -14.034   0.808  0.00  0.00    +0.002 A 
ATOM     11  C   UNL     1      -9.525 -13.110   1.339  0.00  0.00    +0.028 A 
ENDBRANCH   4   6
BRANCH   2  12
ATOM     12  C   UNL     1      -6.885  -8.949   3.715  0.00  0.00    +0.054 C 
ATOM     13  C   UNL     1      -7.605  -7.603   3.615  0.00  0.00    +0.010 C 
ENDBRANCH   2  12
BRANCH   1  14
ATOM     14  C   UNL     1      -5.202  -8.951   1.034  0.00  0.00    -0.035 C 
BRANCH  14  15
ATOM     15  N   UNL     1      -5.569  -7.533   0.926  0.00  0.00    +0.386 N 
ATOM     16  H   UNL     1      -6.118  -7.265   1.729  0.00  0.00    -0.081 HD
BRANCH  15  17
ATOM     17  C   UNL     1      -6.356  -7.322  -0.297  0.00  0.00    -0.074 C 
ATOM     18  C   UNL     1      -5.710  -8.083  -1.456  0.00  0.00    -0.014 C 
ATOM     19  C   UNL     1      -7.781  -7.836  -0.081  0.00  0.00    -0.014 C 
ENDBRANCH  15  17
BRANCH  15  20
ATOM     20  C   UNL     1      -4.351  -6.714   0.871  0.00  0.00    -0.044 C 
BRANCH  20  21
ATOM     21  C   UNL     1      -4.724  -5.235   0.993  0.00  0.00    +0.124 C 
BRANCH  21  22
ATOM     22  O   UNL     1      -5.428  -4.823  -0.180  0.00  0.00    -0.391 OA
ATOM     23  H   UNL     1      -4.949  -4.985  -1.004  0.00  0.00    +0.210 HD
ENDBRANCH  21  22
BRANCH  21  24
ATOM     24  C   UNL     1      -3.452  -4.399   1.144  0.00  0.00    +0.189 C 
BRANCH  24  25
ATOM     25  O   UNL     1      -3.804  -3.033   1.374  0.00  0.00    -0.377 OA
BRANCH  25  26
ATOM     26  C   UNL     1      -2.682  -2.162   1.530  0.00  0.00    +0.160 C 
BRANCH  26  27
ATOM     27  C   UNL     1      -3.175  -0.734   1.770  0.00  0.00    +0.028 C 
BRANCH  27  29
ATOM     28  C   UNL     1      -2.467   1.628   2.177  0.00  0.00    +0.004 C 
ATOM     29  C   UNL     1      -1.974   0.199   1.937  0.00  0.00    -0.001 C 
ENDBRANCH  27  29
ENDBRANCH  26  27
ENDBRANCH  25  26
ENDBRANCH  24  25
ENDBRANCH  21  24
ENDBRANCH  20  21
ENDBRANCH  15  20
ENDBRANCH  14  15
ENDBRANCH   1  14
BRANCH   5  30
ATOM     30  O   UNL     1      -6.613 -10.920  -0.823  0.00  0.00    -0.438 OA
BRANCH  30  31
ATOM     31  C   UNL     1      -5.807 -11.999  -1.002  0.00  0.00    +0.130 A 
ATOM     32  C   UNL     1      -5.520 -12.837   0.066  0.00  0.00    +0.046 A 
ATOM     33  C   UNL     1      -4.701 -13.934  -0.119  0.00  0.00    +0.004 A 
ATOM     34  C   UNL     1      -4.167 -14.197  -1.367  0.00  0.00    +0.000 A 
ATOM     35  C   UNL     1      -4.451 -13.363  -2.433  0.00  0.00    +0.004 A 
ATOM     36  C   UNL     1      -5.275 -12.269  -2.255  0.00  0.00    +0.046 A 
ENDBRANCH  30  31
ENDBRANCH   5  30
TORSDOF 15
