REMARK  Name = ZINC08717883
REMARK  11 active torsions:
REMARK  status: ('A' for Active; 'I' for Inactive)
REMARK    1  A    between atoms: C_1  and  C_2
REMARK    2  A    between atoms: C_3  and  C_24
REMARK    3  A    between atoms: C_9  and  O_23
REMARK    4  A    between atoms: C_10  and  C_11
REMARK    5  A    between atoms: C_11  and  N_68
REMARK    6  A    between atoms: C_13  and  C_22
REMARK    7  A    between atoms: C_18  and  C_20
REMARK    8  A    between atoms: C_18  and  C_21
REMARK    9  A    between atoms: N_26  and  C_27
REMARK   10  A    between atoms: C_30  and  O_33
REMARK   11  A    between atoms: O_33  and  C_34
REMARK                            x       y       z     vdW  Elec       q    Type
REMARK                         _______ _______ _______ _____ _____    ______ ____
ROOT
ATOM      1  C   UNL     1       6.274   2.988   2.712  0.00  0.00    +0.087 C 
ATOM      2  C   UNL     1       5.085   2.586   1.878  0.00  0.00    +0.115 A 
ATOM      3  C   UNL     1       3.848   2.296   2.367  0.00  0.00    +0.086 A 
ATOM      4  C   UNL     1       3.021   1.961   1.191  0.00  0.00    +0.037 A 
ATOM      5  C   UNL     1       3.873   2.089   0.085  0.00  0.00    +0.136 A 
ATOM      6  O   UNL     1       5.086   2.462   0.546  0.00  0.00    -0.459 OA
ATOM      7  C   UNL     1       3.380   1.836  -1.189  0.00  0.00    +0.050 A 
ATOM      8  C   UNL     1       2.063   1.463  -1.357  0.00  0.00    +0.049 A 
ATOM      9  C   UNL     1       1.218   1.335  -0.260  0.00  0.00    +0.119 A 
ATOM     10  C   UNL     1       1.692   1.589   1.014  0.00  0.00    -0.011 A 
ENDROOT
BRANCH   3  11
ATOM     11  C   UNL     1       3.425   2.313   3.775  0.00  0.00    +0.252 C 
ATOM     12  O   UNL     1       3.524   1.307   4.453  0.00  0.00    -0.270 OA
ATOM     13  N   UNL     1       2.926   3.443   4.315  0.00  0.00    -0.281 N 
ATOM     14  H   UNL     1       2.773   4.221   3.756  0.00  0.00    +0.155 HD
BRANCH  13  15
ATOM     15  C   UNL     1       2.629   3.494   5.683  0.00  0.00    +0.034 A 
ATOM     16  C   UNL     1       1.556   4.251   6.133  0.00  0.00    +0.027 A 
ATOM     17  C   UNL     1       1.262   4.297   7.482  0.00  0.00    +0.047 A 
ATOM     18  C   UNL     1       2.044   3.595   8.387  0.00  0.00    +0.120 A 
ATOM     19  C   UNL     1       3.119   2.842   7.939  0.00  0.00    +0.047 A 
ATOM     20  C   UNL     1       3.412   2.791   6.590  0.00  0.00    +0.027 A 
BRANCH  18  21
ATOM     21  O   UNL     1       1.756   3.644   9.715  0.00  0.00    -0.495 OA
ATOM     22  C   UNL     1       0.635   4.439  10.107  0.00  0.00    +0.277 C 
ENDBRANCH  18  21
ENDBRANCH  13  15
ENDBRANCH   3  11
BRANCH   9  23
ATOM     23  O   UNL     1      -0.078   0.966  -0.441  0.00  0.00    -0.507 OA
ATOM     24  H   UNL     1      -0.213   0.010  -0.478  0.00  0.00    +0.292 HD
ENDBRANCH   9  23
BRANCH  10  25
ATOM     25  C   UNL     1       0.777   1.457   2.204  0.00  0.00    -0.038 C 
BRANCH  25  36
ATOM     26  C   UNL     1       0.527  -0.972   1.982  0.00  0.00    -0.071 C 
ATOM     27  C   UNL     1      -0.148  -1.984   2.941  0.00  0.00    -0.048 C 
ATOM     28  C   UNL     1       0.365  -1.557   4.341  0.00  0.00    -0.011 C 
ATOM     29  C   UNL     1       0.370  -0.014   4.153  0.00  0.00    -0.067 C 
ATOM     30  C   UNL     1      -1.075   0.453   4.197  0.00  0.00    -0.009 C 
ATOM     31  C   UNL     1      -2.078  -0.364   3.412  0.00  0.00    -0.036 C 
ATOM     32  C   UNL     1      -1.653  -1.729   2.913  0.00  0.00    +0.011 C 
ATOM     33  C   UNL     1      -2.577   0.469   2.215  0.00  0.00    +0.011 C 
ATOM     34  C   UNL     1      -3.311  -0.576   4.327  0.00  0.00    +0.011 C 
ATOM     35  C   UNL     1       0.215  -3.437   2.600  0.00  0.00    +0.009 C 
ATOM     36  N   UNL     1       1.021   0.113   2.830  0.00  0.00    +0.385 N 
ATOM     37  H   UNL     1       2.034   0.001   2.951  0.00  0.00    -0.081 HD
ENDBRANCH  25  36
ENDBRANCH  10  25
TORSDOF 6
