REMARK  Name = ZINC33007464
REMARK  6 active torsions:
REMARK  status: ('A' for Active; 'I' for Inactive)
REMARK    1  A    between atoms: C_1  and  C_2
REMARK    2  A    between atoms: C_5  and  C_8
REMARK    3  A    between atoms: C_10  and  S_13
REMARK    4  A    between atoms: S_13  and  C_14
REMARK    5  A    between atoms: C_14  and  C_15
REMARK    6  A    between atoms: C_21  and  C_27
REMARK                            x       y       z     vdW  Elec       q    Type
REMARK                         _______ _______ _______ _____ _____    ______ ____
ROOT
ATOM      1  C   UNL     1      -6.096   3.331   0.048  0.00  0.00    +0.030 A 
ATOM      2  C   UNL     1      -6.178   1.985   0.041  0.00  0.00    +0.073 A 
ATOM      3  C   UNL     1      -4.998   1.204   0.030  0.00  0.00    +0.190 A 
ATOM      4  O   UNL     1      -5.049  -0.015   0.023  0.00  0.00    -0.287 OA
ATOM      5  C   UNL     1      -3.705   1.913   0.029  0.00  0.00    +0.046 A 
ATOM      6  C   UNL     1      -2.499   1.220   0.015  0.00  0.00    +0.026 A 
ATOM      7  C   UNL     1      -1.303   1.933   0.019  0.00  0.00    +0.037 A 
ATOM      8  C   UNL     1      -1.322   3.334   0.026  0.00  0.00    +0.015 A 
ATOM      9  C   UNL     1      -2.503   4.015   0.035  0.00  0.00    +0.027 A 
ATOM     10  C   UNL     1      -3.712   3.321   0.037  0.00  0.00    +0.050 A 
ATOM     11  N   UNL     1      -4.912   3.991   0.046  0.00  0.00    -0.357 N 
ATOM     12  H   UNL     1      -4.895   5.091   0.052  0.00  0.00    +0.166 HD
ENDROOT
BRANCH   7  13
ATOM     13  C   UNL     1      -0.014   1.212   0.009  0.00  0.00    +0.242 C 
ATOM     14  O   UNL     1       0.002  -0.004   0.002  0.00  0.00    -0.270 OA
ATOM     15  N   UNL     1       1.143   1.901   0.001  0.00  0.00    -0.325 N 
ATOM     16  H   UNL     1       2.103   1.364  -0.006  0.00  0.00    +0.145 HD
ATOM     17  H   UNL     1       1.129   3.001   0.003  0.00  0.00    +0.145 HD
ENDBRANCH   7  13
BRANCH   1  18
ATOM     18  C   UNL     1      -7.372   4.134   0.059  0.00  0.00    +0.130 C 
BRANCH  18  19
ATOM     19  S   UNL     1      -7.890   4.465  -1.644  0.00  0.00    -0.080 S 
BRANCH  19  22
ATOM     20  C   UNL     1     -11.197   6.545  -1.586  0.00  0.00    +0.182 A 
ATOM     21  N   UNL     1     -10.191   5.921  -2.286  0.00  0.00    -0.201 NA
ATOM     22  C   UNL     1      -9.360   5.389  -1.342  0.00  0.00    +0.185 A 
ATOM     23  N   UNL     1      -9.861   5.695  -0.166  0.00  0.00    -0.253 N 
ATOM     24  N   UNL     1     -10.943   6.372  -0.310  0.00  0.00    -0.152 NA
ATOM     25  H   UNL     1      -9.490   5.458   0.843  0.00  0.00    +0.191 HD
BRANCH  20  30
ATOM     26  C   UNL     1     -15.672   9.384  -3.829  0.00  0.00    +0.044 C 
ATOM     27  C   UNL     1     -14.500   8.640  -3.241  0.00  0.00    -0.050 A 
ATOM     28  C   UNL     1     -14.361   8.549  -1.868  0.00  0.00    +0.004 A 
ATOM     29  C   UNL     1     -13.290   7.870  -1.324  0.00  0.00    +0.012 A 
ATOM     30  C   UNL     1     -12.347   7.274  -2.162  0.00  0.00    +0.021 A 
ATOM     31  C   UNL     1     -12.491   7.374  -3.547  0.00  0.00    +0.012 A 
ATOM     32  C   UNL     1     -13.569   8.052  -4.078  0.00  0.00    +0.004 A 
ENDBRANCH  20  30
ENDBRANCH  19  22
ENDBRANCH  18  19
ENDBRANCH   1  18
TORSDOF 5
