REMARK  Name = ZINC09559498
REMARK  6 active torsions:
REMARK  status: ('A' for Active; 'I' for Inactive)
REMARK    1  A    between atoms: C_4  and  C_7
REMARK    2  A    between atoms: C_7  and  N_59
REMARK    3  A    between atoms: C_10  and  N_13
REMARK    4  A    between atoms: C_14  and  C_16
REMARK    5  A    between atoms: N_21  and  S_23
REMARK    6  A    between atoms: S_23  and  C_26
REMARK                            x       y       z     vdW  Elec       q    Type
REMARK                         _______ _______ _______ _____ _____    ______ ____
ROOT
ATOM      1  N   UNL     1       3.528   1.940  -1.240  0.00  0.00    -0.312 N 
ATOM      2  C   UNL     1       3.842   3.158  -1.724  0.00  0.00    +0.218 C 
ATOM      3  O   UNL     1       2.971   3.876  -2.170  0.00  0.00    -0.275 OA
ATOM      4  H   UNL     1       4.224   1.366  -0.883  0.00  0.00    +0.149 HD
ENDROOT
BRANCH   1   7
ATOM      5  C   UNL     1      -0.018   1.464   0.010  0.00  0.00    -0.077 C 
ATOM      6  C   UNL     1       1.417   1.995  -0.001  0.00  0.00    +0.003 C 
ATOM      7  C   UNL     1       2.137   1.483  -1.252  0.00  0.00    +0.069 C 
ATOM      8  C   UNL     1       2.101  -0.048  -1.260  0.00  0.00    +0.003 C 
ATOM      9  C   UNL     1       0.646  -0.520  -1.213  0.00  0.00    -0.077 C 
ATOM     10  N   UNL     1       0.017  -0.014   0.026  0.00  0.00    +0.382 N 
ATOM     11  H   UNL     1       0.572  -0.325   0.832  0.00  0.00    -0.081 HD
BRANCH  10  12
ATOM     12  C   UNL     1      -1.354  -0.550   0.152  0.00  0.00    -0.043 C 
BRANCH  12  16
ATOM     13  C   UNL     1      -1.283  -4.758  -0.577  0.00  0.00    +0.000 A 
ATOM     14  C   UNL     1      -1.086  -4.275   0.703  0.00  0.00    +0.000 A 
ATOM     15  C   UNL     1      -1.109  -2.913   0.939  0.00  0.00    +0.002 A 
ATOM     16  C   UNL     1      -1.329  -2.034  -0.105  0.00  0.00    -0.064 A 
ATOM     17  C   UNL     1      -1.531  -2.518  -1.385  0.00  0.00    +0.002 A 
ATOM     18  C   UNL     1      -1.503  -3.880  -1.621  0.00  0.00    +0.000 A 
ENDBRANCH  12  16
ENDBRANCH  10  12
ENDBRANCH   1   7
BRANCH   2  19
ATOM     19  C   UNL     1       5.273   3.628  -1.712  0.00  0.00    +0.091 C 
ATOM     20  C   UNL     1       5.788   3.660  -0.271  0.00  0.00    +0.015 C 
ATOM     21  C   UNL     1       7.252   4.107  -0.260  0.00  0.00    +0.018 C 
ATOM     22  C   UNL     1       7.355   5.520  -0.842  0.00  0.00    +0.109 C 
ATOM     23  N   UNL     1       6.731   5.530  -2.172  0.00  0.00    -0.175 NA
ATOM     24  C   UNL     1       5.354   5.036  -2.310  0.00  0.00    +0.122 C 
BRANCH  23  25
ATOM     25  S   UNL     1       7.564   6.088  -3.490  0.00  0.00    +0.067 S 
ATOM     26  O   UNL     1       6.590   6.495  -4.443  0.00  0.00    -0.152 OA
ATOM     27  O   UNL     1       8.562   6.971  -2.997  0.00  0.00    -0.152 OA
BRANCH  25  28
ATOM     28  C   UNL     1       8.411   4.712  -4.192  0.00  0.00    +0.144 A 
ATOM     29  C   UNL     1       7.986   3.841  -5.139  0.00  0.00    +0.037 A 
ATOM     30  C   UNL     1       8.832   2.826  -5.546  0.00  0.00    +0.025 A 
ATOM     31  C   UNL     1      10.059   2.727  -4.976  0.00  0.00    +0.057 A 
ATOM     32  S   UNL     1      10.049   4.099  -3.834  0.00  0.00    -0.062 S 
ATOM     33 BR   UNL     1      11.427   1.463  -5.308  0.00  0.00    -0.043 Br
ENDBRANCH  25  28
ENDBRANCH  23  25
ENDBRANCH   2  19
TORSDOF 6
