REMARK  Name = ZINC27495779
REMARK  4 active torsions:
REMARK  status: ('A' for Active; 'I' for Inactive)
REMARK    1  A    between atoms: C_4  and  C_7
REMARK    2  A    between atoms: N_9  and  N_10
REMARK    3  A    between atoms: C_12  and  C_22
REMARK    4  A    between atoms: N_24  and  C_25
REMARK                            x       y       z     vdW  Elec       q    Type
REMARK                         _______ _______ _______ _____ _____    ______ ____
ROOT
ATOM      1  N   UNL     1       2.114   3.371  -0.070  0.00  0.00    -0.273 N 
ATOM      2  C   UNL     1       1.375   2.310   0.114  0.00  0.00    +0.224 A 
ATOM      3  C   UNL     1      -0.098   2.374  -0.017  0.00  0.00    +0.099 A 
ATOM      4  C   UNL     1      -0.749   1.214  -0.368  0.00  0.00    +0.030 A 
ATOM      5  C   UNL     1       0.068   0.015  -0.582  0.00  0.00    +0.019 A 
ATOM      6  C   UNL     1      -0.475  -1.120  -1.194  0.00  0.00    +0.026 A 
ATOM      7  C   UNL     1       0.314  -2.233  -1.387  0.00  0.00    +0.019 A 
ATOM      8  C   UNL     1       1.639  -2.233  -0.978  0.00  0.00    +0.019 A 
ATOM      9  C   UNL     1       2.188  -1.119  -0.373  0.00  0.00    +0.048 A 
ATOM     10  C   UNL     1       1.412   0.011  -0.168  0.00  0.00    +0.138 A 
ATOM     11  O   UNL     1       1.936   1.109   0.431  0.00  0.00    -0.437 OA
ATOM     12 BR   UNL     1      -0.415  -3.771  -2.212  0.00  0.00    -0.050 Br
ATOM     13  H   UNL     1       3.183   3.349   0.191  0.00  0.00    +0.188 HD
ENDROOT
BRANCH   1  16
ATOM     14  C   UNL     1       2.281   5.664  -0.687  0.00  0.00    +0.262 C 
ATOM     15  O   UNL     1       3.406   5.695  -0.226  0.00  0.00    -0.269 OA
ATOM     16  N   UNL     1       1.546   4.537  -0.598  0.00  0.00    -0.223 N 
ATOM     17  H   UNL     1       0.501   4.534  -0.941  0.00  0.00    +0.175 HD
BRANCH  14  21
ATOM     18  C   UNL     1       0.667   9.107  -2.579  0.00  0.00    +0.000 A 
ATOM     19  C   UNL     1       1.973   9.121  -2.122  0.00  0.00    +0.001 A 
ATOM     20  C   UNL     1       2.503   8.006  -1.506  0.00  0.00    +0.013 A 
ATOM     21  C   UNL     1       1.719   6.862  -1.346  0.00  0.00    +0.038 A 
ATOM     22  C   UNL     1       0.404   6.853  -1.814  0.00  0.00    +0.013 A 
ATOM     23  C   UNL     1      -0.116   7.977  -2.422  0.00  0.00    +0.001 A 
ENDBRANCH  14  21
ENDBRANCH   1  16
BRANCH   3  24
ATOM     24  C   UNL     1      -0.834   3.628   0.212  0.00  0.00    +0.253 C 
ATOM     25  O   UNL     1      -1.795   3.905  -0.481  0.00  0.00    -0.270 OA
ATOM     26  N   UNL     1      -0.445   4.469   1.191  0.00  0.00    -0.281 N 
ATOM     27  H   UNL     1       0.480   4.269   1.752  0.00  0.00    +0.155 HD
BRANCH  26  28
ATOM     28  C   UNL     1      -1.216   5.596   1.492  0.00  0.00    +0.034 A 
ATOM     29  C   UNL     1      -2.598   5.547   1.367  0.00  0.00    +0.023 A 
ATOM     30  C   UNL     1      -3.357   6.660   1.671  0.00  0.00    +0.002 A 
ATOM     31  C   UNL     1      -2.742   7.826   2.089  0.00  0.00    +0.000 A 
ATOM     32  C   UNL     1      -1.365   7.879   2.209  0.00  0.00    +0.002 A 
ATOM     33  C   UNL     1      -0.601   6.768   1.912  0.00  0.00    +0.023 A 
ENDBRANCH  26  28
ENDBRANCH   3  24
TORSDOF 4
