REMARK  Name = ZINC38650048
REMARK  11 active torsions:
REMARK  status: ('A' for Active; 'I' for Inactive)
REMARK    1  A    between atoms: C_1  and  C_2
REMARK    2  A    between atoms: C_2  and  O_3
REMARK    3  A    between atoms: O_3  and  C_4
REMARK    4  A    between atoms: C_7  and  C_11
REMARK    5  A    between atoms: C_11  and  O_13
REMARK    6  A    between atoms: O_13  and  C_14
REMARK    7  A    between atoms: C_21  and  N_35
REMARK    8  A    between atoms: C_22  and  C_33
REMARK    9  A    between atoms: C_23  and  C_25
REMARK   10  A    between atoms: C_30  and  O_31
REMARK   11  A    between atoms: O_31  and  C_32
REMARK                            x       y       z     vdW  Elec       q    Type
REMARK                         _______ _______ _______ _____ _____    ______ ____
ROOT
ATOM      1  C   UNL     1      -2.266  -8.083   1.199  0.00  0.00    +0.135 A 
ATOM      2  C   UNL     1      -2.317  -8.819   0.023  0.00  0.00    +0.047 A 
ATOM      3  C   UNL     1      -2.514 -10.185   0.072  0.00  0.00    +0.012 A 
ATOM      4  C   UNL     1      -2.662 -10.825   1.289  0.00  0.00    +0.008 A 
ATOM      5  C   UNL     1      -2.612 -10.095   2.467  0.00  0.00    +0.138 A 
ATOM      6  C   UNL     1      -2.407  -8.722   2.420  0.00  0.00    +0.093 A 
ATOM      7  O   UNL     1      -2.755 -10.705   3.669  0.00  0.00    -0.441 OA
ATOM      8  C   UNL     1      -2.562 -12.030   3.776  0.00  0.00    +0.199 C 
ATOM      9  C   UNL     1      -2.607 -12.850   2.699  0.00  0.00    +0.098 C 
ATOM     10  C   UNL     1      -2.877 -12.315   1.321  0.00  0.00    +0.101 C 
ENDROOT
BRANCH  10  11
ATOM     11  C   UNL     1      -4.301 -12.622   0.936  0.00  0.00    +0.007 A 
ATOM     12  C   UNL     1      -5.345 -12.112   1.684  0.00  0.00    +0.008 A 
ATOM     13  C   UNL     1      -6.652 -12.394   1.332  0.00  0.00    +0.001 A 
ATOM     14  C   UNL     1      -6.918 -13.186   0.230  0.00  0.00    +0.004 A 
ATOM     15  C   UNL     1      -5.878 -13.698  -0.521  0.00  0.00    +0.046 A 
ATOM     16  C   UNL     1      -4.566 -13.412  -0.173  0.00  0.00    +0.124 A 
BRANCH  16  17
ATOM     17  O   UNL     1      -3.541 -13.910  -0.914  0.00  0.00    -0.495 OA
ATOM     18  C   UNL     1      -3.888 -14.716  -2.042  0.00  0.00    +0.277 C 
ENDBRANCH  16  17
ENDBRANCH  10  11
BRANCH   8  19
ATOM     19  N   UNL     1      -2.312 -12.569   5.013  0.00  0.00    -0.328 N 
ATOM     20  H   UNL     1      -2.277 -11.995   5.794  0.00  0.00    +0.145 HD
ATOM     21  H   UNL     1      -2.171 -13.524   5.107  0.00  0.00    +0.145 HD
ENDBRANCH   8  19
BRANCH   9  22
ATOM     22  C   UNL     1      -2.392 -14.254   2.877  0.00  0.00    +0.101 C 
ATOM     23  N   UNL     1      -2.222 -15.368   3.018  0.00  0.00    -0.191 NA
ENDBRANCH   9  22
BRANCH   1  24
ATOM     24  O   UNL     1      -2.072  -6.739   1.153  0.00  0.00    -0.422 OA
BRANCH  24  25
ATOM     25  C   UNL     1      -3.119  -5.960   0.815  0.00  0.00    +0.345 C 
ATOM     26  O   UNL     1      -4.170  -6.468   0.477  0.00  0.00    -0.245 OA
BRANCH  25  30
ATOM     27  C   UNL     1      -2.745  -1.731   0.936  0.00  0.00    +0.157 A 
ATOM     28  C   UNL     1      -3.949  -2.310   0.548  0.00  0.00    +0.085 A 
ATOM     29  C   UNL     1      -4.074  -3.682   0.507  0.00  0.00    +0.038 A 
ATOM     30  C   UNL     1      -2.989  -4.492   0.857  0.00  0.00    +0.062 A 
ATOM     31  C   UNL     1      -1.781  -3.906   1.246  0.00  0.00    +0.038 A 
ATOM     32  C   UNL     1      -1.663  -2.533   1.279  0.00  0.00    +0.085 A 
ATOM     33 CL   UNL     1      -0.161  -1.804   1.756  0.00  0.00    -0.080 Cl
ATOM     34 CL   UNL     1      -5.295  -1.304   0.114  0.00  0.00    -0.080 Cl
BRANCH  27  35
ATOM     35  O   UNL     1      -2.626  -0.380   0.975  0.00  0.00    -0.489 OA
BRANCH  35  37
ATOM     36  C   UNL     1      -2.111   1.778   0.015  0.00  0.00    +0.048 C 
ATOM     37  C   UNL     1      -2.184   0.268  -0.220  0.00  0.00    +0.226 C 
ENDBRANCH  35  37
ENDBRANCH  27  35
ENDBRANCH  25  30
ENDBRANCH  24  25
ENDBRANCH   1  24
TORSDOF 9
