REMARK  Name = ZINC60156246
REMARK  12 active torsions:
REMARK  status: ('A' for Active; 'I' for Inactive)
REMARK    1  A    between atoms: C_1  and  C_2
REMARK    2  A    between atoms: N_5  and  C_8
REMARK    3  A    between atoms: C_8  and  C_10
REMARK    4  A    between atoms: C_8  and  C_11
REMARK    5  A    between atoms: C_11  and  N_12
REMARK    6  A    between atoms: C_13  and  C_15
REMARK    7  A    between atoms: C_15  and  C_17
REMARK    8  A    between atoms: C_15  and  N_20
REMARK    9  A    between atoms: C_17  and  C_18
REMARK   10  A    between atoms: C_17  and  C_19
REMARK   11  A    between atoms: C_21  and  C_23
REMARK   12  A    between atoms: C_23  and  C_24
REMARK                            x       y       z     vdW  Elec       q    Type
REMARK                         _______ _______ _______ _____ _____    ______ ____
ROOT
ATOM      1  C   UNL     1       3.702  -3.445   3.417  0.00  0.00    +0.161 C 
ENDROOT
BRANCH   1   3
ATOM      2  N   UNL     1       1.401  -3.769   2.567  0.00  0.00    -0.315 N 
ATOM      3  C   UNL     1       2.344  -4.097   3.472  0.00  0.00    +0.234 C 
ATOM      4  O   UNL     1       2.100  -4.917   4.332  0.00  0.00    -0.274 OA
ATOM      5  H   UNL     1       1.597  -3.113   1.879  0.00  0.00    +0.149 HD
BRANCH   2   6
ATOM      6  C   UNL     1       0.082  -4.402   2.621  0.00  0.00    +0.089 C 
BRANCH   6   7
ATOM      7  C   UNL     1      -0.753  -3.945   1.423  0.00  0.00    -0.054 C 
ATOM      8  C   UNL     1      -2.159  -4.540   1.525  0.00  0.00    -0.012 C 
BRANCH   7  13
ATOM      9  C   UNL     1      -2.251   1.558   1.371  0.00  0.00    +0.007 C 
ATOM     10  C   UNL     1      -2.293   0.028   1.371  0.00  0.00    -0.018 C 
ATOM     11  C   UNL     1      -1.621  -0.503   2.641  0.00  0.00    -0.016 C 
ATOM     12  C   UNL     1      -1.596  -2.032   2.597  0.00  0.00    -0.078 C 
ATOM     13  N   UNL     1      -0.842  -2.478   1.419  0.00  0.00    +0.382 N 
ATOM     14  C   UNL     1      -1.519  -2.034   0.196  0.00  0.00    -0.078 C 
ATOM     15  C   UNL     1      -1.541  -0.504   0.147  0.00  0.00    -0.016 C 
ATOM     16  H   UNL     1       0.088  -2.088   1.449  0.00  0.00    -0.081 HD
ENDBRANCH   7  13
ENDBRANCH   6   7
ENDBRANCH   2   6
ENDBRANCH   1   3
BRANCH   1  17
ATOM     17  N   UNL     1       4.539  -3.967   4.500  0.00  0.00    -0.303 N 
ATOM     18  C   UNL     1       5.882  -3.947   4.382  0.00  0.00    +0.218 C 
ATOM     19  O   UNL     1       6.396  -3.498   3.381  0.00  0.00    -0.275 OA
ATOM     20  H   UNL     1       4.127  -4.326   5.301  0.00  0.00    +0.149 HD
BRANCH  18  21
ATOM     21  C   UNL     1       6.743  -4.484   5.496  0.00  0.00    +0.131 C 
BRANCH  21  22
ATOM     22  C   UNL     1       8.195  -4.348   5.119  0.00  0.00    -0.038 A 
ATOM     23  C   UNL     1       8.827  -5.384   4.433  0.00  0.00    +0.005 A 
ATOM     24  C   UNL     1      10.137  -5.293   4.078  0.00  0.00    +0.009 A 
ATOM     25  C   UNL     1      10.868  -4.138   4.405  0.00  0.00    -0.018 A 
ATOM     26  C   UNL     1      12.222  -4.007   4.054  0.00  0.00    +0.008 A 
ATOM     27  C   UNL     1      12.898  -2.873   4.387  0.00  0.00    +0.001 A 
ATOM     28  C   UNL     1      12.266  -1.837   5.072  0.00  0.00    +0.001 A 
ATOM     29  C   UNL     1      10.956  -1.928   5.428  0.00  0.00    +0.008 A 
ATOM     30  C   UNL     1      10.226  -3.084   5.101  0.00  0.00    -0.018 A 
ATOM     31  C   UNL     1       8.869  -3.212   5.447  0.00  0.00    +0.012 A 
ENDBRANCH  21  22
ENDBRANCH  18  21
ENDBRANCH   1  17
BRANCH   1  32
ATOM     32  C   UNL     1       3.547  -1.931   3.575  0.00  0.00    +0.012 C 
ATOM     33  C   UNL     1       3.005  -1.617   4.971  0.00  0.00    +0.009 C 
ATOM     34  C   UNL     1       4.909  -1.258   3.395  0.00  0.00    +0.009 C 
ENDBRANCH   1  32
TORSDOF 8
