REMARK  Name = ZINC08927611
REMARK  7 active torsions:
REMARK  status: ('A' for Active; 'I' for Inactive)
REMARK    1  A    between atoms: C_1  and  C_2
REMARK    2  A    between atoms: C_2  and  C_3
REMARK    3  A    between atoms: C_2  and  N_54
REMARK    4  A    between atoms: C_11  and  O_31
REMARK    5  A    between atoms: C_13  and  C_16
REMARK    6  A    between atoms: C_19  and  C_21
REMARK    7  A    between atoms: C_25  and  C_27
REMARK                            x       y       z     vdW  Elec       q    Type
REMARK                         _______ _______ _______ _____ _____    ______ ____
ROOT
ATOM      1  C   UNL     1      -2.445   1.117  -0.411  0.00  0.00    -0.073 C 
ATOM      2  C   UNL     1      -1.348   2.093   0.020  0.00  0.00    +0.018 C 
ATOM      3  C   UNL     1      -0.016   1.351   0.009  0.00  0.00    -0.027 A 
ATOM      4  C   UNL     1       0.002  -0.004   0.002  0.00  0.00    -0.021 A 
ATOM      5  S   UNL     1       1.721  -0.435  -0.017  0.00  0.00    -0.080 S 
ATOM      6  C   UNL     1       2.390   1.139  -0.011  0.00  0.00    +0.080 A 
ATOM      7  C   UNL     1       1.282   1.997   0.001  0.00  0.00    +0.067 A 
ATOM      8  C   UNL     1       1.554   3.458  -0.005  0.00  0.00    +0.220 C 
ATOM      9  N   UNL     1       2.779   3.847   0.225  0.00  0.00    -0.220 NA
ATOM     10  C   UNL     1       3.886   2.956   0.551  0.00  0.00    +0.260 C 
ATOM     11  N   UNL     1       3.682   1.608  -0.012  0.00  0.00    -0.311 N 
ATOM     12  C   UNL     1      -1.188  -0.910   0.011  0.00  0.00    -0.035 C 
ATOM     13  H   UNL     1       4.417   1.082  -0.362  0.00  0.00    +0.149 HD
ATOM     14  N   UNL     1      -2.368  -0.107   0.413  0.00  0.00    +0.384 N 
ATOM     15  H   UNL     1      -2.270   0.160   1.399  0.00  0.00    -0.081 HD
ENDROOT
BRANCH  10  16
ATOM     16  C   UNL     1       4.007   2.850   2.050  0.00  0.00    +0.148 A 
ATOM     17  C   UNL     1       3.641   3.796   2.936  0.00  0.00    +0.049 A 
ATOM     18  C   UNL     1       3.926   3.291   4.220  0.00  0.00    +0.050 A 
ATOM     19  C   UNL     1       4.455   2.051   4.045  0.00  0.00    +0.135 A 
ATOM     20  O   UNL     1       4.493   1.795   2.723  0.00  0.00    -0.456 OA
BRANCH  19  21
ATOM     21  C   UNL     1       4.905   1.140   5.118  0.00  0.00    +0.018 A 
ATOM     22  C   UNL     1       4.804   1.528   6.455  0.00  0.00    +0.011 A 
ATOM     23  C   UNL     1       5.226   0.673   7.452  0.00  0.00    +0.001 A 
ATOM     24  C   UNL     1       5.748  -0.567   7.129  0.00  0.00    +0.012 A 
ATOM     25  C   UNL     1       5.851  -0.958   5.806  0.00  0.00    +0.055 A 
ATOM     26  C   UNL     1       5.427  -0.115   4.800  0.00  0.00    +0.024 A 
BRANCH  25  27
ATOM     27  C   UNL     1       6.421  -2.310   5.464  0.00  0.00    +0.417 C 
ATOM     28  F   UNL     1       6.771  -2.980   6.641  0.00  0.00    -0.166 F 
ATOM     29  F   UNL     1       5.463  -3.058   4.769  0.00  0.00    -0.166 F 
ATOM     30  F   UNL     1       7.557  -2.149   4.664  0.00  0.00    -0.166 F 
ENDBRANCH  25  27
ENDBRANCH  19  21
ENDBRANCH  10  16
BRANCH  14  32
ATOM     31  C   UNL     1      -3.772  -1.336  -1.207  0.00  0.00    -0.014 C 
ATOM     32  C   UNL     1      -3.603  -0.905   0.251  0.00  0.00    -0.074 C 
ATOM     33  C   UNL     1      -3.514  -2.144   1.143  0.00  0.00    -0.014 C 
ENDBRANCH  14  32
BRANCH   8  34
ATOM     34  O   UNL     1       0.568   4.353  -0.240  0.00  0.00    -0.492 OA
ATOM     35  H   UNL     1       0.860   5.275  -0.220  0.00  0.00    +0.294 HD
ENDBRANCH   8  34
TORSDOF 5
