REMARK  Name = ZINC31468976
REMARK  8 active torsions:
REMARK  status: ('A' for Active; 'I' for Inactive)
REMARK    1  A    between atoms: C_1  and  C_2
REMARK    2  A    between atoms: C_8  and  N_10
REMARK    3  A    between atoms: N_10  and  C_11
REMARK    4  A    between atoms: N_10  and  C_21
REMARK    5  A    between atoms: C_11  and  C_12
REMARK    6  A    between atoms: C_15  and  C_18
REMARK    7  A    between atoms: C_21  and  C_22
REMARK    8  A    between atoms: C_25  and  C_28
REMARK                            x       y       z     vdW  Elec       q    Type
REMARK                         _______ _______ _______ _____ _____    ______ ____
ROOT
ATOM      1  N   UNL     1      -0.220  -5.027   1.112  0.00  0.00    +0.387 N 
ATOM      2  H   UNL     1      -1.040  -5.528   1.648  0.00  0.00    -0.080 HD
ENDROOT
BRANCH   1   9
ATOM      3  C   UNL     1      -2.681  -3.593   1.647  0.00  0.00    +0.006 C 
ATOM      4  C   UNL     1      -1.445  -2.908   1.062  0.00  0.00    -0.028 C 
ATOM      5  C   UNL     1      -1.408  -1.447   1.517  0.00  0.00    +0.002 C 
ATOM      6  C   UNL     1      -1.347  -1.390   3.045  0.00  0.00    +0.000 C 
ATOM      7  C   UNL     1      -0.087  -2.108   3.532  0.00  0.00    -0.002 C 
ATOM      8  C   UNL     1      -0.124  -3.569   3.077  0.00  0.00    -0.015 C 
ATOM      9  C   UNL     1      -0.185  -3.625   1.549  0.00  0.00    -0.065 C 
ENDBRANCH   1   9
BRANCH   1  10
ATOM     10  C   UNL     1      -0.496  -5.123  -0.327  0.00  0.00    -0.042 C 
BRANCH  10  11
ATOM     11  C   UNL     1      -0.721  -6.566  -0.700  0.00  0.00    -0.064 A 
ATOM     12  C   UNL     1      -1.742  -7.282  -0.100  0.00  0.00    +0.002 A 
ATOM     13  C   UNL     1      -1.954  -8.603  -0.437  0.00  0.00    +0.013 A 
ATOM     14  C   UNL     1      -1.135  -9.217  -1.386  0.00  0.00    +0.037 A 
ATOM     15  C   UNL     1      -0.103  -8.491  -1.984  0.00  0.00    +0.013 A 
ATOM     16  C   UNL     1       0.094  -7.169  -1.641  0.00  0.00    +0.002 A 
BRANCH  14  17
ATOM     17  C   UNL     1      -1.355 -10.632  -1.752  0.00  0.00    +0.242 C 
ATOM     18  O   UNL     1      -2.252 -11.264  -1.227  0.00  0.00    -0.270 OA
ATOM     19  N   UNL     1      -0.567 -11.221  -2.673  0.00  0.00    -0.325 N 
ATOM     20  H   UNL     1      -0.731 -12.274  -2.945  0.00  0.00    +0.145 HD
ATOM     21  H   UNL     1       0.241 -10.649  -3.152  0.00  0.00    +0.145 HD
ENDBRANCH  14  17
ENDBRANCH  10  11
ENDBRANCH   1  10
BRANCH   1  22
ATOM     22  C   UNL     1       1.031  -5.717   1.455  0.00  0.00    -0.042 C 
BRANCH  22  23
ATOM     23  C   UNL     1       1.024  -6.072   2.920  0.00  0.00    -0.064 A 
ATOM     24  C   UNL     1       2.178  -5.928   3.669  0.00  0.00    +0.002 A 
ATOM     25  C   UNL     1       2.176  -6.245   5.012  0.00  0.00    +0.013 A 
ATOM     26  C   UNL     1       1.010  -6.724   5.611  0.00  0.00    +0.037 A 
ATOM     27  C   UNL     1      -0.149  -6.873   4.848  0.00  0.00    +0.013 A 
ATOM     28  C   UNL     1      -0.136  -6.546   3.508  0.00  0.00    +0.002 A 
BRANCH  26  29
ATOM     29  C   UNL     1       1.003  -7.073   7.048  0.00  0.00    +0.242 C 
ATOM     30  O   UNL     1      -0.014  -7.490   7.567  0.00  0.00    -0.270 OA
ATOM     31  N   UNL     1       2.124  -6.928   7.782  0.00  0.00    -0.325 N 
ATOM     32  H   UNL     1       2.119  -7.187   8.851  0.00  0.00    +0.145 HD
ATOM     33  H   UNL     1       3.044  -6.550   7.312  0.00  0.00    +0.145 HD
ENDBRANCH  26  29
ENDBRANCH  22  23
ENDBRANCH   1  22
TORSDOF 7
