REMARK  Name = ZINC01900945
REMARK  9 active torsions:
REMARK  status: ('A' for Active; 'I' for Inactive)
REMARK    1  A    between atoms: C_1  and  O_2
REMARK    2  A    between atoms: O_2  and  C_3
REMARK    3  A    between atoms: C_6  and  C_9
REMARK    4  A    between atoms: C_12  and  S_21
REMARK    5  A    between atoms: N_13  and  C_14
REMARK    6  A    between atoms: S_21  and  C_22
REMARK    7  A    between atoms: C_22  and  C_23
REMARK    8  A    between atoms: N_25  and  N_26
REMARK    9  A    between atoms: C_27  and  C_28
REMARK                            x       y       z     vdW  Elec       q    Type
REMARK                         _______ _______ _______ _____ _____    ______ ____
ROOT
ATOM      1  C   UNL     1       2.576  -2.539   4.291  0.00  0.00    +0.169 A 
ATOM      2  N   UNL     1       3.385  -1.976   5.159  0.00  0.00    -0.128 NA
ATOM      3  N   UNL     1       3.795  -2.849   6.008  0.00  0.00    -0.122 NA
ATOM      4  C   UNL     1       3.275  -4.024   5.736  0.00  0.00    +0.197 A 
ATOM      5  N   UNL     1       2.475  -3.869   4.637  0.00  0.00    -0.270 N 
ENDROOT
BRANCH   5   6
ATOM      6  C   UNL     1       1.714  -4.856   3.995  0.00  0.00    +0.051 A 
ATOM      7  C   UNL     1       0.329  -4.767   3.980  0.00  0.00    +0.028 A 
ATOM      8  C   UNL     1      -0.418  -5.741   3.347  0.00  0.00    +0.022 A 
ATOM      9  C   UNL     1       0.213  -6.806   2.728  0.00  0.00    +0.041 A 
ATOM     10  C   UNL     1       1.594  -6.897   2.742  0.00  0.00    +0.022 A 
ATOM     11  C   UNL     1       2.346  -5.922   3.368  0.00  0.00    +0.028 A 
ATOM     12 CL   UNL     1      -0.728  -8.029   1.934  0.00  0.00    -0.084 Cl
ENDBRANCH   5   6
BRANCH   1  16
ATOM     13  C   UNL     1       0.626  -0.618   1.041  0.00  0.00    +0.120 A 
ATOM     14  C   UNL     1       1.202   0.142   2.050  0.00  0.00    +0.046 A 
ATOM     15  C   UNL     1       1.835  -0.477   3.107  0.00  0.00    +0.015 A 
ATOM     16  C   UNL     1       1.897  -1.871   3.161  0.00  0.00    +0.020 A 
ATOM     17  C   UNL     1       1.316  -2.632   2.144  0.00  0.00    +0.015 A 
ATOM     18  C   UNL     1       0.680  -2.005   1.094  0.00  0.00    +0.046 A 
BRANCH  13  20
ATOM     19  C   UNL     1      -0.017   1.425   0.010  0.00  0.00    +0.277 C 
ATOM     20  O   UNL     1       0.002  -0.004   0.002  0.00  0.00    -0.495 OA
ENDBRANCH  13  20
ENDBRANCH   1  16
BRANCH   4  21
ATOM     21  S   UNL     1       3.550  -5.520   6.625  0.00  0.00    -0.076 S 
BRANCH  21  22
ATOM     22  C   UNL     1       4.687  -5.038   7.954  0.00  0.00    +0.174 C 
BRANCH  22  23
ATOM     23  C   UNL     1       5.009  -6.242   8.802  0.00  0.00    +0.242 C 
ATOM     24  O   UNL     1       4.519  -7.319   8.536  0.00  0.00    -0.273 OA
ATOM     25  N   UNL     1       5.840  -6.121   9.856  0.00  0.00    -0.206 N 
ATOM     26  H   UNL     1       6.232  -5.260  10.069  0.00  0.00    +0.177 HD
BRANCH  25  27
ATOM     27  N   UNL     1       6.139  -7.240  10.644  0.00  0.00    -0.188 NA
ATOM     28  C   UNL     1       6.940  -7.124  11.658  0.00  0.00    +0.139 C 
BRANCH  28  29
ATOM     29  C   UNL     1       7.255  -8.302  12.488  0.00  0.00    +0.008 A 
ATOM     30  C   UNL     1       8.111  -8.180  13.584  0.00  0.00    +0.010 A 
ATOM     31  C   UNL     1       8.401  -9.286  14.356  0.00  0.00    +0.001 A 
ATOM     32  C   UNL     1       7.845 -10.515  14.046  0.00  0.00    +0.001 A 
ATOM     33  C   UNL     1       6.996 -10.645  12.962  0.00  0.00    +0.016 A 
ATOM     34  C   UNL     1       6.692  -9.545  12.184  0.00  0.00    +0.027 A 
ATOM     35 BR   UNL     1       5.525  -9.723  10.707  0.00  0.00    -0.050 Br
ENDBRANCH  28  29
ENDBRANCH  25  27
ENDBRANCH  22  23
ENDBRANCH  21  22
ENDBRANCH   4  21
TORSDOF 8
