REMARK  Name = ZINC48846508
REMARK  12 active torsions:
REMARK  status: ('A' for Active; 'I' for Inactive)
REMARK    1  A    between atoms: C_1  and  C_2
REMARK    2  A    between atoms: C_2  and  C_3
REMARK    3  A    between atoms: C_6  and  C_9
REMARK    4  A    between atoms: C_9  and  C_11
REMARK    5  A    between atoms: C_9  and  N_28
REMARK    6  A    between atoms: C_11  and  N_12
REMARK    7  A    between atoms: C_13  and  C_15
REMARK    8  A    between atoms: N_17  and  C_18
REMARK    9  A    between atoms: C_21  and  C_24
REMARK   10  A    between atoms: C_24  and  C_25
REMARK   11  A    between atoms: N_28  and  C_29
REMARK   12  A    between atoms: N_28  and  C_30
REMARK                            x       y       z     vdW  Elec       q    Type
REMARK                         _______ _______ _______ _____ _____    ______ ____
ROOT
ATOM      1  N   UNL     1      -7.990  -1.562  -0.423  0.00  0.00    -0.309 N 
ATOM      2  C   UNL     1      -9.105  -0.868  -0.722  0.00  0.00    +0.299 C 
ATOM      3  O   UNL     1      -9.056   0.340  -0.835  0.00  0.00    -0.265 OA
ATOM      4  H   UNL     1      -8.029  -2.528  -0.333  0.00  0.00    +0.149 HD
ENDROOT
BRANCH   2   5
ATOM      5  C   UNL     1     -10.402  -1.583  -0.916  0.00  0.00    +0.303 C 
ATOM      6  O   UNL     1     -10.451  -2.791  -0.804  0.00  0.00    -0.265 OA
ATOM      7  N   UNL     1     -11.517  -0.888  -1.215  0.00  0.00    -0.278 N 
ATOM      8  H   UNL     1     -11.493   0.081  -1.237  0.00  0.00    +0.155 HD
BRANCH   7   9
ATOM      9  C   UNL     1     -12.707  -1.565  -1.494  0.00  0.00    +0.034 A 
ATOM     10  C   UNL     1     -13.584  -1.065  -2.449  0.00  0.00    +0.023 A 
ATOM     11  C   UNL     1     -14.760  -1.736  -2.722  0.00  0.00    +0.006 A 
ATOM     12  C   UNL     1     -15.065  -2.903  -2.046  0.00  0.00    -0.039 A 
ATOM     13  C   UNL     1     -14.195  -3.403  -1.095  0.00  0.00    +0.006 A 
ATOM     14  C   UNL     1     -13.014  -2.741  -0.821  0.00  0.00    +0.023 A 
BRANCH  12  15
ATOM     15  C   UNL     1     -16.349  -3.632  -2.347  0.00  0.00    +0.130 C 
BRANCH  15  16
ATOM     16  C   UNL     1     -16.114  -4.630  -3.451  0.00  0.00    +0.215 C 
ATOM     17  O   UNL     1     -15.012  -4.738  -3.946  0.00  0.00    -0.276 OA
ATOM     18  N   UNL     1     -17.128  -5.402  -3.890  0.00  0.00    -0.329 N 
ATOM     19  H   UNL     1     -18.009  -5.315  -3.495  0.00  0.00    +0.145 HD
ATOM     20  H   UNL     1     -16.976  -6.044  -4.601  0.00  0.00    +0.145 HD
ENDBRANCH  15  16
ENDBRANCH  12  15
ENDBRANCH   7   9
ENDBRANCH   2   5
BRANCH   1  21
ATOM     21  C   UNL     1      -6.718  -0.860  -0.233  0.00  0.00    +0.094 C 
BRANCH  21  22
ATOM     22  C   UNL     1      -5.598  -1.881  -0.026  0.00  0.00    -0.021 C 
BRANCH  22  26
ATOM     23  C   UNL     1      -6.307  -4.067   3.574  0.00  0.00    -0.048 A 
ATOM     24  C   UNL     1      -6.636  -4.623   2.352  0.00  0.00    +0.004 A 
ATOM     25  C   UNL     1      -6.407  -3.916   1.187  0.00  0.00    +0.002 A 
ATOM     26  C   UNL     1      -5.848  -2.652   1.244  0.00  0.00    -0.059 A 
ATOM     27  C   UNL     1      -5.520  -2.096   2.466  0.00  0.00    +0.002 A 
ATOM     28  C   UNL     1      -5.753  -2.802   3.632  0.00  0.00    +0.004 A 
BRANCH  23  30
ATOM     29  C   UNL     1      -7.962  -4.526   5.363  0.00  0.00    +0.009 C 
ATOM     30  C   UNL     1      -6.557  -4.839   4.845  0.00  0.00    +0.032 C 
ENDBRANCH  23  30
ENDBRANCH  22  26
BRANCH  22  31
ATOM     31  N   UNL     1      -4.309  -1.182   0.071  0.00  0.00    +0.382 N 
ATOM     32  C   UNL     1      -3.224  -2.167   0.177  0.00  0.00    -0.096 C 
ATOM     33  C   UNL     1      -4.107  -0.358  -1.127  0.00  0.00    -0.096 C 
ATOM     34  H   UNL     1      -4.309  -0.592   0.890  0.00  0.00    -0.082 HD
ENDBRANCH  22  31
ENDBRANCH  21  22
ENDBRANCH   1  21
TORSDOF 9
