REMARK  Name = ZINC64683770
REMARK  9 active torsions:
REMARK  status: ('A' for Active; 'I' for Inactive)
REMARK    1  A    between atoms: C_1  and  C_2
REMARK    2  A    between atoms: C_7  and  N_8
REMARK    3  A    between atoms: C_9  and  S_14
REMARK    4  A    between atoms: S_14  and  C_15
REMARK    5  A    between atoms: C_15  and  C_16
REMARK    6  A    between atoms: N_18  and  CA_19
REMARK    7  A    between atoms: CA_19  and  CB_21
REMARK    8  A    between atoms: CA_19  and  C_31
REMARK    9  A    between atoms: CB_21  and  CG_22
REMARK                            x       y       z     vdW  Elec       q    Type
REMARK                         _______ _______ _______ _____ _____    ______ ____
ROOT
ATOM      1  C   UNK A   0       0.989  -3.559   5.169  0.00  0.00    +0.224 C 
ATOM      2  O   UNK A   0       0.048  -4.325   5.167  0.00  0.00    -0.275 OA
ATOM      3  N   TRP A   1       2.187  -3.965   5.633  0.00  0.00    -0.301 N 
ATOM      4  H   TRP A   1       2.939  -3.353   5.634  0.00  0.00    +0.150 HD
ENDROOT
BRANCH   1   5
ATOM      5  C   UNK A   0       0.818  -2.154   4.652  0.00  0.00    +0.167 C 
BRANCH   5   6
ATOM      6  S   UNK A   0      -0.895  -1.916   4.103  0.00  0.00    -0.114 S 
BRANCH   6   8
ATOM      7  N   UNK A   0       0.025  -0.016   2.415  0.00  0.00    -0.254 N 
ATOM      8  C   UNK A   0      -0.934  -0.199   3.518  0.00  0.00    +0.203 C 
ATOM      9  N   UNK A   0      -0.490   0.720   4.594  0.00  0.00    -0.320 NA
ATOM     10  N   UNK A   0       0.928   0.945   4.263  0.00  0.00    +0.411 N 
ATOM     11  N   UNK A   0       0.926   0.950   2.796  0.00  0.00    -0.265 NA
ATOM     12  H   UNK A   0      -1.008   1.585   4.567  0.00  0.00    +0.106 HD
ATOM     13  H   UNK A   0       1.244   1.832   4.625  0.00  0.00    -0.031 HD
ATOM     14  H   UNK A   0       0.658   1.855   2.441  0.00  0.00    +0.125 HD
ATOM     15  H   UNK A   0       1.500   0.191   4.613  0.00  0.00    -0.031 HD
BRANCH   7  22
ATOM     16  C   UNK A   0      -0.018   1.503   0.010  0.00  0.00    +0.046 C 
ATOM     17  C   UNK A   0       0.002  -0.004   0.002  0.00  0.00    -0.028 A 
ATOM     18  C   UNK A   0       0.006  -0.689  -1.198  0.00  0.00    +0.005 A 
ATOM     19  C   UNK A   0       0.024  -2.071  -1.206  0.00  0.00    +0.000 A 
ATOM     20  C   UNK A   0       0.039  -2.773  -0.014  0.00  0.00    +0.002 A 
ATOM     21  C   UNK A   0       0.036  -2.095   1.188  0.00  0.00    +0.025 A 
ATOM     22  C   UNK A   0       0.023  -0.706   1.200  0.00  0.00    +0.048 A 
ENDBRANCH   7  22
ENDBRANCH   6   8
ENDBRANCH   5   6
ENDBRANCH   1   5
BRANCH   3  23
ATOM     23  CA  TRP A   1       2.353  -5.331   6.135  0.00  0.00    +0.190 C 
BRANCH  23  24
ATOM     24  C   TRP A   1       1.935  -5.389   7.582  0.00  0.00    +0.376 C 
ATOM     25  O   TRP A   1       1.536  -4.382   8.142  0.00  0.00    -0.244 OA
ATOM     26  OXT TRP A   1       1.997  -6.442   8.193  0.00  0.00    -0.244 OA
ENDBRANCH  23  24
BRANCH  23  27
ATOM     27  CB  TRP A   1       3.821  -5.745   6.012  0.00  0.00    +0.067 C 
BRANCH  27  28
ATOM     28  CG  TRP A   1       4.205  -5.807   4.556  0.00  0.00    -0.039 C 
ATOM     29  CD2 TRP A   1       4.798  -4.832   3.829  0.00  0.00    -0.001 A 
ATOM     30  CE3 TRP A   1       5.247  -3.476   4.164  0.00  0.00    +0.010 A 
ATOM     31  CZ3 TRP A   1       5.820  -2.718   3.202  0.00  0.00    +0.001 A 
ATOM     32  CH2 TRP A   1       5.995  -3.194   1.895  0.00  0.00    +0.002 A 
ATOM     33  CZ2 TRP A   1       5.609  -4.429   1.512  0.00  0.00    +0.026 A 
ATOM     34  CE2 TRP A   1       4.996  -5.312   2.443  0.00  0.00    +0.043 A 
ATOM     35  NE1 TRP A   1       4.541  -6.535   2.317  0.00  0.00    -0.380 N 
ATOM     36  CD1 TRP A   1       4.009  -6.973   3.612  0.00  0.00    +0.144 C 
ATOM     37  HE1 TRP A   1       4.558  -7.064   1.504  0.00  0.00    +0.160 HD
ENDBRANCH  27  28
ENDBRANCH  23  27
ENDBRANCH   3  23
TORSDOF 8
