REMARK  Name = ZINC15913992
REMARK  9 active torsions:
REMARK  status: ('A' for Active; 'I' for Inactive)
REMARK    1  A    between atoms: C_1  and  C_2
REMARK    2  A    between atoms: C_3  and  C_20
REMARK    3  A    between atoms: C_4  and  C_10
REMARK    4  A    between atoms: C_15  and  O_16
REMARK    5  A    between atoms: O_16  and  C_17
REMARK    6  A    between atoms: C_17  and  C_18
REMARK    7  A    between atoms: C_17  and  C_19
REMARK    8  A    between atoms: N_22  and  C_23
REMARK    9  A    between atoms: C_27  and  N_29
REMARK                            x       y       z     vdW  Elec       q    Type
REMARK                         _______ _______ _______ _____ _____    ______ ____
ROOT
ATOM      1  C   UNL     1      -1.178   6.366   2.825  0.00  0.00    +0.061 C 
ATOM      2  C   UNL     1      -1.588   5.049   3.431  0.00  0.00    +0.017 C 
ATOM      3  C   UNL     1      -1.291   3.901   2.786  0.00  0.00    +0.056 C 
ATOM      4  C   UNL     1      -1.722   2.598   3.430  0.00  0.00    +0.143 C 
ATOM      5  N   UNL     1      -2.434   2.693   4.715  0.00  0.00    -0.315 N 
ATOM      6  C   UNL     1      -2.658   3.916   5.236  0.00  0.00    +0.135 C 
ATOM      7  S   UNL     1      -3.484   4.041   6.730  0.00  0.00    -0.019 S 
ATOM      8  N   UNL     1      -2.254   5.036   4.623  0.00  0.00    -0.300 N 
ATOM      9  H   UNL     1      -2.736   1.894   5.176  0.00  0.00    +0.149 HD
ATOM     10  H   UNL     1      -2.445   5.885   5.050  0.00  0.00    +0.154 HD
ENDROOT
BRANCH   4  11
ATOM     11  C   UNL     1      -0.491   1.755   3.642  0.00  0.00    +0.019 A 
ATOM     12  C   UNL     1       0.750   2.355   3.736  0.00  0.00    +0.009 A 
ATOM     13  C   UNL     1       1.880   1.581   3.924  0.00  0.00    +0.001 A 
ATOM     14  C   UNL     1       1.771   0.207   4.025  0.00  0.00    +0.004 A 
ATOM     15  C   UNL     1       0.532  -0.397   3.938  0.00  0.00    +0.046 A 
ATOM     16  C   UNL     1      -0.604   0.377   3.748  0.00  0.00    +0.126 A 
BRANCH  16  17
ATOM     17  O   UNL     1      -1.824  -0.215   3.662  0.00  0.00    -0.489 OA
BRANCH  17  18
ATOM     18  C   UNL     1      -1.859  -1.642   3.732  0.00  0.00    +0.167 C 
ATOM     19  C   UNL     1      -1.594  -2.227   2.344  0.00  0.00    +0.051 C 
ATOM     20  C   UNL     1      -3.237  -2.095   4.222  0.00  0.00    +0.051 C 
ENDBRANCH  17  18
ENDBRANCH  16  17
ENDBRANCH   4  11
BRANCH   3  21
ATOM     21  C   UNL     1      -0.600   3.913   1.550  0.00  0.00    +0.248 C 
ATOM     22  O   UNL     1      -0.171   4.961   1.103  0.00  0.00    -0.270 OA
ATOM     23  N   UNL     1      -0.417   2.764   0.869  0.00  0.00    -0.282 N 
ATOM     24  H   UNL     1      -0.851   1.949   1.167  0.00  0.00    +0.155 HD
BRANCH  23  25
ATOM     25  C   UNL     1       0.397   2.748  -0.269  0.00  0.00    +0.036 A 
ATOM     26  C   UNL     1       1.483   3.609  -0.359  0.00  0.00    +0.023 A 
ATOM     27  C   UNL     1       2.287   3.587  -1.482  0.00  0.00    +0.004 A 
ATOM     28  C   UNL     1       2.006   2.716  -2.519  0.00  0.00    +0.033 A 
ATOM     29  C   UNL     1       0.922   1.862  -2.434  0.00  0.00    +0.128 A 
ATOM     30  C   UNL     1       0.117   1.875  -1.312  0.00  0.00    +0.056 A 
BRANCH  29  31
ATOM     31  N   UNL     1       0.625   0.932  -3.546  0.00  0.00    +0.056 N 
ATOM     32  O   UNL     1      -0.382   0.247  -3.515  0.00  0.00    -0.126 OA
ATOM     33  O   UNL     1       1.387   0.852  -4.493  0.00  0.00    -0.126 OA
ENDBRANCH  29  31
ENDBRANCH  23  25
ENDBRANCH   3  21
TORSDOF 6
