REMARK  Name = ZINC05946907
REMARK  10 active torsions:
REMARK  status: ('A' for Active; 'I' for Inactive)
REMARK    1  A    between atoms: C_1  and  C_2
REMARK    2  A    between atoms: C_2  and  C_3
REMARK    3  A    between atoms: C_3  and  C_4
REMARK    4  A    between atoms: C_10  and  N_14
REMARK    5  A    between atoms: N_17  and  C_20
REMARK    6  A    between atoms: C_23  and  N_35
REMARK    7  A    between atoms: C_24  and  N_26
REMARK    8  A    between atoms: N_26  and  C_27
REMARK    9  A    between atoms: C_27  and  C_28
REMARK   10  A    between atoms: C_28  and  C_29
REMARK                            x       y       z     vdW  Elec       q    Type
REMARK                         _______ _______ _______ _____ _____    ______ ____
ROOT
ATOM      1  N   UNL     1       0.976  -8.160   1.565  0.00  0.00    -0.313 N 
ATOM      2  C   UNL     1       1.864  -8.610   2.645  0.00  0.00    +0.125 C 
ATOM      3  C   UNL     1       1.073  -9.537   3.577  0.00  0.00    +0.124 C 
ATOM      4  N   UNL     1       0.384 -10.546   2.760  0.00  0.00    -0.327 N 
ATOM      5  C   UNL     1      -0.505 -10.096   1.679  0.00  0.00    +0.124 C 
ATOM      6  C   UNL     1       0.282  -9.169   0.752  0.00  0.00    +0.125 C 
ENDROOT
BRANCH   1  13
ATOM      7  C   UNL     1      -1.117  -2.534  -0.006  0.00  0.00    +0.102 A 
ATOM      8  N   UNL     1       0.039  -2.816   0.511  0.00  0.00    -0.159 NA
ATOM      9  N   UNL     1       0.402  -4.123   0.824  0.00  0.00    -0.173 N 
ATOM     10  C   UNL     1       1.581  -4.543   1.368  0.00  0.00    +0.277 A 
ATOM     11  O   UNL     1       2.455  -3.730   1.632  0.00  0.00    -0.266 OA
ATOM     12  C   UNL     1       1.790  -5.892   1.623  0.00  0.00    +0.113 A 
ATOM     13  C   UNL     1       0.791  -6.811   1.321  0.00  0.00    +0.106 A 
ATOM     14  N   UNL     1      -0.351  -6.364   0.789  0.00  0.00    -0.322 N 
ATOM     15  C   UNL     1      -0.530  -5.089   0.556  0.00  0.00    +0.178 A 
ATOM     16  S   UNL     1      -1.880  -4.145  -0.116  0.00  0.00    -0.035 S 
ATOM     17  H   UNL     1      -1.057  -6.993   0.572  0.00  0.00    +0.169 HD
BRANCH   7  18
ATOM     18  C   UNL     1      -1.675  -1.192  -0.404  0.00  0.00    +0.064 C 
BRANCH  18  20
ATOM     19  C   UNL     1      -1.206   1.259  -0.520  0.00  0.00    +0.004 C 
ATOM     20  C   UNL     1      -0.640  -0.104  -0.116  0.00  0.00    +0.003 C 
ENDBRANCH  18  20
ENDBRANCH   7  18
ENDBRANCH   1  13
BRANCH   4  21
ATOM     21  C   UNL     1       0.570 -11.908   3.007  0.00  0.00    +0.032 A 
ATOM     22  C   UNL     1       1.313 -12.320   4.107  0.00  0.00    +0.025 A 
ATOM     23  C   UNL     1       1.498 -13.667   4.351  0.00  0.00    +0.036 A 
ATOM     24  C   UNL     1       0.946 -14.609   3.504  0.00  0.00    +0.147 A 
ATOM     25  C   UNL     1       0.202 -14.203   2.403  0.00  0.00    +0.059 A 
ATOM     26  C   UNL     1       0.010 -12.850   2.157  0.00  0.00    +0.048 A 
BRANCH  24  27
ATOM     27  N   UNL     1       1.147 -16.051   3.769  0.00  0.00    +0.058 N 
ATOM     28  O   UNL     1       1.126 -16.465   4.905  0.00  0.00    -0.126 OA
ATOM     29  O   UNL     1       1.333 -16.814   2.850  0.00  0.00    -0.126 OA
ENDBRANCH  24  27
BRANCH  25  30
ATOM     30  N   UNL     1      -0.356 -15.155   1.546  0.00  0.00    -0.342 N 
ATOM     31  H   UNL     1      -0.171 -16.097   1.683  0.00  0.00    +0.146 HD
BRANCH  30  32
ATOM     32  C   UNL     1      -1.220 -14.730   0.442  0.00  0.00    +0.106 C 
BRANCH  32  33
ATOM     33  C   UNL     1      -1.694 -15.960  -0.336  0.00  0.00    +0.054 C 
BRANCH  33  34
ATOM     34  C   UNL     1      -2.583 -15.523  -1.472  0.00  0.00    -0.046 A 
ATOM     35  C   UNL     1      -3.946 -15.401  -1.276  0.00  0.00    +0.004 A 
ATOM     36  C   UNL     1      -4.761 -15.000  -2.317  0.00  0.00    +0.000 A 
ATOM     37  C   UNL     1      -4.214 -14.721  -3.556  0.00  0.00    +0.000 A 
ATOM     38  C   UNL     1      -2.851 -14.842  -3.752  0.00  0.00    +0.000 A 
ATOM     39  C   UNL     1      -2.035 -15.239  -2.708  0.00  0.00    +0.004 A 
ENDBRANCH  33  34
ENDBRANCH  32  33
ENDBRANCH  30  32
ENDBRANCH  25  30
ENDBRANCH   4  21
TORSDOF 9
