REMARK  Name = ZINC20504567
REMARK  15 active torsions:
REMARK  status: ('A' for Active; 'I' for Inactive)
REMARK    1  A    between atoms: C_1  and  C_2
REMARK    2  A    between atoms: C_2  and  N_3
REMARK    3  A    between atoms: N_3  and  C_4
REMARK    4  A    between atoms: C_4  and  C_5
REMARK    5  A    between atoms: C_6  and  C_8
REMARK    6  A    between atoms: C_8  and  C_10
REMARK    7  A    between atoms: C_8  and  C_11
REMARK    8  A    between atoms: C_15  and  C_37
REMARK    9  A    between atoms: N_22  and  C_23
REMARK   10  A    between atoms: C_23  and  C_25
REMARK   11  A    between atoms: C_25  and  N_26
REMARK   12  A    between atoms: N_26  and  C_27
REMARK   13  A    between atoms: N_26  and  C_28
REMARK   14  A    between atoms: C_29  and  C_36
REMARK   15  A    between atoms: C_33  and  O_35
REMARK                            x       y       z     vdW  Elec       q    Type
REMARK                         _______ _______ _______ _____ _____    ______ ____
ROOT
ATOM      1  C   UNL     1       1.024  -1.257   4.036  0.00  0.00    +0.029 C 
ATOM      2  C   UNL     1       0.409  -0.575   5.262  0.00  0.00    +0.007 C 
ATOM      3  C   UNL     1       1.079   0.784   5.455  0.00  0.00    +0.008 C 
ATOM      4  C   UNL     1       0.846   1.671   4.228  0.00  0.00    -0.022 C 
ATOM      5  C   UNL     1       1.613   2.990   4.451  0.00  0.00    +0.051 C 
ATOM      6  C   UNL     1       1.699   3.726   3.161  0.00  0.00    +0.013 A 
ATOM      7  C   UNL     1       1.448   3.248   1.915  0.00  0.00    +0.031 A 
ATOM      8  N   UNL     1       1.600   4.116   0.916  0.00  0.00    -0.339 N 
ATOM      9  C   UNL     1       1.969   5.363   1.120  0.00  0.00    +0.163 A 
ATOM     10  S   UNL     1       2.144   5.413   2.849  0.00  0.00    -0.057 S 
ATOM     11  N   UNL     1       2.169   6.378   0.192  0.00  0.00    -0.158 NA
ATOM     12  C   UNL     1       1.019   1.802   1.723  0.00  0.00    +0.039 C 
ATOM     13  C   UNL     1       1.389   0.988   2.970  0.00  0.00    +0.033 C 
ATOM     14  C   UNL     1       0.763  -0.402   2.814  0.00  0.00    +0.123 C 
ATOM     15  C   UNL     1       1.732   1.216   0.502  0.00  0.00    +0.014 C 
ATOM     16  C   UNL     1      -0.648   1.957   4.064  0.00  0.00    +0.012 C 
ATOM     17  H   UNL     1       1.415   3.799  -0.121  0.00  0.00    +0.167 HD
ENDROOT
BRANCH   1  18
ATOM     18  C   UNL     1       0.392  -2.638   3.846  0.00  0.00    +0.078 C 
ATOM     19  C   UNL     1      -1.130  -2.497   3.776  0.00  0.00    +0.017 C 
BRANCH  18  21
ATOM     20  N   UNL     1       1.643  -4.527   4.838  0.00  0.00    -0.302 N 
ATOM     21  C   UNL     1       0.761  -3.523   5.009  0.00  0.00    +0.219 C 
ATOM     22  O   UNL     1       0.263  -3.332   6.098  0.00  0.00    -0.275 OA
BRANCH  20  24
ATOM     23  C   UNL     1       0.950  -6.637   5.862  0.00  0.00    +0.024 C 
ATOM     24  C   UNL     1       1.919  -5.455   5.937  0.00  0.00    +0.104 C 
ENDBRANCH  20  24
BRANCH  20  25
ATOM     25  C   UNL     1       2.327  -4.690   3.552  0.00  0.00    +0.104 C 
ATOM     26  C   UNL     1       3.555  -3.779   3.509  0.00  0.00    +0.024 C 
ENDBRANCH  20  25
ENDBRANCH  18  21
ENDBRANCH   1  18
BRANCH  11  27
ATOM     27  C   UNL     1       2.551   7.603   0.605  0.00  0.00    +0.222 C 
ATOM     28  O   UNL     1       2.721   7.819   1.786  0.00  0.00    -0.276 OA
BRANCH  27  29
ATOM     29  C   UNL     1       2.767   8.704  -0.401  0.00  0.00    +0.020 C 
BRANCH  29  30
ATOM     30  N   UNL     1       3.176   9.931   0.295  0.00  0.00    +0.382 N 
ATOM     31  C   UNL     1       3.624  10.954  -0.659  0.00  0.00    -0.096 C 
ATOM     32  C   UNL     1       2.091  10.441   1.144  0.00  0.00    -0.096 C 
ATOM     33  H   UNL     1       4.026   9.682   0.947  0.00  0.00    -0.082 HD
ENDBRANCH  29  30
ENDBRANCH  27  29
ENDBRANCH  11  27
BRANCH  14  34
ATOM     34  O   UNL     1       1.310  -1.040   1.659  0.00  0.00    -0.391 OA
ATOM     35  H   UNL     1       1.217  -0.564   0.671  0.00  0.00    +0.210 HD
ENDBRANCH  14  34
TORSDOF 8
