REMARK  Name = ZINC36301885
REMARK  18 active torsions:
REMARK  status: ('A' for Active; 'I' for Inactive)
REMARK    1  A    between atoms: C_1  and  C_2
REMARK    2  A    between atoms: C_2  and  C_3
REMARK    3  A    between atoms: C_3  and  N_4
REMARK    4  A    between atoms: N_4  and  C_5
REMARK    5  A    between atoms: N_4  and  C_28
REMARK    6  A    between atoms: C_5  and  C_6
REMARK    7  A    between atoms: C_7  and  C_27
REMARK    8  A    between atoms: N_9  and  C_20
REMARK    9  A    between atoms: C_10  and  O_11
REMARK   10  A    between atoms: O_11  and  C_12
REMARK   11  A    between atoms: C_17  and  O_18
REMARK   12  A    between atoms: O_18  and  C_19
REMARK   13  A    between atoms: C_28  and  C_29
REMARK   14  A    between atoms: C_29  and  C_31
REMARK   15  A    between atoms: C_29  and  O_36
REMARK   16  A    between atoms: C_31  and  O_32
REMARK   17  A    between atoms: O_32  and  C_33
REMARK   18  A    between atoms: C_33  and  C_34
REMARK                            x       y       z     vdW  Elec       q    Type
REMARK                         _______ _______ _______ _____ _____    ______ ____
ROOT
ATOM      1  C   UNL     1       0.212  -1.810  -1.534  0.00  0.00    +0.021 A 
ATOM      2  C   UNL     1      -1.073  -2.257  -1.855  0.00  0.00    +0.065 A 
ATOM      3  N   UNL     1      -1.619  -1.397  -2.676  0.00  0.00    -0.168 NA
ATOM      4  N   UNL     1      -0.700  -0.365  -2.910  0.00  0.00    -0.200 N 
ATOM      5  C   UNL     1       0.422  -0.637  -2.191  0.00  0.00    +0.225 A 
ATOM      6  C   UNL     1      -1.720  -3.518  -1.342  0.00  0.00    +0.068 C 
ENDROOT
BRANCH   4   7
ATOM      7  C   UNL     1      -0.903   0.750  -3.735  0.00  0.00    +0.069 A 
ATOM      8  C   UNL     1      -0.426   1.996  -3.349  0.00  0.00    +0.029 A 
ATOM      9  C   UNL     1      -0.627   3.093  -4.163  0.00  0.00    +0.022 A 
ATOM     10  C   UNL     1      -1.303   2.952  -5.362  0.00  0.00    +0.041 A 
ATOM     11  C   UNL     1      -1.780   1.712  -5.749  0.00  0.00    +0.022 A 
ATOM     12  C   UNL     1      -1.576   0.610  -4.941  0.00  0.00    +0.029 A 
ATOM     13 CL   UNL     1      -1.555   4.334  -6.383  0.00  0.00    -0.084 Cl
ENDBRANCH   4   7
BRANCH   1  14
ATOM     14  C   UNL     1       1.189  -2.500  -0.619  0.00  0.00    -0.036 C 
BRANCH  14  15
ATOM     15  N   UNL     1       1.085  -1.928   0.730  0.00  0.00    +0.384 N 
ATOM     16  H   UNL     1       1.195  -0.926   0.679  0.00  0.00    -0.081 HD
BRANCH  15  17
ATOM     17  C   UNL     1       2.138  -2.493   1.585  0.00  0.00    -0.079 C 
BRANCH  17  19
ATOM     18  C   UNL     1       4.603  -2.593   1.978  0.00  0.00    +0.002 C 
ATOM     19  C   UNL     1       3.510  -2.118   1.019  0.00  0.00    -0.022 C 
ENDBRANCH  17  19
ENDBRANCH  15  17
BRANCH  15  20
ATOM     20  C   UNL     1      -0.231  -2.248   1.298  0.00  0.00    -0.044 C 
BRANCH  20  21
ATOM     21  C   UNL     1      -0.419  -1.486   2.612  0.00  0.00    +0.124 C 
BRANCH  21  22
ATOM     22  O   UNL     1       0.482  -2.001   3.594  0.00  0.00    -0.391 OA
ATOM     23  H   UNL     1       0.357  -2.940   3.788  0.00  0.00    +0.210 HD
ENDBRANCH  21  22
BRANCH  21  24
ATOM     24  C   UNL     1      -1.859  -1.659   3.100  0.00  0.00    +0.189 C 
BRANCH  24  25
ATOM     25  O   UNL     1      -2.067  -0.855   4.263  0.00  0.00    -0.373 OA
BRANCH  25  26
ATOM     26  C   UNL     1      -3.387  -0.943   4.802  0.00  0.00    +0.186 C 
BRANCH  26  27
ATOM     27  C   UNL     1      -3.494  -0.060   6.018  0.00  0.00    -0.007 C 
ATOM     28  C   UNL     1      -4.537   0.717   6.174  0.00  0.00    +0.006 C 
ENDBRANCH  26  27
ENDBRANCH  25  26
ENDBRANCH  24  25
ENDBRANCH  21  24
ENDBRANCH  20  21
ENDBRANCH  15  20
ENDBRANCH  14  15
ENDBRANCH   1  14
BRANCH   5  29
ATOM     29  O   UNL     1       1.546   0.121  -2.141  0.00  0.00    -0.434 OA
BRANCH  29  30
ATOM     30  C   UNL     1       2.482  -0.060  -3.111  0.00  0.00    +0.172 A 
ATOM     31  C   UNL     1       2.228  -0.917  -4.169  0.00  0.00    +0.050 A 
ATOM     32  C   UNL     1       3.180  -1.099  -5.155  0.00  0.00    +0.004 A 
ATOM     33  C   UNL     1       4.387  -0.427  -5.087  0.00  0.00    +0.004 A 
ATOM     34  C   UNL     1       4.647   0.429  -4.034  0.00  0.00    +0.049 A 
ATOM     35  C   UNL     1       3.694   0.621  -3.045  0.00  0.00    +0.162 A 
BRANCH  35  36
ATOM     36  O   UNL     1       3.946   1.467  -2.011  0.00  0.00    -0.491 OA
ATOM     37  C   UNL     1       5.212   2.131  -2.010  0.00  0.00    +0.277 C 
ENDBRANCH  35  36
ENDBRANCH  29  30
ENDBRANCH   5  29
TORSDOF 15
