REMARK  Name = ZINC21260652
REMARK  13 active torsions:
REMARK  status: ('A' for Active; 'I' for Inactive)
REMARK    1  A    between atoms: C_1  and  C_2
REMARK    2  A    between atoms: C_2  and  C_3
REMARK    3  A    between atoms: C_3  and  O_4
REMARK    4  A    between atoms: O_4  and  C_5
REMARK    5  A    between atoms: C_6  and  C_13
REMARK    6  A    between atoms: C_10  and  O_11
REMARK    7  A    between atoms: O_11  and  C_12
REMARK    8  A    between atoms: C_18  and  C_23
REMARK    9  A    between atoms: C_26  and  O_31
REMARK   10  A    between atoms: C_27  and  O_29
REMARK   11  A    between atoms: O_29  and  C_30
REMARK   12  A    between atoms: O_31  and  C_32
REMARK   13  A    between atoms: C_32  and  C_33
REMARK                            x       y       z     vdW  Elec       q    Type
REMARK                         _______ _______ _______ _____ _____    ______ ____
ROOT
ATOM      1  C   UNL     1      -1.263   1.665   0.010  0.00  0.00    +0.140 C 
ATOM      2  C   UNL     1      -1.679   2.437   1.244  0.00  0.00    +0.037 C 
ATOM      3  C   UNL     1      -0.871   2.809   2.252  0.00  0.00    +0.017 C 
ATOM      4  C   UNL     1      -1.425   3.579   3.439  0.00  0.00    +0.059 C 
ATOM      5  C   UNL     1      -2.575   4.478   2.986  0.00  0.00    +0.032 C 
ATOM      6  C   UNL     1      -3.659   3.578   2.382  0.00  0.00    +0.088 C 
ATOM      7  C   UNL     1      -3.052   2.778   1.270  0.00  0.00    +0.163 C 
ATOM      8  O   UNL     1      -3.764   2.408   0.356  0.00  0.00    -0.292 OA
ATOM      9  N   UNL     1       0.457   2.535   2.320  0.00  0.00    -0.316 N 
ATOM     10  C   UNL     1       1.359   2.707   1.277  0.00  0.00    +0.052 A 
ATOM     11  C   UNL     1       2.428   3.582   1.362  0.00  0.00    +0.025 A 
ATOM     12  C   UNL     1       3.356   3.620   0.334  0.00  0.00    +0.002 A 
ATOM     13  C   UNL     1       3.214   2.793  -0.765  0.00  0.00    +0.002 A 
ATOM     14  C   UNL     1       2.133   1.933  -0.861  0.00  0.00    +0.025 A 
ATOM     15  C   UNL     1       1.194   1.906   0.157  0.00  0.00    +0.049 A 
ATOM     16  N   UNL     1       0.064   1.092   0.085  0.00  0.00    -0.331 N 
ATOM     17  H   UNL     1       0.891   2.146   3.253  0.00  0.00    +0.152 HD
ATOM     18  H   UNL     1       0.193  -0.000   0.086  0.00  0.00    +0.147 HD
ENDROOT
BRANCH   1  20
ATOM     19  C   UNL     1      -1.432   2.070  -2.457  0.00  0.00    +0.167 A 
ATOM     20  C   UNL     1      -1.318   2.591  -1.178  0.00  0.00    +0.023 A 
ATOM     21  C   UNL     1      -1.259   3.959  -0.991  0.00  0.00    +0.009 A 
ATOM     22  C   UNL     1      -1.304   4.811  -2.079  0.00  0.00    +0.004 A 
ATOM     23  C   UNL     1      -1.418   4.298  -3.358  0.00  0.00    +0.049 A 
ATOM     24  C   UNL     1      -1.483   2.928  -3.551  0.00  0.00    +0.162 A 
BRANCH  24  25
ATOM     25  O   UNL     1      -1.596   2.422  -4.809  0.00  0.00    -0.491 OA
ATOM     26  C   UNL     1      -1.641   3.361  -5.884  0.00  0.00    +0.277 C 
ENDBRANCH  24  25
BRANCH  19  27
ATOM     27  O   UNL     1      -1.495   0.724  -2.642  0.00  0.00    -0.488 OA
BRANCH  27  28
ATOM     28  C   UNL     1      -2.796   0.145  -2.752  0.00  0.00    +0.229 C 
BRANCH  28  30
ATOM     29  C   UNL     1      -4.067  -2.006  -2.825  0.00  0.00    +0.007 C 
ATOM     30  C   UNL     1      -2.671  -1.378  -2.830  0.00  0.00    +0.038 C 
ENDBRANCH  28  30
ENDBRANCH  27  28
ENDBRANCH  19  27
ENDBRANCH   1  20
BRANCH   5  31
ATOM     31  C   UNL     1      -3.132   5.229   4.167  0.00  0.00    -0.040 A 
ATOM     32  C   UNL     1      -3.659   4.534   5.240  0.00  0.00    +0.008 A 
ATOM     33  C   UNL     1      -4.171   5.219   6.327  0.00  0.00    +0.050 A 
ATOM     34  C   UNL     1      -4.157   6.604   6.342  0.00  0.00    +0.162 A 
ATOM     35  C   UNL     1      -3.626   7.303   5.262  0.00  0.00    +0.162 A 
ATOM     36  C   UNL     1      -3.110   6.611   4.179  0.00  0.00    +0.053 A 
BRANCH  35  37
ATOM     37  O   UNL     1      -3.610   8.663   5.272  0.00  0.00    -0.491 OA
ATOM     38  C   UNL     1      -3.050   9.314   4.130  0.00  0.00    +0.277 C 
ENDBRANCH  35  37
BRANCH  34  39
ATOM     39  O   UNL     1      -4.659   7.279   7.410  0.00  0.00    -0.489 OA
BRANCH  39  40
ATOM     40  C   UNL     1      -5.187   6.496   8.483  0.00  0.00    +0.226 C 
ATOM     41  C   UNL     1      -5.702   7.423   9.586  0.00  0.00    +0.048 C 
ENDBRANCH  39  40
ENDBRANCH  34  39
ENDBRANCH   5  31
TORSDOF 9
