REMARK  Name = ZINC14157614
REMARK  6 active torsions:
REMARK  status: ('A' for Active; 'I' for Inactive)
REMARK    1  A    between atoms: C_1  and  C_2
REMARK    2  A    between atoms: C_4  and  C_32
REMARK    3  A    between atoms: N_10  and  C_11
REMARK    4  A    between atoms: N_13  and  C_14
REMARK    5  A    between atoms: N_24  and  C_25
REMARK    6  A    between atoms: C_25  and  C_26
REMARK                            x       y       z     vdW  Elec       q    Type
REMARK                         _______ _______ _______ _____ _____    ______ ____
ROOT
ATOM      1  C   UNL     1      -0.679   0.765  -1.187  0.00  0.00    +0.066 C 
ATOM      2  C   UNL     1      -0.763  -0.233  -2.313  0.00  0.00    +0.044 A 
ATOM      3  C   UNL     1      -1.991  -0.736  -2.714  0.00  0.00    +0.046 A 
ATOM      4  C   UNL     1      -2.023  -1.652  -3.754  0.00  0.00    +0.044 A 
ATOM      5  N   UNL     1      -0.889  -2.017  -4.328  0.00  0.00    -0.217 NA
ATOM      6  C   UNL     1       0.268  -1.516  -3.921  0.00  0.00    +0.231 A 
ATOM      7  N   UNL     1       0.334  -0.643  -2.928  0.00  0.00    -0.217 NA
ATOM      8  N   UNL     1       1.439  -1.921  -4.547  0.00  0.00    -0.297 N 
ATOM      9  C   UNL     1       2.627  -1.323  -4.228  0.00  0.00    +0.198 C 
ATOM     10  N   UNL     1       3.693  -2.063  -3.974  0.00  0.00    -0.130 NA
ATOM     11  N   UNL     1       2.712   0.037  -4.171  0.00  0.00    -0.355 N 
ATOM     12  C   UNL     1      -3.335  -2.227  -4.223  0.00  0.00    +0.066 C 
ATOM     13  H   UNL     1       1.412  -2.724  -5.299  0.00  0.00    +0.171 HD
ATOM     14  H   UNL     1       3.424   0.516  -3.483  0.00  0.00    +0.162 HD
ENDROOT
BRANCH  10  15
ATOM     15  C   UNL     1       3.603  -3.401  -4.000  0.00  0.00    +0.327 C 
ATOM     16  O   UNL     1       2.582  -3.934  -4.397  0.00  0.00    -0.251 OA
ATOM     17  N   UNL     1       4.641  -4.155  -3.589  0.00  0.00    -0.292 N 
ATOM     18  H   UNL     1       5.563  -3.673  -3.231  0.00  0.00    +0.151 HD
BRANCH  17  19
ATOM     19  C   UNL     1       4.542  -5.616  -3.618  0.00  0.00    +0.037 C 
ATOM     20  C   UNL     1       3.382  -6.066  -2.727  0.00  0.00    +0.029 C 
ATOM     21  C   UNL     1       3.279  -7.593  -2.758  0.00  0.00    -0.008 C 
ATOM     22  C   UNL     1       4.584  -8.203  -2.243  0.00  0.00    +0.007 C 
ATOM     23  C   UNL     1       5.744  -7.752  -3.133  0.00  0.00    -0.008 C 
ATOM     24  C   UNL     1       5.847  -6.226  -3.103  0.00  0.00    +0.029 C 
ATOM     25  C   UNL     1       5.495  -8.218  -4.569  0.00  0.00    +0.007 C 
ATOM     26  C   UNL     1       4.190  -7.608  -5.084  0.00  0.00    -0.008 C 
ATOM     27  C   UNL     1       3.030  -8.059  -4.194  0.00  0.00    +0.007 C 
ATOM     28  C   UNL     1       4.293  -6.082  -5.054  0.00  0.00    +0.029 C 
ENDBRANCH  17  19
ENDBRANCH  10  15
BRANCH  11  29
ATOM     29  C   UNL     1       1.855   0.861  -5.028  0.00  0.00    +0.147 C 
BRANCH  29  30
ATOM     30  C   UNL     1       2.265   2.329  -4.898  0.00  0.00    +0.137 C 
ATOM     31  C   UNL     1       1.369   3.204  -5.795  0.00  0.00    +0.035 C 
ATOM     32  C   UNL     1       2.362   3.916  -6.745  0.00  0.00    +0.031 C 
ATOM     33  C   UNL     1       3.695   3.808  -5.961  0.00  0.00    +0.160 C 
ATOM     34  O   UNL     1       3.619   2.503  -5.347  0.00  0.00    -0.375 OA
ENDBRANCH  29  30
ENDBRANCH  11  29
TORSDOF 4
