REMARK  Name = ZINC20513100
REMARK  2 active torsions:
REMARK  status: ('A' for Active; 'I' for Inactive)
REMARK    1  A    between atoms: C_8  and  C_17
REMARK    2  A    between atoms: N_19  and  C_20
REMARK                            x       y       z     vdW  Elec       q    Type
REMARK                         _______ _______ _______ _____ _____    ______ ____
ROOT
ATOM      1  C   UNL     1      -1.534   2.519  -3.337  0.00  0.00    +0.000 A 
ATOM      2  C   UNL     1      -2.562   3.281  -2.812  0.00  0.00    +0.002 A 
ATOM      3  C   UNL     1      -2.704   3.413  -1.446  0.00  0.00    +0.023 A 
ATOM      4  C   UNL     1      -1.810   2.780  -0.585  0.00  0.00    +0.036 A 
ATOM      5  C   UNL     1      -0.780   2.018  -1.125  0.00  0.00    -0.027 A 
ATOM      6  C   UNL     1      -0.642   1.888  -2.489  0.00  0.00    +0.004 A 
ATOM      7  C   UNL     1      -0.004   1.478   0.046  0.00  0.00    +0.052 C 
ATOM      8  C   UNL     1       1.452   1.969   0.006  0.00  0.00    +0.076 C 
ATOM      9  C   UNL     1       2.245   0.744   0.537  0.00  0.00    -0.003 C 
ATOM     10  C   UNL     1       1.425  -0.436  -0.038  0.00  0.00    -0.066 C 
ATOM     11  N   UNL     1       0.009   0.011   0.046  0.00  0.00    +0.394 N 
ATOM     12  C   UNL     1      -0.501  -0.497   1.345  0.00  0.00    -0.077 C 
ATOM     13  C   UNL     1       0.167  -1.887   1.482  0.00  0.00    -0.020 C 
ATOM     14  C   UNL     1       1.574  -1.655   0.887  0.00  0.00    -0.017 C 
ATOM     15  C   UNL     1      -0.715   2.020   1.260  0.00  0.00    +0.212 C 
ATOM     16  O   UNL     1      -0.416   1.826   2.419  0.00  0.00    -0.277 OA
ATOM     17  N   UNL     1      -1.745   2.761   0.810  0.00  0.00    -0.286 N 
ATOM     18  H   UNL     1      -2.488   3.314   1.403  0.00  0.00    +0.155 HD
ATOM     19  H   UNL     1      -0.608  -0.344  -0.793  0.00  0.00    -0.079 HD
ENDROOT
BRANCH   8  20
ATOM     20  C   UNL     1       1.864   2.301  -1.405  0.00  0.00    +0.220 C 
ATOM     21  O   UNL     1       2.432   1.470  -2.082  0.00  0.00    -0.275 OA
ATOM     22  N   UNL     1       1.602   3.521  -1.914  0.00  0.00    -0.283 N 
ATOM     23  H   UNL     1       1.144   4.295  -1.280  0.00  0.00    +0.155 HD
BRANCH  22  24
ATOM     24  C   UNL     1       1.913   3.804  -3.250  0.00  0.00    +0.069 A 
ATOM     25  C   UNL     1       2.919   3.097  -3.895  0.00  0.00    +0.027 A 
ATOM     26  C   UNL     1       3.224   3.377  -5.213  0.00  0.00    +0.017 A 
ATOM     27  C   UNL     1       2.529   4.362  -5.891  0.00  0.00    +0.021 A 
ATOM     28  C   UNL     1       1.526   5.070  -5.253  0.00  0.00    +0.055 A 
ATOM     29  C   UNL     1       1.212   4.789  -3.935  0.00  0.00    +0.146 A 
ATOM     30  F   UNL     1       0.228   5.476  -3.313  0.00  0.00    -0.204 F 
ATOM     31 BR   UNL     1       2.950   4.742  -7.695  0.00  0.00    -0.050 Br
ENDBRANCH  22  24
ENDBRANCH   8  20
TORSDOF 2
