REMARK  Name = ZINC01169037
REMARK  10 active torsions:
REMARK  status: ('A' for Active; 'I' for Inactive)
REMARK    1  A    between atoms: C_1  and  C_2
REMARK    2  A    between atoms: C_5  and  C_8
REMARK    3  A    between atoms: C_8  and  S_9
REMARK    4  A    between atoms: S_9  and  C_10
REMARK    5  A    between atoms: C_23  and  C_26
REMARK    6  A    between atoms: C_28  and  O_35
REMARK    7  A    between atoms: C_29  and  O_34
REMARK    8  A    between atoms: C_30  and  O_32
REMARK    9  A    between atoms: O_32  and  C_33
REMARK   10  A    between atoms: O_35  and  C_36
REMARK                            x       y       z     vdW  Elec       q    Type
REMARK                         _______ _______ _______ _____ _____    ______ ____
ROOT
ATOM      1  C   UNL     1       1.605  -6.636  -0.054  0.00  0.00    +0.213 A 
ATOM      2  N   UNL     1       2.708  -7.380  -0.064  0.00  0.00    -0.184 NA
ATOM      3  C   UNL     1       2.599  -8.697  -0.052  0.00  0.00    +0.248 A 
ATOM      4  C   UNL     1       1.308  -9.272  -0.025  0.00  0.00    +0.156 A 
ATOM      5  N   UNL     1       0.250  -8.475  -0.020  0.00  0.00    -0.141 NA
ATOM      6  N   UNL     1       0.402  -7.195  -0.029  0.00  0.00    -0.122 NA
ATOM      7  C   UNL     1       1.164 -10.742   0.004  0.00  0.00    +0.028 A 
ATOM      8  C   UNL     1       0.289 -11.405  -0.848  0.00  0.00    +0.012 A 
ATOM      9  C   UNL     1       0.175 -12.780  -0.780  0.00  0.00    +0.001 A 
ATOM     10  C   UNL     1       0.924 -13.501   0.133  0.00  0.00    +0.002 A 
ATOM     11  C   UNL     1       1.802 -12.855   0.984  0.00  0.00    +0.024 A 
ATOM     12  C   UNL     1       1.934 -11.480   0.922  0.00  0.00    +0.039 A 
ATOM     13  N   UNL     1       2.838 -10.798   1.742  0.00  0.00    -0.305 N 
ATOM     14  C   UNL     1       4.016 -10.186   1.133  0.00  0.00    +0.294 C 
ATOM     15  O   UNL     1       3.692  -9.496  -0.068  0.00  0.00    -0.449 OA
ATOM     16  H   UNL     1       2.686 -10.732   2.698  0.00  0.00    +0.150 HD
ENDROOT
BRANCH  14  17
ATOM     17  C   UNL     1       5.024 -11.262   0.823  0.00  0.00    +0.018 A 
ATOM     18  C   UNL     1       5.762 -11.200  -0.344  0.00  0.00    +0.058 A 
ATOM     19  C   UNL     1       6.690 -12.189  -0.633  0.00  0.00    +0.165 A 
ATOM     20  C   UNL     1       6.878 -13.243   0.252  0.00  0.00    +0.201 A 
ATOM     21  C   UNL     1       6.134 -13.302   1.425  0.00  0.00    +0.165 A 
ATOM     22  C   UNL     1       5.212 -12.307   1.709  0.00  0.00    +0.058 A 
BRANCH  21  23
ATOM     23  O   UNL     1       6.314 -14.332   2.294  0.00  0.00    -0.491 OA
ATOM     24  C   UNL     1       5.515 -14.328   3.479  0.00  0.00    +0.277 C 
ENDBRANCH  21  23
BRANCH  20  25
ATOM     25  O   UNL     1       7.787 -14.216  -0.029  0.00  0.00    -0.501 OA
ATOM     26  H   UNL     1       8.675 -14.034   0.309  0.00  0.00    +0.292 HD
ENDBRANCH  20  25
BRANCH  19  27
ATOM     27  O   UNL     1       7.415 -12.127  -1.782  0.00  0.00    -0.491 OA
ATOM     28  C   UNL     1       7.169 -11.015  -2.646  0.00  0.00    +0.277 C 
ENDBRANCH  19  27
ENDBRANCH  14  17
BRANCH   1  29
ATOM     29  S   UNL     1       1.744  -4.879  -0.068  0.00  0.00    -0.080 S 
BRANCH  29  30
ATOM     30  C   UNL     1       0.024  -4.303  -0.041  0.00  0.00    +0.112 C 
BRANCH  30  35
ATOM     31  C   UNL     1      -0.074   1.475  -0.074  0.00  0.00    +0.044 C 
ATOM     32  C   UNL     1      -0.048  -0.032  -0.065  0.00  0.00    -0.050 A 
ATOM     33  C   UNL     1      -0.057  -0.730  -1.258  0.00  0.00    +0.003 A 
ATOM     34  C   UNL     1      -0.033  -2.112  -1.250  0.00  0.00    +0.005 A 
ATOM     35  C   UNL     1      -0.001  -2.796  -0.049  0.00  0.00    -0.037 A 
ATOM     36  C   UNL     1       0.009  -2.098   1.144  0.00  0.00    +0.005 A 
ATOM     37  C   UNL     1      -0.010  -0.715   1.136  0.00  0.00    +0.003 A 
ENDBRANCH  30  35
ENDBRANCH  29  30
ENDBRANCH   1  29
TORSDOF 7
