REMARK  Name = ZINC37511215
REMARK  15 active torsions:
REMARK  status: ('A' for Active; 'I' for Inactive)
REMARK    1  A    between atoms: C_1  and  C_2
REMARK    2  A    between atoms: C_2  and  N_3
REMARK    3  A    between atoms: N_3  and  C_4
REMARK    4  A    between atoms: N_3  and  C_6
REMARK    5  A    between atoms: C_4  and  C_5
REMARK    6  A    between atoms: C_6  and  C_7
REMARK    7  A    between atoms: C_7  and  N_8
REMARK    8  A    between atoms: C_9  and  C_11
REMARK    9  A    between atoms: C_14  and  C_16
REMARK   10  A    between atoms: C_16  and  N_17
REMARK   11  A    between atoms: C_20  and  C_28
REMARK   12  A    between atoms: C_28  and  C_30
REMARK   13  A    between atoms: C_30  and  O_31
REMARK   14  A    between atoms: O_31  and  C_32
REMARK   15  A    between atoms: C_36  and  C_38
REMARK                            x       y       z     vdW  Elec       q    Type
REMARK                         _______ _______ _______ _____ _____    ______ ____
ROOT
ATOM      1  N   UNL     1      -2.560  -9.207   3.334  0.00  0.00    -0.258 N 
ATOM      2  C   UNL     1      -2.804  -9.880   4.540  0.00  0.00    +0.079 A 
ATOM      3  C   UNL     1      -1.800 -10.033   5.475  0.00  0.00    +0.038 A 
ATOM      4  C   UNL     1      -2.065 -10.708   6.673  0.00  0.00    +0.023 A 
ATOM      5  C   UNL     1      -3.344 -11.224   6.914  0.00  0.00    +0.015 A 
ATOM      6  C   UNL     1      -4.340 -11.066   5.976  0.00  0.00    +0.048 A 
ATOM      7  C   UNL     1      -4.079 -10.396   4.789  0.00  0.00    +0.143 A 
ATOM      8  O   UNL     1      -5.056 -10.233   3.860  0.00  0.00    -0.481 OA
ATOM      9  C   UNL     1      -5.014  -9.032   3.086  0.00  0.00    +0.325 C 
ATOM     10  C   UNL     1      -3.610  -8.791   2.593  0.00  0.00    +0.258 C 
ATOM     11  O   UNL     1      -3.424  -8.230   1.534  0.00  0.00    -0.271 OA
ENDROOT
BRANCH   4  12
ATOM     12  C   UNL     1      -1.003 -10.877   7.674  0.00  0.00    +0.200 C 
ATOM     13  O   UNL     1       0.105 -10.430   7.463  0.00  0.00    -0.288 OA
BRANCH  12  14
ATOM     14  C   UNL     1      -1.290 -11.604   8.962  0.00  0.00    +0.308 C 
BRANCH  14  15
ATOM     15  O   UNL     1      -0.108 -11.636   9.764  0.00  0.00    -0.484 OA
BRANCH  15  16
ATOM     16  C   UNL     1      -0.196 -12.261  10.968  0.00  0.00    +0.121 A 
ATOM     17  C   UNL     1      -1.394 -12.835  11.367  0.00  0.00    +0.045 A 
ATOM     18  C   UNL     1      -1.481 -13.469  12.591  0.00  0.00    +0.004 A 
ATOM     19  C   UNL     1      -0.375 -13.532  13.418  0.00  0.00    +0.003 A 
ATOM     20  C   UNL     1       0.820 -12.960  13.024  0.00  0.00    -0.047 A 
ATOM     21  C   UNL     1       0.914 -12.329  11.798  0.00  0.00    +0.049 A 
ATOM     22  C   UNL     1       2.023 -13.030  13.928  0.00  0.00    +0.044 C 
ENDBRANCH  15  16
ENDBRANCH  14  15
ENDBRANCH  12  14
ENDBRANCH   4  12
BRANCH   1  23
ATOM     23  C   UNL     1      -1.188  -8.955   2.887  0.00  0.00    +0.188 C 
BRANCH  23  27
ATOM     24  C   UNL     1      -0.320  -5.479   3.598  0.00  0.00    +0.189 A 
ATOM     25  C   UNL     1       0.171  -6.068   4.728  0.00  0.00    +0.055 A 
ATOM     26  C   UNL     1      -0.088  -7.443   4.611  0.00  0.00    +0.047 A 
ATOM     27  C   UNL     1      -0.718  -7.630   3.431  0.00  0.00    +0.124 A 
ATOM     28  O   UNL     1      -0.861  -6.444   2.825  0.00  0.00    -0.453 OA
BRANCH  24  30
ATOM     29  N   UNL     1      -0.803  -3.594   2.129  0.00  0.00    -0.311 N 
ATOM     30  C   UNL     1      -0.273  -4.048   3.282  0.00  0.00    +0.279 C 
ATOM     31  O   UNL     1       0.243  -3.269   4.062  0.00  0.00    -0.267 OA
ATOM     32  H   UNL     1      -1.214  -4.215   1.507  0.00  0.00    +0.149 HD
BRANCH  29  33
ATOM     33  C   UNL     1      -0.756  -2.164   1.814  0.00  0.00    +0.086 C 
BRANCH  33  34
ATOM     34  C   UNL     1      -1.421  -1.919   0.458  0.00  0.00    -0.060 C 
BRANCH  34  35
ATOM     35  N   UNL     1      -1.374  -0.485   0.142  0.00  0.00    +0.380 N 
ATOM     36  H   UNL     1      -1.792   0.039   0.895  0.00  0.00    -0.082 HD
BRANCH  35  38
ATOM     37  C   UNL     1       0.082   1.451  -0.216  0.00  0.00    -0.017 C 
ATOM     38  C   UNL     1       0.024  -0.066  -0.029  0.00  0.00    -0.082 C 
ENDBRANCH  35  38
BRANCH  35  39
ATOM     39  C   UNL     1      -2.116  -0.233  -1.101  0.00  0.00    -0.082 C 
ATOM     40  C   UNL     1      -3.600  -0.533  -0.879  0.00  0.00    -0.017 C 
ENDBRANCH  35  39
ENDBRANCH  34  35
ENDBRANCH  33  34
ENDBRANCH  29  33
ENDBRANCH  24  30
ENDBRANCH  23  27
ENDBRANCH   1  23
TORSDOF 12
