REMARK  Name = ZINC22873693
REMARK  6 active torsions:
REMARK  status: ('A' for Active; 'I' for Inactive)
REMARK    1  A    between atoms: C_1  and  C_2
REMARK    2  A    between atoms: C_10  and  C_11
REMARK    3  A    between atoms: N_13  and  N_14
REMARK    4  A    between atoms: C_15  and  C_17
REMARK    5  A    between atoms: C_22  and  N_23
REMARK    6  A    between atoms: C_24  and  C_26
REMARK                            x       y       z     vdW  Elec       q    Type
REMARK                         _______ _______ _______ _____ _____    ______ ____
ROOT
ATOM      1  N   UNL     1       1.198   1.692  -0.004  0.00  0.00    -0.230 N 
ATOM      2  C   UNL     1       2.372   1.031  -0.017  0.00  0.00    +0.262 C 
ATOM      3  O   UNL     1       2.385  -0.185  -0.018  0.00  0.00    -0.269 OA
ATOM      4  H   UNL     1       1.185   2.792  -0.002  0.00  0.00    +0.173 HD
ENDROOT
BRANCH   2   5
ATOM      5  C   UNL     1       3.641   1.782  -0.029  0.00  0.00    +0.059 A 
ATOM      6  C   UNL     1       3.632   3.175  -0.137  0.00  0.00    +0.015 A 
ATOM      7  C   UNL     1       4.821   3.872  -0.142  0.00  0.00    +0.001 A 
ATOM      8  C   UNL     1       6.028   3.197  -0.051  0.00  0.00    +0.002 A 
ATOM      9  C   UNL     1       6.053   1.821   0.050  0.00  0.00    +0.024 A 
ATOM     10  C   UNL     1       4.865   1.102   0.063  0.00  0.00    +0.046 A 
BRANCH  10  11
ATOM     11  N   UNL     1       4.888  -0.285   0.165  0.00  0.00    -0.280 N 
ATOM     12  C   UNL     1       5.832  -0.890   0.913  0.00  0.00    +0.255 C 
ATOM     13  O   UNL     1       6.605  -0.222   1.574  0.00  0.00    -0.269 OA
ATOM     14  H   UNL     1       4.135  -0.889  -0.363  0.00  0.00    +0.155 HD
BRANCH  12  15
ATOM     15  C   UNL     1       5.929  -2.352   0.929  0.00  0.00    +0.074 A 
ATOM     16  C   UNL     1       6.816  -3.162   1.621  0.00  0.00    +0.021 A 
ATOM     17  C   UNL     1       6.684  -4.518   1.456  0.00  0.00    +0.008 A 
ATOM     18  C   UNL     1       5.709  -4.995   0.638  0.00  0.00    +0.046 A 
ATOM     19  S   UNL     1       4.929  -3.555   0.070  0.00  0.00    -0.092 S 
ENDBRANCH  12  15
ENDBRANCH  10  11
ENDBRANCH   2   5
BRANCH   1  22
ATOM     20  C   UNL     1      -1.183   1.639   0.015  0.00  0.00    +0.296 C 
ATOM     21  O   UNL     1      -1.196   2.856   0.017  0.00  0.00    -0.265 OA
ATOM     22  N   UNL     1      -0.008   0.978   0.008  0.00  0.00    -0.228 N 
ATOM     23  H   UNL     1       0.004  -0.122   0.011  0.00  0.00    +0.173 HD
BRANCH  20  33
ATOM     24  C   UNL     1      -4.017   2.918   0.045  0.00  0.00    +0.048 C 
ATOM     25  C   UNL     1      -3.686   1.448   0.034  0.00  0.00    +0.008 A 
ATOM     26  C   UNL     1      -4.632   0.333   0.032  0.00  0.00    +0.024 A 
ATOM     27  C   UNL     1      -6.026   0.239   0.040  0.00  0.00    +0.012 A 
ATOM     28  C   UNL     1      -6.621  -0.991   0.041  0.00  0.00    +0.001 A 
ATOM     29  C   UNL     1      -5.851  -2.146   0.036  0.00  0.00    +0.004 A 
ATOM     30  C   UNL     1      -4.474  -2.074   0.029  0.00  0.00    +0.047 A 
ATOM     31  C   UNL     1      -3.846  -0.834   0.027  0.00  0.00    +0.136 A 
ATOM     32  O   UNL     1      -2.553  -0.455   0.020  0.00  0.00    -0.450 OA
ATOM     33  C   UNL     1      -2.447   0.890   0.021  0.00  0.00    +0.195 A 
ENDBRANCH  20  33
ENDBRANCH   1  22
TORSDOF 5
