REMARK  Name = ZINC20343892
REMARK  7 active torsions:
REMARK  status: ('A' for Active; 'I' for Inactive)
REMARK    1  A    between atoms: C_1  and  C_2
REMARK    2  A    between atoms: N_9  and  C_10
REMARK    3  A    between atoms: N_18  and  C_19
REMARK    4  A    between atoms: C_21  and  C_27
REMARK    5  A    between atoms: C_21  and  C_28
REMARK    6  A    between atoms: C_23  and  C_25
REMARK    7  A    between atoms: C_23  and  C_26
REMARK                            x       y       z     vdW  Elec       q    Type
REMARK                         _______ _______ _______ _____ _____    ______ ____
ROOT
ATOM      1  C   UNL     1       0.565  11.145  -2.317  0.00  0.00    +0.053 C 
ATOM      2  C   UNL     1       0.765   9.653  -2.382  0.00  0.00    +0.007 A 
ATOM      3  C   UNL     1       1.924   8.968  -2.512  0.00  0.00    +0.058 A 
ATOM      4  C   UNL     1       1.838   7.578  -2.547  0.00  0.00    +0.140 A 
ATOM      5  N   UNL     1       2.910   6.822  -2.670  0.00  0.00    -0.283 NA
ATOM      6  N   UNL     1       0.577   7.034  -2.447  0.00  0.00    -0.235 N 
ATOM      7  S   UNL     1      -0.433   8.405  -2.317  0.00  0.00    -0.007 S 
ATOM      8  C   UNL     1       0.217   5.705  -2.454  0.00  0.00    +0.208 C 
ATOM      9  N   UNL     1       0.093   5.066  -3.594  0.00  0.00    -0.216 NA
ATOM     10  N   UNL     1      -0.011   5.049  -1.270  0.00  0.00    -0.311 N 
ATOM     11  H   UNL     1       3.792   7.227  -2.673  0.00  0.00    +0.188 HD
ATOM     12  H   UNL     1       0.093   5.585  -0.315  0.00  0.00    +0.149 HD
ENDROOT
BRANCH  10  13
ATOM     13  C   UNL     1      -0.396   3.632  -1.279  0.00  0.00    +0.071 C 
ATOM     14  C   UNL     1       0.008   2.994   0.052  0.00  0.00    +0.009 C 
ATOM     15  C   UNL     1      -0.382   1.516   0.060  0.00  0.00    -0.072 C 
ATOM     16  N   UNL     1      -1.769   1.309  -0.308  0.00  0.00    +0.386 N 
ATOM     17  C   UNL     1      -2.349   2.059  -1.403  0.00  0.00    -0.072 C 
ATOM     18  C   UNL     1      -1.913   3.522  -1.425  0.00  0.00    +0.009 C 
ATOM     19  C   UNL     1      -2.026   1.408  -2.753  0.00  0.00    -0.010 C 
ATOM     20  C   UNL     1      -3.885   2.035  -1.240  0.00  0.00    -0.010 C 
ATOM     21  C   UNL     1      -0.182   0.991   1.499  0.00  0.00    -0.010 C 
ATOM     22  C   UNL     1       0.563   0.727  -0.850  0.00  0.00    -0.010 C 
ATOM     23  H   UNL     1      -1.918   0.258  -0.598  0.00  0.00    -0.084 HD
ATOM     24  H   UNL     1      -2.416   1.547   0.549  0.00  0.00    -0.084 HD
ENDBRANCH  10  13
BRANCH   9  25
ATOM     25  C   UNL     1       0.198   5.748  -4.777  0.00  0.00    +0.069 A 
ATOM     26  C   UNL     1       1.145   5.361  -5.727  0.00  0.00    +0.029 A 
ATOM     27  C   UNL     1       1.247   6.051  -6.917  0.00  0.00    +0.023 A 
ATOM     28  C   UNL     1       0.412   7.126  -7.171  0.00  0.00    +0.059 A 
ATOM     29  C   UNL     1      -0.530   7.516  -6.233  0.00  0.00    +0.061 A 
ATOM     30  C   UNL     1      -0.645   6.829  -5.040  0.00  0.00    +0.049 A 
ATOM     31 CL   UNL     1      -1.574   8.864  -6.560  0.00  0.00    -0.082 Cl
ATOM     32 CL   UNL     1       0.546   7.990  -8.671  0.00  0.00    -0.082 Cl
ENDBRANCH   9  25
TORSDOF 2
