REMARK  Name = ZINC36550689
REMARK  15 active torsions:
REMARK  status: ('A' for Active; 'I' for Inactive)
REMARK    1  A    between atoms: C_1  and  C_2
REMARK    2  A    between atoms: C_2  and  C_3
REMARK    3  A    between atoms: C_3  and  C_4
REMARK    4  A    between atoms: C_4  and  C_5
REMARK    5  A    between atoms: N_7  and  C_8
REMARK    6  A    between atoms: N_7  and  C_15
REMARK    7  A    between atoms: C_15  and  C_17
REMARK    8  A    between atoms: C_15  and  C_26
REMARK    9  A    between atoms: C_18  and  O_25
REMARK   10  A    between atoms: C_20  and  O_24
REMARK   11  A    between atoms: C_22  and  O_23
REMARK   12  A    between atoms: N_28  and  C_29
REMARK   13  A    between atoms: C_29  and  C_30
REMARK   14  A    between atoms: C_30  and  C_31
REMARK   15  A    between atoms: C_31  and  C_32
REMARK                            x       y       z     vdW  Elec       q    Type
REMARK                         _______ _______ _______ _____ _____    ______ ____
ROOT
ATOM      1  C   UNL     1       2.365  -4.085   3.932  0.00  0.00    +0.204 C 
ENDROOT
BRANCH   1   2
ATOM      2  C   UNL     1       2.994  -4.723   2.720  0.00  0.00    +0.065 A 
ATOM      3  C   UNL     1       2.257  -4.873   1.555  0.00  0.00    +0.129 A 
ATOM      4  C   UNL     1       2.836  -5.459   0.439  0.00  0.00    +0.091 A 
ATOM      5  C   UNL     1       4.151  -5.895   0.489  0.00  0.00    +0.124 A 
ATOM      6  C   UNL     1       4.888  -5.744   1.654  0.00  0.00    +0.091 A 
ATOM      7  C   UNL     1       4.311  -5.153   2.768  0.00  0.00    +0.129 A 
BRANCH   7   8
ATOM      8  O   UNL     1       5.035  -5.001   3.908  0.00  0.00    -0.506 OA
ATOM      9  H   UNL     1       4.974  -5.751   4.515  0.00  0.00    +0.292 HD
ENDBRANCH   7   8
BRANCH   5  10
ATOM     10  O   UNL     1       4.718  -6.470  -0.604  0.00  0.00    -0.507 OA
ATOM     11  H   UNL     1       5.156  -5.843  -1.196  0.00  0.00    +0.292 HD
ENDBRANCH   5  10
BRANCH   3  12
ATOM     12  O   UNL     1       0.968  -4.446   1.506  0.00  0.00    -0.506 OA
ATOM     13  H   UNL     1       0.863  -3.551   1.156  0.00  0.00    +0.292 HD
ENDBRANCH   3  12
ENDBRANCH   1   2
BRANCH   1  14
ATOM     14  C   UNL     1       1.371  -5.040   4.543  0.00  0.00    +0.239 C 
ATOM     15  O   UNL     1       0.254  -5.130   4.080  0.00  0.00    -0.273 OA
ATOM     16  N   UNL     1       1.725  -5.793   5.603  0.00  0.00    -0.313 N 
ATOM     17  H   UNL     1       2.619  -5.721   5.973  0.00  0.00    +0.149 HD
BRANCH  16  18
ATOM     18  C   UNL     1       0.759  -6.721   6.197  0.00  0.00    +0.104 C 
BRANCH  18  19
ATOM     19  C   UNL     1       1.409  -7.448   7.376  0.00  0.00    +0.018 C 
BRANCH  19  20
ATOM     20  C   UNL     1       0.400  -8.417   7.996  0.00  0.00    -0.002 C 
ATOM     21  C   UNL     1       1.050  -9.144   9.176  0.00  0.00    +0.004 C 
ENDBRANCH  19  20
ENDBRANCH  18  19
ENDBRANCH  16  18
ENDBRANCH   1  14
BRANCH   1  24
ATOM     22  C   UNL     1       2.280  -1.987   2.697  0.00  0.00    +0.221 C 
ATOM     23  O   UNL     1       3.390  -2.226   2.271  0.00  0.00    -0.275 OA
ATOM     24  N   UNL     1       1.678  -2.854   3.535  0.00  0.00    -0.254 N 
BRANCH  24  25
ATOM     25  C   UNL     1       0.397  -2.577   4.027  0.00  0.00    +0.056 A 
ATOM     26  C   UNL     1      -0.722  -2.866   3.256  0.00  0.00    +0.025 A 
ATOM     27  C   UNL     1      -1.985  -2.592   3.744  0.00  0.00    +0.002 A 
ATOM     28  C   UNL     1      -2.137  -2.031   4.999  0.00  0.00    +0.002 A 
ATOM     29  C   UNL     1      -1.026  -1.743   5.769  0.00  0.00    +0.022 A 
ATOM     30  C   UNL     1       0.241  -2.019   5.290  0.00  0.00    +0.062 A 
ATOM     31 CL   UNL     1       1.635  -1.663   6.261  0.00  0.00    -0.082 Cl
ENDBRANCH  24  25
BRANCH  22  32
ATOM     32  C   UNL     1       1.573  -0.720   2.289  0.00  0.00    +0.096 C 
BRANCH  32  33
ATOM     33  C   UNL     1       2.468   0.081   1.341  0.00  0.00    +0.009 C 
BRANCH  33  35
ATOM     34  C   UNL     1       2.646   2.167  -0.022  0.00  0.00    +0.004 C 
ATOM     35  C   UNL     1       1.751   1.367   0.926  0.00  0.00    -0.003 C 
ENDBRANCH  33  35
ENDBRANCH  32  33
ENDBRANCH  22  32
ENDBRANCH   1  24
TORSDOF 13
