REMARK  Name = ZINC06017598
REMARK  12 active torsions:
REMARK  status: ('A' for Active; 'I' for Inactive)
REMARK    1  A    between atoms: C_1  and  C_2
REMARK    2  A    between atoms: C_5  and  C_33
REMARK    3  A    between atoms: C_7  and  S_8
REMARK    4  A    between atoms: S_8  and  N_11
REMARK    5  A    between atoms: N_11  and  N_12
REMARK    6  A    between atoms: C_13  and  C_15
REMARK    7  A    between atoms: C_18  and  C_21
REMARK    8  A    between atoms: C_21  and  S_22
REMARK    9  A    between atoms: S_22  and  C_23
REMARK   10  A    between atoms: C_33  and  C_34
REMARK   11  A    between atoms: C_33  and  C_35
REMARK   12  A    between atoms: C_33  and  C_36
REMARK                            x       y       z     vdW  Elec       q    Type
REMARK                         _______ _______ _______ _____ _____    ______ ____
ROOT
ATOM      1  N   UNL     1      11.445   5.897   1.191  0.00  0.00    -0.228 N 
ATOM      2  C   UNL     1      10.722   5.763   0.062  0.00  0.00    +0.259 C 
ATOM      3  O   UNL     1      11.261   5.869  -1.022  0.00  0.00    -0.269 OA
ATOM      4  H   UNL     1      11.032   5.741   2.054  0.00  0.00    +0.171 HD
ENDROOT
BRANCH   2   5
ATOM      5  C   UNL     1       9.271   5.486   0.143  0.00  0.00    +0.038 A 
ATOM      6  C   UNL     1       8.499   5.452  -1.019  0.00  0.00    +0.013 A 
ATOM      7  C   UNL     1       7.147   5.193  -0.938  0.00  0.00    +0.005 A 
ATOM      8  C   UNL     1       6.556   4.967   0.293  0.00  0.00    -0.037 A 
ATOM      9  C   UNL     1       7.314   5.005   1.449  0.00  0.00    +0.005 A 
ATOM     10  C   UNL     1       8.669   5.258   1.381  0.00  0.00    +0.013 A 
BRANCH   8  11
ATOM     11  C   UNL     1       5.077   4.685   0.375  0.00  0.00    +0.112 C 
BRANCH  11  12
ATOM     12  S   UNL     1       4.796   2.902   0.250  0.00  0.00    -0.083 S 
BRANCH  12  13
ATOM     13  C   UNL     1       3.038   2.860   0.372  0.00  0.00    +0.168 A 
ATOM     14  N   UNL     1       2.275   1.728   0.334  0.00  0.00    -0.333 N 
ATOM     15  H   UNL     1       2.609   0.790   0.234  0.00  0.00    +0.168 HD
ATOM     16  C   UNL     1       0.952   2.119   0.459  0.00  0.00    +0.067 A 
ATOM     17  C   UNL     1      -0.254   1.436   0.490  0.00  0.00    +0.028 A 
ATOM     18  C   UNL     1      -1.436   2.135   0.625  0.00  0.00    +0.002 A 
ATOM     19  C   UNL     1      -1.425   3.517   0.741  0.00  0.00    +0.002 A 
ATOM     20  C   UNL     1      -0.237   4.212   0.713  0.00  0.00    +0.030 A 
ATOM     21  C   UNL     1       0.968   3.519   0.572  0.00  0.00    +0.090 A 
ATOM     22  N   UNL     1       2.268   3.911   0.511  0.00  0.00    -0.222 NA
ENDBRANCH  12  13
ENDBRANCH  11  12
ENDBRANCH   8  11
ENDBRANCH   2   5
BRANCH   1  23
ATOM     23  N   UNL     1      12.796   6.264   1.118  0.00  0.00    -0.108 NA
ATOM     24  H   UNL     1      13.413   5.738   0.585  0.00  0.00    +0.172 HD
BRANCH  23  25
ATOM     25  S   UNL     1      13.339   7.594   1.941  0.00  0.00    +0.074 S 
ATOM     26  O   UNL     1      12.950   7.420   3.297  0.00  0.00    -0.152 OA
ATOM     27  O   UNL     1      14.693   7.786   1.555  0.00  0.00    -0.152 OA
BRANCH  25  34
ATOM     28  C   UNL     1      13.458   8.580  -0.916  0.00  0.00    +0.046 C 
ATOM     29  C   UNL     1      12.560   9.359   0.010  0.00  0.00    -0.024 A 
ATOM     30  C   UNL     1      11.856  10.450  -0.466  0.00  0.00    +0.005 A 
ATOM     31  C   UNL     1      11.032  11.164   0.384  0.00  0.00    +0.004 A 
ATOM     32  C   UNL     1      10.912  10.788   1.709  0.00  0.00    -0.040 A 
ATOM     33  C   UNL     1      11.613   9.696   2.183  0.00  0.00    +0.033 A 
ATOM     34  C   UNL     1      12.441   8.984   1.335  0.00  0.00    +0.110 A 
BRANCH  32  35
ATOM     35  C   UNL     1      10.013  11.567   2.635  0.00  0.00    -0.013 C 
ATOM     36  C   UNL     1       9.357  12.713   1.863  0.00  0.00    +0.015 C 
ATOM     37  C   UNL     1       8.930  10.641   3.192  0.00  0.00    +0.015 C 
ATOM     38  C   UNL     1      10.841  12.136   3.789  0.00  0.00    +0.015 C 
ENDBRANCH  32  35
ENDBRANCH  25  34
ENDBRANCH  23  25
ENDBRANCH   1  23
TORSDOF 8
