REMARK  Name = ZINC43751618
REMARK  7 active torsions:
REMARK  status: ('A' for Active; 'I' for Inactive)
REMARK    1  A    between atoms: C_4  and  C_7
REMARK    2  A    between atoms: C_7  and  C_8
REMARK    3  A    between atoms: N_10  and  C_11
REMARK    4  A    between atoms: C_11  and  C_13
REMARK    5  A    between atoms: C_11  and  N_17
REMARK    6  A    between atoms: N_17  and  C_18
REMARK    7  A    between atoms: C_18  and  N_20
REMARK                            x       y       z     vdW  Elec       q    Type
REMARK                         _______ _______ _______ _____ _____    ______ ____
ROOT
ATOM      1  N   UNL     1       5.551  -3.263   3.318  0.00  0.00    -0.305 N 
ATOM      2  H   UNL     1       6.145  -3.941   2.960  0.00  0.00    +0.150 HD
ENDROOT
BRANCH   1   3
ATOM      3  C   UNL     1       4.532  -3.618   4.126  0.00  0.00    +0.134 C 
ATOM      4  S   UNL     1       3.564  -2.413   4.862  0.00  0.00    -0.019 S 
BRANCH   3   5
ATOM      5  N   UNL     1       4.276  -4.921   4.355  0.00  0.00    -0.312 N 
ATOM      6  C   UNL     1       3.102  -5.329   5.136  0.00  0.00    +0.112 C 
ATOM      7  C   UNL     1       2.315  -6.394   4.385  0.00  0.00    +0.027 C 
ATOM      8  C   UNL     1       3.230  -7.526   3.917  0.00  0.00    +0.018 C 
ATOM      9  C   UNL     1       4.301  -6.931   2.999  0.00  0.00    +0.054 C 
ATOM     10  C   UNL     1       5.164  -5.967   3.823  0.00  0.00    +0.116 C 
ATOM     11  C   UNL     1       3.643  -6.147   1.888  0.00  0.00    +0.027 A 
ATOM     12  C   UNL     1       4.321  -6.033   0.715  0.00  0.00    +0.022 A 
ATOM     13  C   UNL     1       3.802  -5.266  -0.334  0.00  0.00    +0.007 A 
ATOM     14  C   UNL     1       2.618  -4.614  -0.152  0.00  0.00    +0.070 A 
ATOM     15  C   UNL     1       1.946  -4.749   1.071  0.00  0.00    +0.251 A 
ATOM     16  O   UNL     1       0.919  -4.120   1.270  0.00  0.00    -0.268 OA
ATOM     17  N   UNL     1       2.426  -5.573   2.035  0.00  0.00    -0.312 N 
ATOM     18  C   UNL     1       1.573  -5.821   3.192  0.00  0.00    +0.130 C 
ENDBRANCH   3   5
ENDBRANCH   1   3
BRANCH   1  19
ATOM     19  C   UNL     1       5.762  -1.853   2.982  0.00  0.00    +0.211 C 
BRANCH  19  22
ATOM     20  C   UNL     1       4.160  -0.959   1.378  0.00  0.00    +0.219 C 
ATOM     21  O   UNL     1       3.484  -0.579   2.310  0.00  0.00    -0.275 OA
ATOM     22  N   UNL     1       5.319  -1.607   1.607  0.00  0.00    -0.293 N 
ATOM     23  H   UNL     1       5.861  -1.911   0.862  0.00  0.00    +0.151 HD
BRANCH  20  24
ATOM     24  C   UNL     1       3.705  -0.707  -0.036  0.00  0.00    +0.131 C 
BRANCH  24  28
ATOM     25  C   UNL     1      -0.023   1.379   0.018  0.00  0.00    +0.000 A 
ATOM     26  C   UNL     1       1.165   2.086   0.008  0.00  0.00    +0.000 A 
ATOM     27  C   UNL     1       2.371   1.411  -0.009  0.00  0.00    +0.004 A 
ATOM     28  C   UNL     1       2.390   0.029  -0.016  0.00  0.00    -0.039 A 
ATOM     29  C   UNL     1       1.202  -0.678  -0.006  0.00  0.00    +0.004 A 
ATOM     30  C   UNL     1      -0.004  -0.003   0.010  0.00  0.00    +0.000 A 
ENDBRANCH  24  28
ENDBRANCH  20  24
ENDBRANCH  19  22
BRANCH  19  31
ATOM     31  C   UNL     1       7.250  -1.516   3.106  0.00  0.00    +0.225 C 
ATOM     32 CL   UNL     1       7.509   0.220   2.692  0.00  0.00    -0.080 Cl
ATOM     33 CL   UNL     1       7.795  -1.818   4.798  0.00  0.00    -0.080 Cl
ATOM     34 CL   UNL     1       8.197  -2.552   1.976  0.00  0.00    -0.080 Cl
ENDBRANCH  19  31
ENDBRANCH   1  19
TORSDOF 7
