REMARK  Name = ZINC12488202
REMARK  17 active torsions:
REMARK  status: ('A' for Active; 'I' for Inactive)
REMARK    1  A    between atoms: C_1  and  C_2
REMARK    2  A    between atoms: C_2  and  C_3
REMARK    3  A    between atoms: C_2  and  C_4
REMARK    4  A    between atoms: C_7  and  C_10
REMARK    5  A    between atoms: C_10  and  C_12
REMARK    6  A    between atoms: C_10  and  N_19
REMARK    7  A    between atoms: N_14  and  C_15
REMARK    8  A    between atoms: C_15  and  C_16
REMARK    9  A    between atoms: C_15  and  C_17
REMARK   10  A    between atoms: C_15  and  C_18
REMARK   11  A    between atoms: N_19  and  C_20
REMARK   12  A    between atoms: C_23  and  C_26
REMARK   13  A    between atoms: C_26  and  C_27
REMARK   14  A    between atoms: C_26  and  C_28
REMARK   15  A    between atoms: C_29  and  C_31
REMARK   16  A    between atoms: C_31  and  N_32
REMARK   17  A    between atoms: C_33  and  C_35
REMARK                            x       y       z     vdW  Elec       q    Type
REMARK                         _______ _______ _______ _____ _____    ______ ____
ROOT
ATOM      1  N   UNL     1       3.431   1.773   0.772  0.00  0.00    -0.254 N 
ATOM      2  C   UNL     1       4.590   1.219   1.179  0.00  0.00    +0.238 C 
ATOM      3  O   UNL     1       5.031   0.246   0.606  0.00  0.00    -0.274 OA
ENDROOT
BRANCH   1   4
ATOM      4  C   UNL     1       2.967   2.948   1.375  0.00  0.00    +0.037 A 
ATOM      5  C   UNL     1       3.626   4.150   1.154  0.00  0.00    +0.024 A 
ATOM      6  C   UNL     1       3.162   5.309   1.745  0.00  0.00    +0.006 A 
ATOM      7  C   UNL     1       2.050   5.271   2.566  0.00  0.00    -0.045 A 
ATOM      8  C   UNL     1       1.395   4.074   2.793  0.00  0.00    +0.006 A 
ATOM      9  C   UNL     1       1.851   2.913   2.200  0.00  0.00    +0.024 A 
BRANCH   7  10
ATOM     10  C   UNL     1       1.550   6.536   3.215  0.00  0.00    +0.013 C 
ATOM     11  C   UNL     1       2.649   7.120   4.106  0.00  0.00    +0.012 C 
ATOM     12  C   UNL     1       1.177   7.551   2.133  0.00  0.00    +0.012 C 
ENDBRANCH   7  10
ENDBRANCH   1   4
BRANCH   1  13
ATOM     13  C   UNL     1       2.656   1.145  -0.301  0.00  0.00    +0.197 C 
BRANCH  13  17
ATOM     14  C   UNL     1      -1.091   3.155  -0.716  0.00  0.00    -0.045 A 
ATOM     15  C   UNL     1      -1.059   1.792  -0.484  0.00  0.00    +0.004 A 
ATOM     16  C   UNL     1       0.153   1.143  -0.345  0.00  0.00    +0.006 A 
ATOM     17  C   UNL     1       1.334   1.854  -0.447  0.00  0.00    -0.018 A 
ATOM     18  C   UNL     1       1.302   3.216  -0.682  0.00  0.00    +0.006 A 
ATOM     19  C   UNL     1       0.090   3.866  -0.817  0.00  0.00    +0.004 A 
BRANCH  14  21
ATOM     20  C   UNL     1      -3.183   3.266  -2.042  0.00  0.00    +0.012 C 
ATOM     21  C   UNL     1      -2.413   3.863  -0.862  0.00  0.00    +0.013 C 
ATOM     22  C   UNL     1      -3.229   3.691   0.420  0.00  0.00    +0.012 C 
ENDBRANCH  14  21
ENDBRANCH  13  17
BRANCH  13  23
ATOM     23  C   UNL     1       3.422   1.240  -1.595  0.00  0.00    +0.239 C 
ATOM     24  O   UNL     1       4.508   1.778  -1.619  0.00  0.00    -0.273 OA
ATOM     25  N   UNL     1       2.900   0.726  -2.726  0.00  0.00    -0.309 N 
ATOM     26  H   UNL     1       2.031   0.295  -2.708  0.00  0.00    +0.149 HD
BRANCH  25  27
ATOM     27  C   UNL     1       3.645   0.817  -3.985  0.00  0.00    +0.026 C 
ATOM     28  C   UNL     1       4.987   0.098  -3.836  0.00  0.00    +0.031 C 
ATOM     29  C   UNL     1       2.836   0.162  -5.105  0.00  0.00    +0.031 C 
ATOM     30  C   UNL     1       3.890   2.288  -4.326  0.00  0.00    +0.031 C 
ENDBRANCH  25  27
ENDBRANCH  13  23
ENDBRANCH   1  13
BRANCH   2  31
ATOM     31  C   UNL     1       5.338   1.810   2.346  0.00  0.00    +0.201 C 
BRANCH  31  32
ATOM     32  N   UNL     1       6.598   1.085   2.535  0.00  0.00    -0.300 N 
ATOM     33  C   UNL     1       7.437   1.441   3.528  0.00  0.00    +0.280 C 
ATOM     34  O   UNL     1       7.149   2.364   4.267  0.00  0.00    -0.267 OA
ATOM     35  H   UNL     1       6.827   0.350   1.946  0.00  0.00    +0.150 HD
BRANCH  33  36
ATOM     36  C   UNL     1       8.698   0.716   3.718  0.00  0.00    +0.189 A 
ATOM     37  C   UNL     1       9.634   0.971   4.679  0.00  0.00    +0.054 A 
ATOM     38  C   UNL     1      10.669   0.043   4.490  0.00  0.00    +0.042 A 
ATOM     39  C   UNL     1      10.324  -0.730   3.436  0.00  0.00    +0.196 A 
ATOM     40  O   UNL     1       9.133  -0.324   2.977  0.00  0.00    -0.458 OA
ENDBRANCH  33  36
ENDBRANCH  31  32
ENDBRANCH   2  31
TORSDOF 10
