REMARK  Name = ZINC52094582
REMARK  6 active torsions:
REMARK  status: ('A' for Active; 'I' for Inactive)
REMARK    1  A    between atoms: C_1  and  C_2
REMARK    2  A    between atoms: C_2  and  N_3
REMARK    3  A    between atoms: N_3  and  C_4
REMARK    4  A    between atoms: C_4  and  C_6
REMARK    5  A    between atoms: C_4  and  C_12
REMARK    6  A    between atoms: C_10  and  C_11
REMARK                            x       y       z     vdW  Elec       q    Type
REMARK                         _______ _______ _______ _____ _____    ______ ____
ROOT
ATOM      1  C   UNL     1      -0.684  -2.615   1.195  0.00  0.00    -0.041 A 
ATOM      2  C   UNL     1      -0.765  -2.009   2.434  0.00  0.00    +0.031 A 
ATOM      3  C   UNL     1      -0.149  -2.593   3.530  0.00  0.00    +0.067 A 
ATOM      4  C   UNL     1       0.550  -3.792   3.377  0.00  0.00    +0.068 A 
ATOM      5  C   UNL     1       0.626  -4.394   2.131  0.00  0.00    +0.043 A 
ATOM      6  C   UNL     1       0.005  -3.807   1.044  0.00  0.00    +0.022 A 
ATOM      7 BR   UNL     1       0.101  -4.630  -0.655  0.00  0.00    -0.050 Br
ATOM      8  N   UNL     1       1.050  -4.129   4.633  0.00  0.00    -0.306 N 
ATOM      9  H   UNL     1       1.581  -4.914   4.841  0.00  0.00    +0.170 HD
ATOM     10  C   UNL     1       0.673  -3.178   5.508  0.00  0.00    +0.325 A 
ATOM     11  O   UNL     1       0.947  -3.170   6.694  0.00  0.00    -0.247 OA
ATOM     12  N   UNL     1      -0.052  -2.238   4.873  0.00  0.00    -0.306 N 
ATOM     13  H   UNL     1      -0.440  -1.449   5.282  0.00  0.00    +0.170 HD
ENDROOT
BRANCH   1  14
ATOM     14  C   UNL     1      -1.353  -1.979   0.003  0.00  0.00    -0.006 C 
BRANCH  14  15
ATOM     15  C   UNL     1      -2.737  -2.551  -0.160  0.00  0.00    -0.017 A 
ATOM     16  C   UNL     1      -3.471  -3.271   0.811  0.00  0.00    +0.043 A 
ATOM     17  C   UNL     1      -4.651  -3.591   0.249  0.00  0.00    +0.195 A 
ATOM     18  O   UNL     1      -4.670  -3.105  -1.003  0.00  0.00    -0.468 OA
ATOM     19  C   UNL     1      -3.515  -2.469  -1.254  0.00  0.00    +0.104 A 
ATOM     20  C   UNL     1      -3.149  -1.783  -2.545  0.00  0.00    +0.086 C 
ENDBRANCH  14  15
BRANCH  14  21
ATOM     21  N   UNL     1      -1.444  -0.527   0.209  0.00  0.00    +0.386 N 
ATOM     22  H   UNL     1      -1.914  -0.340   1.082  0.00  0.00    -0.085 HD
ATOM     23  H   UNL     1      -1.964  -0.112  -0.549  0.00  0.00    -0.085 HD
BRANCH  21  25
ATOM     24  C   UNL     1      -0.187   1.559   0.464  0.00  0.00    -0.017 C 
ATOM     25  C   UNL     1      -0.092   0.047   0.249  0.00  0.00    -0.085 C 
ENDBRANCH  21  25
ENDBRANCH  14  21
ENDBRANCH   1  14
TORSDOF 4
