REMARK  Name = ZINC66109306
REMARK  11 active torsions:
REMARK  status: ('A' for Active; 'I' for Inactive)
REMARK    1  A    between atoms: C_1  and  C_2
REMARK    2  A    between atoms: C_2  and  C_4
REMARK    3  A    between atoms: C_2  and  N_10
REMARK    4  A    between atoms: C_11  and  C_13
REMARK    5  A    between atoms: C_16  and  N_19
REMARK    6  A    between atoms: N_19  and  C_20
REMARK    7  A    between atoms: C_20  and  C_21
REMARK    8  A    between atoms: N_23  and  C_24
REMARK    9  A    between atoms: C_27  and  C_30
REMARK   10  A    between atoms: N_32  and  C_33
REMARK   11  A    between atoms: C_33  and  C_34
REMARK                            x       y       z     vdW  Elec       q    Type
REMARK                         _______ _______ _______ _____ _____    ______ ____
ROOT
ATOM      1  C   UNL     1      -8.030  -2.764   2.491  0.00  0.00    +0.198 C 
ENDROOT
BRANCH   1   2
ATOM      2  C   UNL     1      -9.417  -3.291   2.226  0.00  0.00    +0.234 C 
ATOM      3  O   UNL     1      -9.774  -3.514   1.089  0.00  0.00    -0.274 OA
ATOM      4  N   UNL     1     -10.261  -3.513   3.253  0.00  0.00    -0.284 N 
ATOM      5  H   UNL     1      -9.954  -3.398   4.167  0.00  0.00    +0.155 HD
BRANCH   4   6
ATOM      6  C   UNL     1     -11.574  -3.908   3.003  0.00  0.00    +0.033 A 
ATOM      7  C   UNL     1     -11.854  -4.748   1.930  0.00  0.00    +0.024 A 
ATOM      8  C   UNL     1     -13.150  -5.140   1.680  0.00  0.00    +0.015 A 
ATOM      9  C   UNL     1     -14.185  -4.694   2.507  0.00  0.00    +0.037 A 
ATOM     10  C   UNL     1     -13.900  -3.851   3.584  0.00  0.00    +0.015 A 
ATOM     11  C   UNL     1     -12.601  -3.467   3.831  0.00  0.00    +0.024 A 
BRANCH   9  12
ATOM     12  C   UNL     1     -15.575  -5.112   2.242  0.00  0.00    +0.244 C 
ATOM     13  O   UNL     1     -15.821  -5.846   1.304  0.00  0.00    -0.270 OA
ATOM     14  N   UNL     1     -16.572  -4.682   3.040  0.00  0.00    -0.304 N 
ATOM     15  H   UNL     1     -16.376  -4.097   3.788  0.00  0.00    +0.149 HD
BRANCH  14  16
ATOM     16  C   UNL     1     -17.952  -5.096   2.777  0.00  0.00    +0.179 C 
BRANCH  16  17
ATOM     17  C   UNL     1     -18.866  -4.482   3.805  0.00  0.00    +0.122 A 
ATOM     18  C   UNL     1     -19.486  -3.293   3.696  0.00  0.00    +0.046 A 
ATOM     19  C   UNL     1     -20.237  -3.113   4.881  0.00  0.00    +0.041 A 
ATOM     20  C   UNL     1     -20.031  -4.202   5.643  0.00  0.00    +0.195 A 
ATOM     21  O   UNL     1     -19.204  -5.031   4.984  0.00  0.00    -0.466 OA
ENDBRANCH  16  17
ENDBRANCH  14  16
ENDBRANCH   9  12
ENDBRANCH   4   6
ENDBRANCH   1   2
BRANCH   1  22
ATOM     22  N   UNL     1      -7.316  -2.608   1.221  0.00  0.00    -0.335 N 
ATOM     23  H   UNL     1      -7.755  -2.837   0.387  0.00  0.00    +0.147 HD
BRANCH  22  27
ATOM     24  C   UNL     1      -3.405  -1.187   1.194  0.00  0.00    +0.037 A 
ATOM     25  C   UNL     1      -4.038  -1.516  -0.007  0.00  0.00    +0.015 A 
ATOM     26  C   UNL     1      -5.332  -1.986   0.005  0.00  0.00    +0.023 A 
ATOM     27  C   UNL     1      -6.009  -2.134   1.212  0.00  0.00    +0.028 A 
ATOM     28  C   UNL     1      -5.381  -1.806   2.411  0.00  0.00    +0.023 A 
ATOM     29  C   UNL     1      -4.085  -1.341   2.405  0.00  0.00    +0.015 A 
BRANCH  24  31
ATOM     30  N   UNL     1      -1.363  -0.534   0.016  0.00  0.00    -0.305 N 
ATOM     31  C   UNL     1      -2.018  -0.683   1.184  0.00  0.00    +0.245 C 
ATOM     32  O   UNL     1      -1.466  -0.401   2.231  0.00  0.00    -0.270 OA
ATOM     33  H   UNL     1      -1.804  -0.759  -0.819  0.00  0.00    +0.150 HD
BRANCH  30  35
ATOM     34  C   UNL     1       0.000   1.496   0.024  0.00  0.00    +0.033 C 
ATOM     35  C   UNL     1       0.014  -0.034   0.006  0.00  0.00    +0.100 C 
BRANCH  35  36
ATOM     36  C   UNL     1       0.715  -0.516  -1.238  0.00  0.00    -0.027 A 
ATOM     37  C   UNL     1       0.042  -0.536  -2.446  0.00  0.00    +0.005 A 
ATOM     38  C   UNL     1       0.685  -0.978  -3.587  0.00  0.00    +0.000 A 
ATOM     39  C   UNL     1       2.000  -1.399  -3.520  0.00  0.00    +0.000 A 
ATOM     40  C   UNL     1       2.673  -1.377  -2.313  0.00  0.00    +0.000 A 
ATOM     41  C   UNL     1       2.031  -0.931  -1.172  0.00  0.00    +0.005 A 
ENDBRANCH  35  36
ENDBRANCH  30  35
ENDBRANCH  24  31
ENDBRANCH  22  27
ENDBRANCH   1  22
TORSDOF 10
