REMARK  Name = ZINC32818098
REMARK  5 active torsions:
REMARK  status: ('A' for Active; 'I' for Inactive)
REMARK    1  A    between atoms: C_6  and  C_7
REMARK    2  A    between atoms: N_9  and  C_10
REMARK    3  A    between atoms: C_10  and  C_11
REMARK    4  A    between atoms: C_11  and  C_12
REMARK    5  A    between atoms: C_12  and  N_13
REMARK                            x       y       z     vdW  Elec       q    Type
REMARK                         _______ _______ _______ _____ _____    ______ ____
ROOT
ATOM      1  C   UNL     1      -2.183  -5.106  -1.455  0.00  0.00    +0.244 C 
ATOM      2  O   UNL     1      -2.409  -5.102  -0.260  0.00  0.00    -0.270 OA
ATOM      3  N   UNL     1      -2.546  -6.164  -2.206  0.00  0.00    -0.311 N 
ATOM      4  H   UNL     1      -2.342  -6.167  -3.287  0.00  0.00    +0.149 HD
ENDROOT
BRANCH   1  10
ATOM      5  C   UNL     1      -1.251  -3.955  -3.460  0.00  0.00    +0.015 A 
ATOM      6  C   UNL     1      -0.632  -2.896  -4.054  0.00  0.00    +0.027 A 
ATOM      7  C   UNL     1      -0.248  -1.792  -3.296  0.00  0.00    +0.047 A 
ATOM      8  C   UNL     1      -0.502  -1.775  -1.910  0.00  0.00    +0.004 A 
ATOM      9  C   UNL     1      -1.136  -2.858  -1.306  0.00  0.00    +0.023 A 
ATOM     10  C   UNL     1      -1.511  -3.951  -2.082  0.00  0.00    +0.037 A 
ATOM     11  C   UNL     1       0.019  -0.498  -1.421  0.00  0.00    -0.019 A 
ATOM     12  C   UNL     1       0.524   0.158  -2.479  0.00  0.00    +0.020 A 
ATOM     13  N   UNL     1       0.377  -0.608  -3.607  0.00  0.00    -0.358 N 
ATOM     14  H   UNL     1       0.676  -0.400  -4.644  0.00  0.00    +0.166 HD
ATOM     15  C   UNL     1       1.152   1.531  -2.429  0.00  0.00    +0.053 C 
ATOM     16  C   UNL     1       2.141   1.599  -1.264  0.00  0.00    +0.006 C 
ATOM     17  C   UNL     1       1.415   2.052  -0.000  0.00  0.00    +0.001 C 
ATOM     18  C   UNL     1      -0.019   1.527   0.010  0.00  0.00    +0.005 C 
ATOM     19  C   UNL     1       0.002  -0.004   0.002  0.00  0.00    +0.037 C 
ENDBRANCH   1  10
BRANCH   3  20
ATOM     20  C   UNL     1      -3.213  -7.310  -1.583  0.00  0.00    +0.106 C 
BRANCH  20  21
ATOM     21  C   UNL     1      -3.515  -8.366  -2.649  0.00  0.00    +0.038 C 
BRANCH  21  22
ATOM     22  C   UNL     1      -4.211  -9.563  -1.998  0.00  0.00    +0.119 C 
BRANCH  22  23
ATOM     23  N   UNL     1      -4.500 -10.573  -3.019  0.00  0.00    -0.224 N 
ATOM     24  C   UNL     1      -3.657 -11.572  -3.359  0.00  0.00    +0.246 C 
ATOM     25  O   UNL     1      -2.559 -11.796  -2.897  0.00  0.00    -0.273 OA
ATOM     26  C   UNL     1      -4.373 -12.348  -4.434  0.00  0.00    +0.113 C 
ATOM     27  C   UNL     1      -4.592 -13.806  -4.010  0.00  0.00    +0.035 C 
ATOM     28  C   UNL     1      -4.447 -14.607  -5.330  0.00  0.00    +0.003 C 
ATOM     29  C   UNL     1      -3.313 -13.851  -6.069  0.00  0.00    +0.003 C 
ATOM     30  C   UNL     1      -3.569 -12.364  -5.737  0.00  0.00    +0.035 C 
ATOM     31  N   UNL     1      -5.649 -11.649  -4.603  0.00  0.00    -0.285 N 
ATOM     32  C   UNL     1      -5.636 -10.625  -3.727  0.00  0.00    +0.309 C 
ATOM     33  O   UNL     1      -6.551  -9.835  -3.596  0.00  0.00    -0.252 OA
ATOM     34  H   UNL     1      -6.379 -12.008  -5.343  0.00  0.00    +0.151 HD
ENDBRANCH  22  23
ENDBRANCH  21  22
ENDBRANCH  20  21
ENDBRANCH   3  20
TORSDOF 5
