REMARK  Name = ZINC63375705
REMARK  6 active torsions:
REMARK  status: ('A' for Active; 'I' for Inactive)
REMARK    1  A    between atoms: C_1  and  O_2
REMARK    2  A    between atoms: O_2  and  C_3
REMARK    3  A    between atoms: C_10  and  C_18
REMARK    4  A    between atoms: C_20  and  O_35
REMARK    5  A    between atoms: N_22  and  C_28
REMARK    6  A    between atoms: C_28  and  C_29
REMARK                            x       y       z     vdW  Elec       q    Type
REMARK                         _______ _______ _______ _____ _____    ______ ____
ROOT
ATOM      1  C   UNL     1       4.497  -4.085   2.798  0.00  0.00    +0.141 C 
ATOM      2  C   UNL     1       5.814  -4.864   2.764  0.00  0.00    +0.218 C 
ATOM      3  N   UNL     1       6.517  -4.693   4.037  0.00  0.00    -0.282 N 
ATOM      4  C   UNL     1       6.470  -3.526   4.700  0.00  0.00    +0.141 C 
ATOM      5  S   UNL     1       7.425  -3.325   6.107  0.00  0.00    -0.018 S 
ATOM      6  N   UNL     1       5.692  -2.513   4.286  0.00  0.00    -0.267 N 
ATOM      7  C   UNL     1       4.753  -2.700   3.338  0.00  0.00    +0.227 C 
ATOM      8  O   UNL     1       4.116  -1.758   2.918  0.00  0.00    -0.275 OA
ATOM      9  H   UNL     1       5.807  -1.632   4.675  0.00  0.00    +0.157 HD
ENDROOT
BRANCH   1  16
ATOM     10  C   UNL     1       0.467  -1.333   0.294  0.00  0.00    +0.121 A 
ATOM     11  C   UNL     1       0.854  -0.364   1.237  0.00  0.00    +0.047 A 
ATOM     12  C   UNL     1       1.433  -0.689   2.413  0.00  0.00    +0.029 A 
ATOM     13  C   UNL     1       1.679  -2.095   2.743  0.00  0.00    +0.043 A 
ATOM     14  N   UNL     1       2.236  -2.666   3.786  0.00  0.00    -0.376 N 
ATOM     15  C   UNL     1       2.136  -4.113   3.628  0.00  0.00    +0.124 C 
ATOM     16  C   UNL     1       3.498  -4.809   3.703  0.00  0.00    +0.096 C 
ATOM     17  N   UNL     1       3.333  -6.199   3.248  0.00  0.00    -0.310 NA
ATOM     18  C   UNL     1       2.995  -6.305   1.825  0.00  0.00    +0.085 C 
ATOM     19  C   UNL     1       1.608  -5.689   1.564  0.00  0.00    +0.048 C 
ATOM     20  C   UNL     1       1.599  -4.328   2.222  0.00  0.00    -0.036 C 
ATOM     21  C   UNL     1       1.280  -3.119   1.744  0.00  0.00    +0.003 A 
ATOM     22  C   UNL     1       0.648  -2.658   0.502  0.00  0.00    +0.055 A 
ATOM     23  H   UNL     1       4.148  -6.751   3.468  0.00  0.00    +0.122 HD
ATOM     24  H   UNL     1       2.645  -2.204   4.535  0.00  0.00    +0.160 HD
BRANCH  10  26
ATOM     25  C   UNL     1      -0.287   0.483  -1.043  0.00  0.00    +0.277 C 
ATOM     26  O   UNL     1      -0.115  -0.924  -0.864  0.00  0.00    -0.495 OA
ENDBRANCH  10  26
ENDBRANCH   1  16
BRANCH   2  27
ATOM     27  O   UNL     1       5.541  -6.251   2.554  0.00  0.00    -0.373 OA
ATOM     28  H   UNL     1       6.332  -6.807   2.521  0.00  0.00    +0.212 HD
ENDBRANCH   2  27
BRANCH   3  29
ATOM     29  C   UNL     1       7.282  -5.811   4.596  0.00  0.00    +0.144 C 
BRANCH  29  30
ATOM     30  C   UNL     1       8.700  -5.752   4.089  0.00  0.00    -0.030 A 
ATOM     31  C   UNL     1       9.043  -6.398   2.917  0.00  0.00    +0.005 A 
ATOM     32  C   UNL     1      10.343  -6.344   2.452  0.00  0.00    +0.000 A 
ATOM     33  C   UNL     1      11.302  -5.643   3.160  0.00  0.00    +0.000 A 
ATOM     34  C   UNL     1      10.959  -4.996   4.332  0.00  0.00    +0.000 A 
ATOM     35  C   UNL     1       9.657  -5.046   4.795  0.00  0.00    +0.005 A 
ENDBRANCH  29  30
ENDBRANCH   3  29
TORSDOF 5
