REMARK  Name = ZINC51162225
REMARK  5 active torsions:
REMARK  status: ('A' for Active; 'I' for Inactive)
REMARK    1  A    between atoms: C_1  and  C_2
REMARK    2  A    between atoms: C_4  and  C_18
REMARK    3  A    between atoms: C_5  and  C_17
REMARK    4  A    between atoms: N_6  and  C_7
REMARK    5  A    between atoms: C_28  and  C_30
REMARK                            x       y       z     vdW  Elec       q    Type
REMARK                         _______ _______ _______ _____ _____    ______ ____
ROOT
ATOM      1  C   UNL     1       0.041  -3.340  -1.427  0.00  0.00    +0.026 C 
ATOM      2  C   UNL     1      -0.649  -3.368  -2.622  0.00  0.00    +0.079 C 
ATOM      3  C   UNL     1      -0.759  -4.610  -3.435  0.00  0.00    +0.132 C 
ATOM      4  N   UNL     1      -0.813  -5.807  -2.914  0.00  0.00    -0.385 N 
ATOM      5  N   UNL     1      -0.799  -4.368  -4.825  0.00  0.00    -0.153 N 
ATOM      6  C   UNL     1      -1.224  -3.124  -5.242  0.00  0.00    +0.181 C 
ATOM      7  N   UNL     1      -1.512  -2.088  -4.496  0.00  0.00    -0.152 NA
ATOM      8  C   UNL     1      -1.325  -2.164  -3.160  0.00  0.00    +0.273 C 
ATOM      9  O   UNL     1      -1.697  -1.268  -2.420  0.00  0.00    -0.268 OA
ATOM     10  S   UNL     1      -1.249  -3.308  -7.006  0.00  0.00    -0.033 S 
ATOM     11  C   UNL     1      -0.603  -4.973  -7.079  0.00  0.00    +0.130 C 
ATOM     12  N   UNL     1      -0.459  -5.271  -5.810  0.00  0.00    -0.164 NA
ATOM     13  H   UNL     1      -0.782  -5.919  -1.950  0.00  0.00    +0.157 HD
ATOM     14  H   UNL     1      -0.885  -6.585  -3.490  0.00  0.00    +0.157 HD
ENDROOT
BRANCH   1  18
ATOM     15  C   UNL     1       0.909   1.558  -0.545  0.00  0.00    +0.064 C 
ATOM     16  C   UNL     1       0.651   0.082  -0.384  0.00  0.00    +0.022 A 
ATOM     17  C   UNL     1       0.488  -0.794  -1.389  0.00  0.00    +0.031 A 
ATOM     18  C   UNL     1       0.264  -2.106  -0.765  0.00  0.00    -0.003 A 
ATOM     19  C   UNL     1       0.315  -1.889   0.602  0.00  0.00    +0.028 A 
ATOM     20  N   UNL     1       0.553  -0.578   0.810  0.00  0.00    -0.317 N 
ATOM     21  C   UNL     1       0.141  -2.937   1.671  0.00  0.00    +0.064 C 
BRANCH  20  22
ATOM     22  C   UNL     1       0.677   0.022   2.069  0.00  0.00    +0.047 A 
ATOM     23  C   UNL     1       1.750  -0.323   2.898  0.00  0.00    +0.027 A 
ATOM     24  C   UNL     1       1.896   0.244   4.125  0.00  0.00    +0.010 A 
ATOM     25  C   UNL     1       0.960   1.192   4.574  0.00  0.00    -0.018 A 
ATOM     26  C   UNL     1       1.085   1.795   5.838  0.00  0.00    +0.008 A 
ATOM     27  C   UNL     1       0.162   2.709   6.243  0.00  0.00    +0.001 A 
ATOM     28  C   UNL     1      -0.910   3.058   5.424  0.00  0.00    +0.001 A 
ATOM     29  C   UNL     1      -1.064   2.495   4.194  0.00  0.00    +0.008 A 
ATOM     30  C   UNL     1      -0.130   1.547   3.741  0.00  0.00    -0.016 A 
ATOM     31  C   UNL     1      -0.255   0.950   2.476  0.00  0.00    +0.034 A 
ENDBRANCH  20  22
ENDBRANCH   1  18
BRANCH  11  32
ATOM     32  C   UNL     1      -0.308  -5.804  -8.267  0.00  0.00    +0.009 A 
ATOM     33  C   UNL     1       0.192  -7.097  -8.111  0.00  0.00    +0.010 A 
ATOM     34  C   UNL     1       0.466  -7.867  -9.223  0.00  0.00    +0.001 A 
ATOM     35  C   UNL     1       0.246  -7.359 -10.491  0.00  0.00    +0.000 A 
ATOM     36  C   UNL     1      -0.249  -6.077 -10.652  0.00  0.00    +0.001 A 
ATOM     37  C   UNL     1      -0.533  -5.300  -9.548  0.00  0.00    +0.010 A 
ENDBRANCH  11  32
TORSDOF 3
