REMARK  Name = ZINC54541657
REMARK  10 active torsions:
REMARK  status: ('A' for Active; 'I' for Inactive)
REMARK    1  A    between atoms: C_1  and  C_2
REMARK    2  A    between atoms: C_6  and  N_9
REMARK    3  A    between atoms: C_7  and  C_8
REMARK    4  A    between atoms: C_16  and  N_32
REMARK    5  A    between atoms: C_17  and  N_21
REMARK    6  A    between atoms: N_21  and  C_22
REMARK    7  A    between atoms: C_24  and  C_30
REMARK    8  A    between atoms: C_24  and  C_31
REMARK    9  A    between atoms: C_26  and  C_28
REMARK   10  A    between atoms: C_26  and  C_29
REMARK                            x       y       z     vdW  Elec       q    Type
REMARK                         _______ _______ _______ _____ _____    ______ ____
ROOT
ATOM      1  N   UNL     1      -1.806  -4.431   2.227  0.00  0.00    -0.327 N 
ATOM      2  C   UNL     1      -1.773  -5.897   2.325  0.00  0.00    +0.124 C 
ATOM      3  C   UNL     1      -0.501  -6.310   3.076  0.00  0.00    +0.125 C 
ATOM      4  N   UNL     1      -0.404  -5.516   4.308  0.00  0.00    -0.311 N 
ATOM      5  C   UNL     1      -0.437  -4.050   4.210  0.00  0.00    +0.125 C 
ATOM      6  C   UNL     1      -1.703  -3.637   3.459  0.00  0.00    +0.124 C 
ATOM      7  C   UNL     1      -0.285  -6.140   5.545  0.00  0.00    +0.147 A 
ATOM      8  C   UNL     1       0.970  -6.511   6.032  0.00  0.00    +0.105 A 
ATOM      9  C   UNL     1       1.033  -7.134   7.280  0.00  0.00    +0.145 A 
ATOM     10  N   UNL     1      -0.096  -7.349   7.952  0.00  0.00    -0.219 NA
ATOM     11  C   UNL     1      -1.259  -6.983   7.455  0.00  0.00    +0.225 A 
ATOM     12  N   UNL     1      -1.363  -6.387   6.284  0.00  0.00    -0.219 NA
ENDROOT
BRANCH   1  18
ATOM     13  C   UNL     1      -4.662  -2.563  -1.309  0.00  0.00    +0.044 C 
ATOM     14  C   UNL     1      -3.299  -2.886  -0.754  0.00  0.00    -0.046 A 
ATOM     15  C   UNL     1      -2.164  -2.562  -1.476  0.00  0.00    +0.004 A 
ATOM     16  C   UNL     1      -0.912  -2.858  -0.971  0.00  0.00    +0.002 A 
ATOM     17  C   UNL     1      -0.789  -3.478   0.257  0.00  0.00    +0.023 A 
ATOM     18  C   UNL     1      -1.926  -3.804   0.985  0.00  0.00    +0.033 A 
ATOM     19  C   UNL     1      -3.183  -3.501   0.477  0.00  0.00    -0.027 A 
ATOM     20  C   UNL     1      -4.420  -3.849   1.266  0.00  0.00    +0.046 C 
ENDBRANCH   1  18
BRANCH   8  21
ATOM     21  N   UNL     1       2.135  -6.265   5.288  0.00  0.00    -0.353 N 
ATOM     22  H   UNL     1       2.086  -5.756   4.464  0.00  0.00    +0.143 HD
ATOM     23  H   UNL     1       2.990  -6.604   5.599  0.00  0.00    +0.143 HD
ENDBRANCH   8  21
BRANCH   9  24
ATOM     24  N   UNL     1       2.256  -7.525   7.812  0.00  0.00    -0.325 N 
ATOM     25  H   UNL     1       3.075  -7.365   7.316  0.00  0.00    +0.148 HD
BRANCH  24  26
ATOM     26  C   UNL     1       2.310  -8.179   9.125  0.00  0.00    +0.069 C 
ATOM     27  C   UNL     1       2.382  -7.110  10.217  0.00  0.00    +0.009 C 
ATOM     28  C   UNL     1       2.451  -7.776  11.591  0.00  0.00    -0.072 C 
ATOM     29  N   UNL     1       3.540  -8.738  11.680  0.00  0.00    +0.386 N 
ATOM     30  C   UNL     1       3.698  -9.682  10.585  0.00  0.00    -0.072 C 
ATOM     31  C   UNL     1       3.573  -9.036   9.210  0.00  0.00    +0.009 C 
ATOM     32  C   UNL     1       2.718 -10.853  10.702  0.00  0.00    -0.010 C 
ATOM     33  C   UNL     1       5.123 -10.275  10.686  0.00  0.00    -0.010 C 
ATOM     34  C   UNL     1       1.101  -8.401  11.944  0.00  0.00    -0.010 C 
ATOM     35  C   UNL     1       2.726  -6.662  12.627  0.00  0.00    -0.010 C 
ATOM     36  H   UNL     1       4.416  -8.221  11.787  0.00  0.00    -0.084 HD
ATOM     37  H   UNL     1       3.432  -9.266  12.549  0.00  0.00    -0.084 HD
ENDBRANCH  24  26
ENDBRANCH   9  24
TORSDOF 4
