REMARK  Name = ZINC12257911
REMARK  10 active torsions:
REMARK  status: ('A' for Active; 'I' for Inactive)
REMARK    1  A    between atoms: C_1  and  C_2
REMARK    2  A    between atoms: C_3  and  C_34
REMARK    3  A    between atoms: N_4  and  C_29
REMARK    4  A    between atoms: C_5  and  N_9
REMARK    5  A    between atoms: C_6  and  C_7
REMARK    6  A    between atoms: C_10  and  C_12
REMARK    7  A    between atoms: C_12  and  O_13
REMARK    8  A    between atoms: O_13  and  C_14
REMARK    9  A    between atoms: C_14  and  C_16
REMARK   10  A    between atoms: C_25  and  C_28
REMARK                            x       y       z     vdW  Elec       q    Type
REMARK                         _______ _______ _______ _____ _____    ______ ____
ROOT
ATOM      1  N   UNL     1       6.639   9.685  -1.676  0.00  0.00    -0.268 N 
ATOM      2  C   UNL     1       5.507   9.021  -1.369  0.00  0.00    +0.256 C 
ATOM      3  O   UNL     1       4.509   9.635  -1.058  0.00  0.00    -0.272 OA
ATOM      4  H   UNL     1       7.411   9.201  -2.007  0.00  0.00    +0.156 HD
ENDROOT
BRANCH   1   9
ATOM      5  C   UNL     1       5.902  14.409  -0.039  0.00  0.00    +0.047 C 
ATOM      6  C   UNL     1       6.390  13.206  -0.804  0.00  0.00    -0.011 A 
ATOM      7  C   UNL     1       7.266  13.204  -1.822  0.00  0.00    +0.022 A 
ATOM      8  N   UNL     1       7.458  11.918  -2.251  0.00  0.00    -0.329 N 
ATOM      9  C   UNL     1       6.699  11.062  -1.519  0.00  0.00    +0.124 A 
ATOM     10  C   UNL     1       5.999  11.809  -0.581  0.00  0.00    +0.095 A 
ATOM     11  C   UNL     1       7.935  14.425  -2.398  0.00  0.00    +0.064 C 
BRANCH   8  12
ATOM     12  C   UNL     1       8.351  11.523  -3.343  0.00  0.00    +0.089 C 
ATOM     13  C   UNL     1       7.587  10.653  -4.362  0.00  0.00    +0.025 C 
ATOM     14  C   UNL     1       8.626   9.596  -4.814  0.00  0.00    +0.002 C 
ATOM     15  C   UNL     1       9.392   9.288  -3.504  0.00  0.00    +0.002 C 
ATOM     16  C   UNL     1       9.499  10.655  -2.797  0.00  0.00    +0.025 C 
ENDBRANCH   8  12
BRANCH  10  17
ATOM     17  C   UNL     1       5.082  11.316   0.402  0.00  0.00    +0.103 C 
ATOM     18  N   UNL     1       4.355  10.925   1.183  0.00  0.00    -0.191 NA
ENDBRANCH  10  17
ENDBRANCH   1   9
BRANCH   2  19
ATOM     19  C   UNL     1       5.482   7.515  -1.412  0.00  0.00    +0.328 C 
BRANCH  19  20
ATOM     20  O   UNL     1       4.199   7.038  -0.930  0.00  0.00    -0.452 OA
BRANCH  20  21
ATOM     21  C   UNL     1       4.012   5.703  -0.904  0.00  0.00    +0.340 C 
ATOM     22  O   UNL     1       4.898   4.959  -1.274  0.00  0.00    -0.245 OA
BRANCH  21  23
ATOM     23  C   UNL     1       2.734   5.147  -0.427  0.00  0.00    +0.061 A 
ATOM     24  C   UNL     1       1.715   6.005  -0.002  0.00  0.00    +0.016 A 
ATOM     25  C   UNL     1       0.521   5.482   0.442  0.00  0.00    +0.017 A 
ATOM     26  C   UNL     1       0.330   4.107   0.467  0.00  0.00    +0.030 A 
ATOM     27  C   UNL     1       1.341   3.236   0.046  0.00  0.00    +0.048 A 
ATOM     28  C   UNL     1       2.542   3.764  -0.402  0.00  0.00    +0.039 A 
ATOM     29  N   UNL     1       1.168   1.855   0.068  0.00  0.00    -0.284 N 
ATOM     30  C   UNL     1       0.007   1.206   0.076  0.00  0.00    +0.230 C 
ATOM     31  O   UNL     1       0.028  -0.007   0.086  0.00  0.00    -0.274 OA
ATOM     32  C   UNL     1      -1.331   1.893   0.067  0.00  0.00    +0.134 C 
ATOM     33  S   UNL     1      -1.202   3.433   1.031  0.00  0.00    -0.111 S 
ATOM     34  C   UNL     1      -1.732   2.217  -1.373  0.00  0.00    +0.029 C 
ATOM     35  H   UNL     1       1.972   1.312   0.078  0.00  0.00    +0.155 HD
ENDBRANCH  21  23
ENDBRANCH  20  21
ENDBRANCH  19  20
ENDBRANCH   2  19
TORSDOF 7
