REMARK  Name = ZINC34782034
REMARK  9 active torsions:
REMARK  status: ('A' for Active; 'I' for Inactive)
REMARK    1  A    between atoms: C_1  and  C_2
REMARK    2  A    between atoms: C_2  and  C_3
REMARK    3  A    between atoms: C_6  and  N_9
REMARK    4  A    between atoms: C_14  and  C_36
REMARK    5  A    between atoms: C_17  and  C_22
REMARK    6  A    between atoms: C_17  and  C_33
REMARK    7  A    between atoms: C_22  and  C_23
REMARK    8  A    between atoms: C_38  and  C_43
REMARK    9  A    between atoms: C_41  and  C_42
REMARK                            x       y       z     vdW  Elec       q    Type
REMARK                         _______ _______ _______ _____ _____    ______ ____
ROOT
ATOM      1  N   UNL     1       2.115  -2.098  -4.985  0.00  0.00    -0.210 N 
ATOM      2  C   UNL     1       1.710  -2.399  -6.261  0.00  0.00    +0.229 C 
ATOM      3  O   UNL     1       0.621  -2.204  -6.759  0.00  0.00    -0.275 OA
ATOM      4  C   UNL     1       2.869  -2.999  -6.880  0.00  0.00    +0.077 C 
ATOM      5  C   UNL     1       3.404  -3.305  -8.214  0.00  0.00    -0.026 C 
ATOM      6  N   UNL     1       4.871  -3.515  -7.986  0.00  0.00    +0.396 N 
ATOM      7  C   UNL     1       5.154  -3.200  -6.548  0.00  0.00    +0.052 C 
ATOM      8  C   UNL     1       4.046  -2.177  -6.218  0.00  0.00    +0.086 C 
ATOM      9  C   UNL     1       3.470  -2.175  -4.829  0.00  0.00    +0.229 C 
ATOM     10  O   UNL     1       4.083  -2.233  -3.784  0.00  0.00    -0.275 OA
ATOM     11  H   UNL     1       5.114  -4.475  -8.181  0.00  0.00    -0.083 HD
ATOM     12  H   UNL     1       5.402  -2.898  -8.582  0.00  0.00    -0.083 HD
ENDROOT
BRANCH   5  13
ATOM     13  C   UNL     1       3.173  -2.149  -9.152  0.00  0.00    -0.057 A 
ATOM     14  C   UNL     1       2.818  -0.911  -8.649  0.00  0.00    +0.005 A 
ATOM     15  C   UNL     1       2.607   0.150  -9.510  0.00  0.00    -0.050 A 
ATOM     16  C   UNL     1       2.752  -0.026 -10.873  0.00  0.00    +0.003 A 
ATOM     17  C   UNL     1       3.108  -1.264 -11.376  0.00  0.00    +0.004 A 
ATOM     18  C   UNL     1       3.323  -2.324 -10.515  0.00  0.00    -0.049 A 
ATOM     19  C   UNL     1       3.717  -3.671 -11.063  0.00  0.00    +0.044 C 
ATOM     20  C   UNL     1       2.219   1.499  -8.961  0.00  0.00    +0.044 C 
ENDBRANCH   5  13
BRANCH   1  24
ATOM     21  C   UNL     1      -0.505  -1.043  -1.919  0.00  0.00    -0.048 A 
ATOM     22  C   UNL     1      -0.998  -1.337  -3.177  0.00  0.00    +0.005 A 
ATOM     23  C   UNL     1      -0.132  -1.686  -4.195  0.00  0.00    +0.024 A 
ATOM     24  C   UNL     1       1.234  -1.742  -3.954  0.00  0.00    +0.044 A 
ATOM     25  C   UNL     1       1.726  -1.446  -2.690  0.00  0.00    +0.024 A 
ATOM     26  C   UNL     1       0.856  -1.093  -1.677  0.00  0.00    +0.005 A 
BRANCH  21  28
ATOM     27  C   UNL     1      -1.655   0.855  -0.812  0.00  0.00    +0.009 C 
ATOM     28  C   UNL     1      -1.452  -0.661  -0.811  0.00  0.00    +0.032 C 
ENDBRANCH  21  28
ENDBRANCH   1  24
BRANCH   7  29
ATOM     29  C   UNL     1       6.514  -2.570  -6.396  0.00  0.00    +0.347 C 
ATOM     30  O   UNL     1       7.224  -2.409  -7.374  0.00  0.00    -0.248 OA
ATOM     31  O   UNL     1       6.905  -2.221  -5.295  0.00  0.00    -0.248 OA
ENDBRANCH   7  29
BRANCH   7  32
ATOM     32  C   UNL     1       5.038  -4.459  -5.685  0.00  0.00    +0.037 C 
BRANCH  32  33
ATOM     33  C   UNL     1       5.997  -5.505  -6.192  0.00  0.00    -0.023 A 
ATOM     34  C   UNL     1       5.715  -6.495  -7.053  0.00  0.00    +0.087 A 
ATOM     35  N   UNL     1       6.835  -7.249  -7.280  0.00  0.00    -0.360 N 
ATOM     36  H   UNL     1       6.878  -8.020  -7.867  0.00  0.00    +0.165 HD
ATOM     37  C   UNL     1       7.891  -6.749  -6.551  0.00  0.00    +0.047 A 
ATOM     38  C   UNL     1       7.414  -5.631  -5.842  0.00  0.00    +0.003 A 
ATOM     39  C   UNL     1       8.276  -4.912  -5.014  0.00  0.00    +0.010 A 
ATOM     40  C   UNL     1       9.583  -5.296  -4.898  0.00  0.00    +0.001 A 
ATOM     41  C   UNL     1      10.059  -6.395  -5.598  0.00  0.00    +0.002 A 
ATOM     42  C   UNL     1       9.223  -7.125  -6.415  0.00  0.00    +0.026 A 
ENDBRANCH  32  33
ENDBRANCH   7  32
TORSDOF 6
