REMARK  Name = ZINC36303175
REMARK  16 active torsions:
REMARK  status: ('A' for Active; 'I' for Inactive)
REMARK    1  A    between atoms: C_1  and  C_2
REMARK    2  A    between atoms: C_2  and  C_3
REMARK    3  A    between atoms: C_4  and  C_22
REMARK    4  A    between atoms: C_5  and  O_14
REMARK    5  A    between atoms: N_6  and  C_8
REMARK    6  A    between atoms: O_14  and  C_15
REMARK    7  A    between atoms: C_22  and  N_23
REMARK    8  A    between atoms: N_23  and  C_24
REMARK    9  A    between atoms: N_23  and  C_31
REMARK   10  A    between atoms: C_24  and  C_25
REMARK   11  A    between atoms: C_31  and  C_32
REMARK   12  A    between atoms: C_32  and  C_34
REMARK   13  A    between atoms: C_32  and  O_39
REMARK   14  A    between atoms: C_34  and  O_35
REMARK   15  A    between atoms: O_35  and  C_36
REMARK   16  A    between atoms: C_36  and  C_37
REMARK                            x       y       z     vdW  Elec       q    Type
REMARK                         _______ _______ _______ _____ _____    ______ ____
ROOT
ATOM      1  C   UNL     1       0.791  -1.011   1.819  0.00  0.00    +0.068 A 
ATOM      2  C   UNL     1       2.025  -1.039   1.161  0.00  0.00    +0.021 A 
ATOM      3  C   UNL     1       2.970  -1.418   2.063  0.00  0.00    +0.225 A 
ATOM      4  N   UNL     1       2.342  -1.620   3.252  0.00  0.00    -0.200 N 
ATOM      5  N   UNL     1       0.979  -1.352   3.068  0.00  0.00    -0.168 NA
ENDROOT
BRANCH   4   6
ATOM      6  C   UNL     1       2.950  -2.020   4.450  0.00  0.00    +0.069 A 
ATOM      7  C   UNL     1       3.890  -3.043   4.445  0.00  0.00    +0.028 A 
ATOM      8  C   UNL     1       4.488  -3.434   5.627  0.00  0.00    +0.002 A 
ATOM      9  C   UNL     1       4.151  -2.810   6.814  0.00  0.00    +0.000 A 
ATOM     10  C   UNL     1       3.215  -1.792   6.822  0.00  0.00    +0.002 A 
ATOM     11  C   UNL     1       2.618  -1.392   5.643  0.00  0.00    +0.028 A 
ENDBRANCH   4   6
BRANCH   1  13
ATOM     12  C   UNL     1      -0.722   0.874   1.263  0.00  0.00    +0.010 C 
ATOM     13  C   UNL     1      -0.531  -0.643   1.196  0.00  0.00    +0.054 C 
ENDBRANCH   1  13
BRANCH   3  14
ATOM     14  O   UNL     1       4.297  -1.567   1.820  0.00  0.00    -0.435 OA
BRANCH  14  15
ATOM     15  C   UNL     1       4.721  -2.747   1.296  0.00  0.00    +0.165 A 
ATOM     16  C   UNL     1       3.799  -3.715   0.926  0.00  0.00    +0.049 A 
ATOM     17  C   UNL     1       4.232  -4.913   0.393  0.00  0.00    +0.004 A 
ATOM     18  C   UNL     1       5.584  -5.150   0.228  0.00  0.00    +0.003 A 
ATOM     19  C   UNL     1       6.507  -4.188   0.595  0.00  0.00    +0.042 A 
ATOM     20  C   UNL     1       6.079  -2.984   1.124  0.00  0.00    +0.165 A 
ATOM     21  F   UNL     1       6.980  -2.042   1.478  0.00  0.00    -0.202 F 
ENDBRANCH  14  15
ENDBRANCH   3  14
BRANCH   2  22
ATOM     22  C   UNL     1       2.264  -0.709  -0.289  0.00  0.00    -0.036 C 
BRANCH  22  23
ATOM     23  N   UNL     1       2.495   0.734  -0.432  0.00  0.00    +0.386 N 
ATOM     24  H   UNL     1       1.750   1.240   0.023  0.00  0.00    -0.081 HD
BRANCH  23  25
ATOM     25  C   UNL     1       2.527   1.087  -1.858  0.00  0.00    -0.046 C 
BRANCH  25  26
ATOM     26  C   UNL     1       3.717   0.396  -2.527  0.00  0.00    +0.102 C 
ATOM     27  C   UNL     1       3.857   0.889  -3.984  0.00  0.00    +0.032 C 
ATOM     28  C   UNL     1       4.245  -0.413  -4.736  0.00  0.00    +0.030 C 
ATOM     29  C   UNL     1       3.445  -1.468  -3.931  0.00  0.00    +0.160 C 
ATOM     30  O   UNL     1       3.498  -1.019  -2.566  0.00  0.00    -0.378 OA
ENDBRANCH  25  26
ENDBRANCH  23  25
BRANCH  23  31
ATOM     31  C   UNL     1       3.778   1.089   0.189  0.00  0.00    -0.044 C 
BRANCH  31  32
ATOM     32  C   UNL     1       3.948   2.609   0.177  0.00  0.00    +0.124 C 
BRANCH  32  33
ATOM     33  O   UNL     1       4.145   3.056  -1.166  0.00  0.00    -0.391 OA
ATOM     34  H   UNL     1       4.925   2.678  -1.595  0.00  0.00    +0.210 HD
ENDBRANCH  32  33
BRANCH  32  35
ATOM     35  C   UNL     1       5.161   2.994   1.026  0.00  0.00    +0.189 C 
BRANCH  35  36
ATOM     36  O   UNL     1       5.252   4.418   1.110  0.00  0.00    -0.373 OA
BRANCH  36  37
ATOM     37  C   UNL     1       6.357   4.885   1.885  0.00  0.00    +0.186 C 
BRANCH  37  38
ATOM     38  C   UNL     1       6.355   6.392   1.907  0.00  0.00    -0.007 C 
ATOM     39  C   UNL     1       6.555   7.031   3.032  0.00  0.00    +0.006 C 
ENDBRANCH  37  38
ENDBRANCH  36  37
ENDBRANCH  35  36
ENDBRANCH  32  35
ENDBRANCH  31  32
ENDBRANCH  23  31
ENDBRANCH  22  23
ENDBRANCH   2  22
TORSDOF 15
