REMARK  Name = ZINC02270477
REMARK  5 active torsions:
REMARK  status: ('A' for Active; 'I' for Inactive)
REMARK    1  A    between atoms: C_1  and  C_2
REMARK    2  A    between atoms: C_2  and  C_26
REMARK    3  A    between atoms: N_6  and  C_7
REMARK    4  A    between atoms: C_19  and  O_24
REMARK    5  A    between atoms: O_24  and  C_25
REMARK                            x       y       z     vdW  Elec       q    Type
REMARK                         _______ _______ _______ _____ _____    ______ ____
ROOT
ATOM      1  C   UNL     1      -3.322  -6.434   0.181  0.00  0.00    +0.037 C 
ATOM      2  C   UNL     1      -3.538  -5.077  -0.492  0.00  0.00    +0.059 C 
ATOM      3  C   UNL     1      -2.291  -4.233  -0.343  0.00  0.00    +0.030 A 
ATOM      4  C   UNL     1      -2.295  -2.869  -0.204  0.00  0.00    +0.029 A 
ATOM      5  C   UNL     1      -1.149  -2.030  -0.098  0.00  0.00    +0.117 A 
ATOM      6  N   UNL     1      -1.168  -0.705   0.010  0.00  0.00    -0.240 NA
ATOM      7  S   UNL     1       0.318  -3.050  -0.141  0.00  0.00    -0.032 S 
ATOM      8  S   UNL     1      -0.681  -4.877  -0.335  0.00  0.00    -0.052 S 
ATOM      9  C   UNL     1      -3.655  -2.203  -0.171  0.00  0.00    +0.010 A 
ATOM     10  C   UNL     1      -3.757  -0.825  -0.269  0.00  0.00    +0.056 A 
ATOM     11  C   UNL     1      -5.014  -0.236  -0.246  0.00  0.00    +0.121 A 
ATOM     12  C   UNL     1      -6.148  -1.025  -0.119  0.00  0.00    +0.047 A 
ATOM     13  C   UNL     1      -6.043  -2.400  -0.001  0.00  0.00    +0.027 A 
ATOM     14  C   UNL     1      -4.791  -2.997  -0.015  0.00  0.00    +0.036 A 
ATOM     15  N   UNL     1      -4.660  -4.381   0.150  0.00  0.00    -0.334 N 
ATOM     16  C   UNL     1      -3.843  -5.281  -1.977  0.00  0.00    +0.037 C 
ATOM     17  H   UNL     1      -5.304  -4.875   0.682  0.00  0.00    +0.147 HD
ENDROOT
BRANCH   6  18
ATOM     18  C   UNL     1       0.002  -0.004  -0.005  0.00  0.00    +0.068 A 
ATOM     19  C   UNL     1       0.628   0.343   1.197  0.00  0.00    +0.047 A 
ATOM     20  C   UNL     1       1.812   1.052   1.174  0.00  0.00    +0.044 A 
ATOM     21  C   UNL     1       2.379   1.422  -0.034  0.00  0.00    +0.040 A 
ATOM     22  C   UNL     1       1.764   1.082  -1.228  0.00  0.00    +0.044 A 
ATOM     23  C   UNL     1       0.580   0.373  -1.221  0.00  0.00    +0.047 A 
ATOM     24 CL   UNL     1       2.484   1.551  -2.737  0.00  0.00    -0.083 Cl
ATOM     25 CL   UNL     1       2.591   1.484   2.664  0.00  0.00    -0.083 Cl
ENDBRANCH   6  18
BRANCH  11  26
ATOM     26  O   UNL     1      -5.134   1.115  -0.349  0.00  0.00    -0.495 OA
ATOM     27  C   UNL     1      -6.457   1.653  -0.318  0.00  0.00    +0.277 C 
ENDBRANCH  11  26
TORSDOF 2
