REMARK  Name = ZINC38702151
REMARK  9 active torsions:
REMARK  status: ('A' for Active; 'I' for Inactive)
REMARK    1  A    between atoms: C_1  and  C_2
REMARK    2  A    between atoms: C_4  and  C_38
REMARK    3  A    between atoms: C_5  and  O_37
REMARK    4  A    between atoms: C_6  and  C_8
REMARK    5  A    between atoms: N_16  and  C_29
REMARK    6  A    between atoms: C_17  and  C_19
REMARK    7  A    between atoms: C_23  and  O_25
REMARK    8  A    between atoms: O_25  and  C_26
REMARK    9  A    between atoms: C_26  and  C_27
REMARK                            x       y       z     vdW  Elec       q    Type
REMARK                         _______ _______ _______ _____ _____    ______ ____
ROOT
ATOM      1  C   UNL     1      -0.204  -3.109   2.772  0.00  0.00    +0.102 A 
ATOM      2  C   UNL     1       0.031  -2.390   3.949  0.00  0.00    +0.035 A 
ATOM      3  C   UNL     1       0.080  -3.330   4.961  0.00  0.00    +0.126 A 
ATOM      4  N   UNL     1      -0.124  -4.541   4.364  0.00  0.00    -0.272 N 
ATOM      5  H   UNL     1      -0.143  -5.394   4.827  0.00  0.00    +0.189 HD
ATOM      6  N   UNL     1      -0.290  -4.384   3.099  0.00  0.00    -0.173 NA
ATOM      7  C   UNL     1       0.325  -2.636   6.231  0.00  0.00    +0.266 C 
ATOM      8  O   UNL     1       0.423  -3.182   7.313  0.00  0.00    -0.268 OA
ATOM      9  N   UNL     1       0.428  -1.310   6.027  0.00  0.00    -0.280 N 
ATOM     10  C   UNL     1       0.253  -1.049   4.593  0.00  0.00    +0.142 C 
ENDROOT
BRANCH   1  16
ATOM     11  C   UNL     1       1.439  -0.053  -0.816  0.00  0.00    +0.044 C 
ATOM     12  C   UNL     1       0.447  -1.073  -0.321  0.00  0.00    -0.049 A 
ATOM     13  C   UNL     1      -0.592  -1.479  -1.140  0.00  0.00    +0.010 A 
ATOM     14  C   UNL     1      -1.507  -2.414  -0.694  0.00  0.00    -0.008 A 
ATOM     15  C   UNL     1      -1.388  -2.950   0.579  0.00  0.00    +0.129 A 
ATOM     16  C   UNL     1      -0.340  -2.542   1.408  0.00  0.00    +0.044 A 
ATOM     17  C   UNL     1       0.580  -1.603   0.947  0.00  0.00    +0.017 A 
ATOM     18  C   UNL     1      -2.635  -2.851  -1.592  0.00  0.00    +0.047 C 
BRANCH  15  19
ATOM     19  O   UNL     1      -2.287  -3.868   1.018  0.00  0.00    -0.506 OA
ATOM     20  H   UNL     1      -2.041  -4.783   0.825  0.00  0.00    +0.292 HD
ENDBRANCH  15  19
ENDBRANCH   1  16
BRANCH   9  21
ATOM     21  C   UNL     1       0.672  -0.300   7.060  0.00  0.00    +0.100 C 
ATOM     22  C   UNL     1       1.997  -0.603   7.779  0.00  0.00    +0.047 C 
ATOM     23  C   UNL     1       2.107   0.253   9.065  0.00  0.00    +0.168 C 
ATOM     24  S   UNL     1       0.347   0.511   9.530  0.00  0.00    -0.029 S 
ATOM     25  O   UNL     1       0.073  -0.211  10.723  0.00  0.00    -0.174 OA
ATOM     26  O   UNL     1       0.051   1.900   9.469  0.00  0.00    -0.174 OA
ATOM     27  C   UNL     1      -0.471  -0.339   8.114  0.00  0.00    +0.188 C 
ENDBRANCH   9  21
BRANCH  10  28
ATOM     28  C   UNL     1      -0.944  -0.162   4.369  0.00  0.00    -0.019 A 
ATOM     29  C   UNL     1      -2.115  -0.390   5.069  0.00  0.00    +0.006 A 
ATOM     30  C   UNL     1      -3.215   0.422   4.866  0.00  0.00    +0.004 A 
ATOM     31  C   UNL     1      -3.148   1.464   3.962  0.00  0.00    +0.045 A 
ATOM     32  C   UNL     1      -1.975   1.696   3.258  0.00  0.00    +0.121 A 
ATOM     33  C   UNL     1      -0.870   0.883   3.468  0.00  0.00    +0.051 A 
BRANCH  32  34
ATOM     34  O   UNL     1      -1.907   2.720   2.368  0.00  0.00    -0.488 OA
BRANCH  34  35
ATOM     35  C   UNL     1      -3.080   3.520   2.207  0.00  0.00    +0.256 C 
BRANCH  35  36
ATOM     36  C   UNL     1      -2.818   4.598   1.188  0.00  0.00    +0.006 C 
ATOM     37  C   UNL     1      -3.705   4.850   0.258  0.00  0.00    +0.007 C 
ENDBRANCH  35  36
ENDBRANCH  34  35
ENDBRANCH  32  34
ENDBRANCH  10  28
TORSDOF 7
