REMARK  Name = ZINC13211227
REMARK  3 active torsions:
REMARK  status: ('A' for Active; 'I' for Inactive)
REMARK    1  A    between atoms: C_1  and  C_2
REMARK    2  A    between atoms: C_7  and  C_8
REMARK    3  A    between atoms: C_11  and  C_23
REMARK                            x       y       z     vdW  Elec       q    Type
REMARK                         _______ _______ _______ _____ _____    ______ ____
ROOT
ATOM      1  C   UNL     1       0.025   0.045   2.504  0.00  0.00    +0.114 C 
ATOM      2  C   UNL     1      -1.416   0.372   2.922  0.00  0.00    +0.057 C 
ATOM      3  C   UNL     1      -1.419   0.953   4.337  0.00  0.00    +0.114 C 
ATOM      4  N   UNL     1      -0.802   0.012   5.277  0.00  0.00    -0.354 N 
ATOM      5  C   UNL     1       0.158  -0.772   4.866  0.00  0.00    +0.166 C 
ATOM      6  N   UNL     1       0.609  -0.796   3.558  0.00  0.00    -0.265 N 
ATOM      7  C   UNL     1       1.633  -1.710   3.470  0.00  0.00    +0.058 A 
ATOM      8  C   UNL     1       2.430  -2.105   2.402  0.00  0.00    +0.025 A 
ATOM      9  C   UNL     1       3.392  -3.072   2.654  0.00  0.00    +0.002 A 
ATOM     10  C   UNL     1       3.557  -3.625   3.909  0.00  0.00    +0.002 A 
ATOM     11  C   UNL     1       2.770  -3.243   4.986  0.00  0.00    +0.025 A 
ATOM     12  C   UNL     1       1.802  -2.274   4.749  0.00  0.00    +0.055 A 
ATOM     13  N   UNL     1       0.872  -1.688   5.593  0.00  0.00    -0.287 N 
ATOM     14  H   UNL     1       0.750  -1.888   6.534  0.00  0.00    +0.155 HD
ATOM     15  H   UNL     1      -1.105  -0.027   6.198  0.00  0.00    +0.163 HD
ENDROOT
BRANCH   1  22
ATOM     16  C   UNL     1      -0.018   1.503   0.010  0.00  0.00    +0.044 C 
ATOM     17  C   UNL     1       0.002  -0.004   0.002  0.00  0.00    -0.045 A 
ATOM     18  C   UNL     1       0.006  -0.689  -1.199  0.00  0.00    +0.004 A 
ATOM     19  C   UNL     1       0.025  -2.071  -1.207  0.00  0.00    +0.000 A 
ATOM     20  C   UNL     1       0.040  -2.768  -0.013  0.00  0.00    +0.000 A 
ATOM     21  C   UNL     1       0.037  -2.084   1.188  0.00  0.00    +0.006 A 
ATOM     22  C   UNL     1       0.023  -0.702   1.195  0.00  0.00    -0.024 A 
ENDBRANCH   1  22
BRANCH   3  23
ATOM     23  C   UNL     1      -0.641   2.243   4.347  0.00  0.00    -0.025 A 
ATOM     24  C   UNL     1       0.741   2.217   4.389  0.00  0.00    +0.007 A 
ATOM     25  C   UNL     1       1.455   3.401   4.398  0.00  0.00    +0.015 A 
ATOM     26  C   UNL     1       0.786   4.611   4.364  0.00  0.00    +0.018 A 
ATOM     27  C   UNL     1      -0.596   4.637   4.322  0.00  0.00    +0.015 A 
ATOM     28  C   UNL     1      -1.309   3.453   4.308  0.00  0.00    +0.007 A 
ATOM     29 BR   UNL     1       1.763   6.231   4.377  0.00  0.00    -0.050 Br
ENDBRANCH   3  23
TORSDOF 2
