REMARK  Name = ZINC39675212
REMARK  9 active torsions:
REMARK  status: ('A' for Active; 'I' for Inactive)
REMARK    1  A    between atoms: C_1  and  C_2
REMARK    2  A    between atoms: C_2  and  C_4
REMARK    3  A    between atoms: C_2  and  N_14
REMARK    4  A    between atoms: C_4  and  C_5
REMARK    5  A    between atoms: C_5  and  C_6
REMARK    6  A    between atoms: C_9  and  O_12
REMARK    7  A    between atoms: O_12  and  C_13
REMARK    8  A    between atoms: C_15  and  C_17
REMARK    9  A    between atoms: C_28  and  C_30
REMARK                            x       y       z     vdW  Elec       q    Type
REMARK                         _______ _______ _______ _____ _____    ______ ____
ROOT
ATOM      1  C   UNL     1       1.276  -1.369   3.933  0.00  0.00    +0.100 C 
ATOM      2  C   UNL     1       2.298  -0.219   4.071  0.00  0.00    +0.121 C 
ATOM      3  N   UNL     1       1.686   0.712   5.048  0.00  0.00    -0.296 N 
ATOM      4  C   UNL     1       1.062  -0.174   6.060  0.00  0.00    +0.115 C 
ATOM      5  C   UNL     1       0.468  -1.339   5.242  0.00  0.00    -0.004 C 
ATOM      6  C   UNL     1      -1.006  -1.078   4.947  0.00  0.00    -0.010 C 
ATOM      7  C   UNL     1      -1.796  -1.108   6.258  0.00  0.00    -0.082 C 
ATOM      8  N   UNL     1      -1.629  -2.417   6.902  0.00  0.00    +0.379 N 
ATOM      9  C   UNL     1      -0.222  -2.620   7.266  0.00  0.00    -0.082 C 
ATOM     10  C   UNL     1       0.635  -2.653   5.997  0.00  0.00    -0.010 C 
ATOM     11  C   UNL     1       1.694   2.059   5.023  0.00  0.00    +0.247 C 
ATOM     12  O   UNL     1       2.142   2.646   4.057  0.00  0.00    -0.270 OA
ATOM     13  H   UNL     1      -2.199  -2.456   7.734  0.00  0.00    -0.086 HD
ATOM     14  H   UNL     1      -1.919  -3.143   6.265  0.00  0.00    -0.086 HD
ENDROOT
BRANCH  11  15
ATOM     15  C   UNL     1       1.159   2.823   6.169  0.00  0.00    +0.037 A 
ATOM     16  C   UNL     1       1.069   2.213   7.433  0.00  0.00    +0.013 A 
ATOM     17  C   UNL     1       0.581   2.894   8.501  0.00  0.00    +0.009 A 
ATOM     18  C   UNL     1       0.156   4.227   8.352  0.00  0.00    -0.018 A 
ATOM     19  C   UNL     1      -0.352   4.952   9.442  0.00  0.00    +0.008 A 
ATOM     20  C   UNL     1      -0.755   6.241   9.267  0.00  0.00    +0.001 A 
ATOM     21  C   UNL     1      -0.672   6.856   8.020  0.00  0.00    +0.001 A 
ATOM     22  C   UNL     1      -0.185   6.186   6.940  0.00  0.00    +0.008 A 
ATOM     23  C   UNL     1       0.241   4.853   7.082  0.00  0.00    -0.017 A 
ATOM     24  C   UNL     1       0.754   4.136   5.991  0.00  0.00    +0.021 A 
ENDBRANCH  11  15
BRANCH   1  26
ATOM     25  N   UNL     1      -0.230  -2.168   2.141  0.00  0.00    -0.312 N 
ATOM     26  C   UNL     1       0.370  -1.128   2.753  0.00  0.00    +0.218 C 
ATOM     27  O   UNL     1       0.183   0.002   2.353  0.00  0.00    -0.275 OA
ATOM     28  H   UNL     1      -0.080  -3.071   2.460  0.00  0.00    +0.149 HD
BRANCH  25  30
ATOM     29  C   UNL     1      -0.272  -1.855  -0.284  0.00  0.00    +0.028 C 
ATOM     30  C   UNL     1      -1.110  -1.933   0.993  0.00  0.00    +0.070 C 
BRANCH  30  31
ATOM     31  C   UNL     1      -2.113  -3.083   0.876  0.00  0.00    +0.026 C 
BRANCH  31  32
ATOM     32  C   UNL     1      -3.033  -3.084   2.098  0.00  0.00    +0.037 C 
BRANCH  32  33
ATOM     33  C   UNL     1      -4.021  -4.216   1.983  0.00  0.00    -0.047 A 
ATOM     34  C   UNL     1      -5.234  -4.013   1.351  0.00  0.00    +0.007 A 
ATOM     35  C   UNL     1      -6.141  -5.049   1.244  0.00  0.00    +0.046 A 
ATOM     36  C   UNL     1      -5.834  -6.295   1.771  0.00  0.00    +0.120 A 
ATOM     37  C   UNL     1      -4.616  -6.497   2.405  0.00  0.00    +0.046 A 
ATOM     38  C   UNL     1      -3.710  -5.459   2.504  0.00  0.00    +0.007 A 
BRANCH  36  39
ATOM     39  O   UNL     1      -6.725  -7.316   1.668  0.00  0.00    -0.495 OA
ATOM     40  C   UNL     1      -6.341  -8.571   2.234  0.00  0.00    +0.277 C 
ENDBRANCH  36  39
ENDBRANCH  32  33
ENDBRANCH  31  32
ENDBRANCH  30  31
ENDBRANCH  25  30
ENDBRANCH   1  26
TORSDOF 7
