REMARK  Name = ZINC11718128
REMARK  7 active torsions:
REMARK  status: ('A' for Active; 'I' for Inactive)
REMARK    1  A    between atoms: C_1  and  C_2
REMARK    2  A    between atoms: C_2  and  C_4
REMARK    3  A    between atoms: C_2  and  N_49
REMARK    4  A    between atoms: N_6  and  C_7
REMARK    5  A    between atoms: C_17  and  N_20
REMARK    6  A    between atoms: N_20  and  S_21
REMARK    7  A    between atoms: S_21  and  C_24
REMARK                            x       y       z     vdW  Elec       q    Type
REMARK                         _______ _______ _______ _____ _____    ______ ____
ROOT
ATOM      1  C   UNL     1       3.226   3.650   1.209  0.00  0.00    -0.076 C 
ATOM      2  C   UNL     1       4.673   4.125   1.062  0.00  0.00    +0.002 C 
ATOM      3  C   UNL     1       4.704   5.656   1.051  0.00  0.00    +0.073 C 
ATOM      4  C   UNL     1       3.823   6.169  -0.090  0.00  0.00    +0.002 C 
ATOM      5  C   UNL     1       2.400   5.635   0.091  0.00  0.00    -0.076 C 
ATOM      6  N   UNL     1       2.436   4.157   0.067  0.00  0.00    +0.387 N 
ATOM      7  H   UNL     1       2.878   3.849  -0.807  0.00  0.00    -0.081 HD
ENDROOT
BRANCH   6   9
ATOM      8  C   UNL     1       0.391   3.996   1.448  0.00  0.00    -0.004 C 
ATOM      9  C   UNL     1       1.061   3.618   0.126  0.00  0.00    +0.016 C 
BRANCH   9  10
ATOM     10  C   UNL     1       1.121   2.117   0.003  0.00  0.00    +0.203 C 
ATOM     11  O   UNL     1       2.193   1.560  -0.101  0.00  0.00    -0.277 OA
ATOM     12  N   UNL     1      -0.017   1.395   0.010  0.00  0.00    -0.287 N 
ATOM     13  H   UNL     1      -0.876   1.844   0.021  0.00  0.00    +0.155 HD
BRANCH  12  14
ATOM     14  C   UNL     1       0.042  -0.003  -0.006  0.00  0.00    +0.036 A 
ATOM     15  C   UNL     1       1.042  -0.649  -0.721  0.00  0.00    +0.043 A 
ATOM     16  C   UNL     1       1.100  -2.030  -0.730  0.00  0.00    +0.044 A 
ATOM     17  C   UNL     1       0.157  -2.769  -0.038  0.00  0.00    +0.040 A 
ATOM     18  C   UNL     1      -0.843  -2.127   0.671  0.00  0.00    +0.044 A 
ATOM     19  C   UNL     1      -0.903  -0.747   0.689  0.00  0.00    +0.043 A 
ATOM     20 CL   UNL     1      -2.024  -3.058   1.539  0.00  0.00    -0.083 Cl
ATOM     21 CL   UNL     1       2.354  -2.839  -1.619  0.00  0.00    -0.083 Cl
ENDBRANCH  12  14
ENDBRANCH   9  10
ENDBRANCH   6   9
BRANCH   3  22
ATOM     22  N   UNL     1       6.081   6.116   0.852  0.00  0.00    -0.187 NA
ATOM     23  H   UNL     1       6.442   6.192  -0.045  0.00  0.00    +0.148 HD
BRANCH  22  24
ATOM     24  S   UNL     1       7.021   6.508   2.158  0.00  0.00    +0.065 S 
ATOM     25  O   UNL     1       8.291   6.886   1.646  0.00  0.00    -0.153 OA
ATOM     26  O   UNL     1       6.241   7.370   2.975  0.00  0.00    -0.153 OA
BRANCH  24  27
ATOM     27  C   UNL     1       7.271   5.029   3.082  0.00  0.00    +0.142 A 
ATOM     28  C   UNL     1       8.258   4.107   2.967  0.00  0.00    +0.036 A 
ATOM     29  C   UNL     1       8.254   3.012   3.810  0.00  0.00    +0.010 A 
ATOM     30  C   UNL     1       7.263   2.891   4.726  0.00  0.00    +0.047 A 
ATOM     31  S   UNL     1       6.293   4.358   4.417  0.00  0.00    -0.077 S 
ENDBRANCH  24  27
ENDBRANCH  22  24
ENDBRANCH   3  22
TORSDOF 6
