REMARK  Name = ZINC36545400
REMARK  17 active torsions:
REMARK  status: ('A' for Active; 'I' for Inactive)
REMARK    1  A    between atoms: C_1  and  C_2
REMARK    2  A    between atoms: C_2  and  C_4
REMARK    3  A    between atoms: C_2  and  C_10
REMARK    4  A    between atoms: C_10  and  C_12
REMARK    5  A    between atoms: C_10  and  N_23
REMARK    6  A    between atoms: N_14  and  C_15
REMARK    7  A    between atoms: C_15  and  C_16
REMARK    8  A    between atoms: C_15  and  C_17
REMARK    9  A    between atoms: C_15  and  C_18
REMARK   10  A    between atoms: C_18  and  C_19
REMARK   11  A    between atoms: C_19  and  C_20
REMARK   12  A    between atoms: C_19  and  C_21
REMARK   13  A    between atoms: C_19  and  C_22
REMARK   14  A    between atoms: N_23  and  C_24
REMARK   15  A    between atoms: C_31  and  C_33
REMARK   16  A    between atoms: C_37  and  O_40
REMARK   17  A    between atoms: C_38  and  O_39
REMARK                            x       y       z     vdW  Elec       q    Type
REMARK                         _______ _______ _______ _____ _____    ______ ____
ROOT
ATOM      1  C   UNL     1       0.350  -2.766  -1.258  0.00  0.00    +0.174 C 
ENDROOT
BRANCH   1   2
ATOM      2  C   UNL     1       0.213  -4.196  -0.802  0.00  0.00    +0.235 C 
ATOM      3  O   UNL     1      -0.391  -4.995  -1.486  0.00  0.00    -0.274 OA
ATOM      4  N   UNL     1       0.761  -4.587   0.365  0.00  0.00    -0.309 N 
ATOM      5  H   UNL     1       1.146  -3.929   0.965  0.00  0.00    +0.149 HD
BRANCH   4   6
ATOM      6  C   UNL     1       0.774  -6.006   0.730  0.00  0.00    +0.030 C 
ATOM      7  C   UNL     1      -0.657  -6.477   0.997  0.00  0.00    +0.031 C 
ATOM      8  C   UNL     1       1.373  -6.821  -0.418  0.00  0.00    +0.031 C 
BRANCH   6   9
ATOM      9  C   UNL     1       1.619  -6.201   1.990  0.00  0.00    +0.031 C 
BRANCH   9  10
ATOM     10  C   UNL     1       2.816  -5.249   1.954  0.00  0.00    -0.036 C 
ATOM     11  C   UNL     1       2.395  -3.880   2.494  0.00  0.00    +0.010 C 
ATOM     12  C   UNL     1       3.943  -5.814   2.820  0.00  0.00    +0.010 C 
ATOM     13  C   UNL     1       3.306  -5.099   0.513  0.00  0.00    +0.010 C 
ENDBRANCH   9  10
ENDBRANCH   6   9
ENDBRANCH   4   6
ENDBRANCH   1   2
BRANCH   1  14
ATOM     14  N   UNL     1       0.015  -2.672  -2.681  0.00  0.00    -0.253 N 
ATOM     15  C   UNL     1       0.908  -2.162  -3.552  0.00  0.00    +0.255 C 
ATOM     16  O   UNL     1       1.956  -1.698  -3.146  0.00  0.00    -0.269 OA
BRANCH  14  17
ATOM     17  C   UNL     1      -1.233  -3.112  -3.136  0.00  0.00    +0.056 A 
ATOM     18  C   UNL     1      -2.370  -2.353  -2.893  0.00  0.00    +0.025 A 
ATOM     19  C   UNL     1      -3.600  -2.790  -3.344  0.00  0.00    +0.002 A 
ATOM     20  C   UNL     1      -3.701  -3.983  -4.036  0.00  0.00    +0.002 A 
ATOM     21  C   UNL     1      -2.572  -4.742  -4.280  0.00  0.00    +0.022 A 
ATOM     22  C   UNL     1      -1.337  -4.308  -3.837  0.00  0.00    +0.062 A 
ATOM     23 CL   UNL     1       0.082  -5.258  -4.149  0.00  0.00    -0.082 Cl
ENDBRANCH  14  17
BRANCH  15  24
ATOM     24  C   UNL     1       0.614  -2.166  -4.997  0.00  0.00    +0.082 A 
ATOM     25  C   UNL     1      -0.677  -1.879  -5.452  0.00  0.00    +0.017 A 
ATOM     26  C   UNL     1      -0.948  -1.884  -6.803  0.00  0.00    +0.005 A 
ATOM     27  C   UNL     1       0.053  -2.172  -7.716  0.00  0.00    +0.049 A 
ATOM     28  C   UNL     1       1.336  -2.458  -7.282  0.00  0.00    +0.159 A 
ATOM     29  C   UNL     1       1.627  -2.451  -5.920  0.00  0.00    +0.171 A 
BRANCH  29  30
ATOM     30  O   UNL     1       2.885  -2.725  -5.490  0.00  0.00    -0.503 OA
ATOM     31  H   UNL     1       3.047  -3.663  -5.322  0.00  0.00    +0.292 HD
ENDBRANCH  29  30
BRANCH  28  32
ATOM     32  O   UNL     1       2.313  -2.740  -8.184  0.00  0.00    -0.503 OA
ATOM     33  H   UNL     1       2.802  -1.964  -8.490  0.00  0.00    +0.292 HD
ENDBRANCH  28  32
ENDBRANCH  15  24
ENDBRANCH   1  14
BRANCH   1  35
ATOM     34  C   UNL     1      -0.596  -0.465  -1.032  0.00  0.00    +0.015 C 
ATOM     35  C   UNL     1      -0.600  -1.880  -0.450  0.00  0.00    +0.046 C 
BRANCH  35  36
ATOM     36  C   UNL     1      -0.146  -1.834   0.986  0.00  0.00    -0.042 A 
ATOM     37  C   UNL     1       1.099  -1.322   1.301  0.00  0.00    +0.004 A 
ATOM     38  C   UNL     1       1.515  -1.280   2.619  0.00  0.00    +0.000 A 
ATOM     39  C   UNL     1       0.687  -1.750   3.621  0.00  0.00    +0.000 A 
ATOM     40  C   UNL     1      -0.558  -2.261   3.306  0.00  0.00    +0.000 A 
ATOM     41  C   UNL     1      -0.976  -2.299   1.989  0.00  0.00    +0.004 A 
ENDBRANCH  35  36
ENDBRANCH   1  35
TORSDOF 11
