REMARK  Name = ZINC05927151
REMARK  8 active torsions:
REMARK  status: ('A' for Active; 'I' for Inactive)
REMARK    1  A    between atoms: C_1  and  C_2
REMARK    2  A    between atoms: C_5  and  O_9
REMARK    3  A    between atoms: O_9  and  C_10
REMARK    4  A    between atoms: C_10  and  C_11
REMARK    5  A    between atoms: N_13  and  N_14
REMARK    6  A    between atoms: C_15  and  C_17
REMARK    7  A    between atoms: C_20  and  O_24
REMARK    8  A    between atoms: C_22  and  O_23
REMARK                            x       y       z     vdW  Elec       q    Type
REMARK                         _______ _______ _______ _____ _____    ______ ____
ROOT
ATOM      1  C   UNL     1       1.030   3.512   0.011  0.00  0.00    +0.267 C 
ATOM      2  O   UNL     1      -0.097   3.960   0.024  0.00  0.00    -0.271 OA
ATOM      3  N   UNL     1       2.088   4.348   0.005  0.00  0.00    -0.231 N 
ATOM      4  H   UNL     1       2.989   3.989  -0.005  0.00  0.00    +0.173 HD
ENDROOT
BRANCH   3   5
ATOM      5  N   UNL     1       1.885   5.734   0.015  0.00  0.00    -0.230 N 
ATOM      6  C   UNL     1       2.943   6.569   0.009  0.00  0.00    +0.264 C 
ATOM      7  O   UNL     1       4.073   6.120  -0.004  0.00  0.00    -0.269 OA
ATOM      8  H   UNL     1       0.984   6.092   0.025  0.00  0.00    +0.173 HD
BRANCH   6   9
ATOM      9  C   UNL     1       2.730   8.027   0.019  0.00  0.00    +0.080 A 
ATOM     10  C   UNL     1       1.432   8.547   0.034  0.00  0.00    +0.020 A 
ATOM     11  C   UNL     1       1.237   9.908   0.043  0.00  0.00    +0.046 A 
ATOM     12  C   UNL     1       2.329  10.773   0.038  0.00  0.00    +0.120 A 
ATOM     13  C   UNL     1       3.620  10.268   0.022  0.00  0.00    +0.091 A 
ATOM     14  C   UNL     1       3.829   8.899   0.019  0.00  0.00    +0.132 A 
BRANCH  14  15
ATOM     15  O   UNL     1       5.092   8.403   0.010  0.00  0.00    -0.506 OA
ATOM     16  H   UNL     1       5.454   8.265  -0.876  0.00  0.00    +0.292 HD
ENDBRANCH  14  15
BRANCH  12  17
ATOM     17  O   UNL     1       2.128  12.115   0.047  0.00  0.00    -0.507 OA
ATOM     18  H   UNL     1       2.078  12.499   0.933  0.00  0.00    +0.292 HD
ENDBRANCH  12  17
ENDBRANCH   6   9
ENDBRANCH   3   5
BRANCH   1  19
ATOM     19  C   UNL     1       1.248   2.021   0.001  0.00  0.00    +0.326 C 
BRANCH  19  20
ATOM     20  O   UNL     1      -0.016   1.355   0.009  0.00  0.00    -0.482 OA
BRANCH  20  25
ATOM     21  C   UNL     1       0.061  -4.278  -0.019  0.00  0.00    +0.044 C 
ATOM     22  C   UNL     1       0.040  -2.771  -0.012  0.00  0.00    -0.049 A 
ATOM     23  C   UNL     1       1.228  -2.064  -0.020  0.00  0.00    +0.007 A 
ATOM     24  C   UNL     1       1.212  -0.682  -0.013  0.00  0.00    +0.047 A 
ATOM     25  C   UNL     1       0.002  -0.004   0.002  0.00  0.00    +0.135 A 
ATOM     26  C   UNL     1      -1.190  -0.716   0.015  0.00  0.00    +0.060 A 
ATOM     27  C   UNL     1      -1.168  -2.098   0.004  0.00  0.00    +0.022 A 
ATOM     28 BR   UNL     1      -2.841   0.205   0.043  0.00  0.00    -0.047 Br
ENDBRANCH  20  25
ENDBRANCH  19  20
ENDBRANCH   1  19
TORSDOF 7
