REMARK  Name = ZINC23044260
REMARK  10 active torsions:
REMARK  status: ('A' for Active; 'I' for Inactive)
REMARK    1  A    between atoms: C_1  and  C_2
REMARK    2  A    between atoms: C_2  and  C_3
REMARK    3  A    between atoms: C_3  and  N_4
REMARK    4  A    between atoms: C_8  and  S_26
REMARK    5  A    between atoms: C_12  and  S_13
REMARK    6  A    between atoms: S_13  and  C_14
REMARK    7  A    between atoms: C_14  and  C_16
REMARK    8  A    between atoms: C_14  and  C_17
REMARK    9  A    between atoms: C_17  and  C_19
REMARK   10  A    between atoms: S_26  and  N_29
REMARK                            x       y       z     vdW  Elec       q    Type
REMARK                         _______ _______ _______ _____ _____    ______ ____
ROOT
ATOM      1  N   UNL     1      -2.566   3.547   0.045  0.00  0.00    -0.319 N 
ATOM      2  C   UNL     1      -1.234   3.165   0.030  0.00  0.00    +0.070 A 
ATOM      3  C   UNL     1      -0.035   3.860   0.023  0.00  0.00    +0.030 A 
ATOM      4  C   UNL     1       1.159   3.170   0.007  0.00  0.00    +0.030 A 
ATOM      5  C   UNL     1       1.169   1.783   0.001  0.00  0.00    +0.107 A 
ATOM      6  C   UNL     1      -0.013   1.076   0.008  0.00  0.00    +0.058 A 
ATOM      7  C   UNL     1      -1.231   1.760   0.017  0.00  0.00    +0.092 A 
ATOM      8  N   UNL     1      -2.528   1.357   0.022  0.00  0.00    -0.222 NA
ATOM      9  C   UNL     1      -3.315   2.404   0.031  0.00  0.00    +0.171 A 
ENDROOT
BRANCH   5  10
ATOM     10  S   UNL     1       2.705   0.919  -0.019  0.00  0.00    +0.056 S 
ATOM     11  O   UNL     1       3.674   1.802   0.527  0.00  0.00    -0.153 OA
ATOM     12  O   UNL     1       2.453  -0.369   0.528  0.00  0.00    -0.153 OA
BRANCH  10  13
ATOM     13  N   UNL     1       3.116   0.687  -1.606  0.00  0.00    -0.204 NA
ATOM     14  H   UNL     1       4.074   0.149  -1.662  0.00  0.00    +0.144 HD
ATOM     15  H   UNL     1       3.215   1.663  -2.105  0.00  0.00    +0.144 HD
ENDBRANCH  10  13
ENDBRANCH   5  10
BRANCH   1  16
ATOM     16  C   UNL     1      -3.076   4.920   0.058  0.00  0.00    +0.124 C 
BRANCH  16  18
ATOM     17  C   UNL     1      -3.799   6.841  -1.367  0.00  0.00    +0.005 C 
ATOM     18  C   UNL     1      -3.267   5.407  -1.380  0.00  0.00    +0.018 C 
ENDBRANCH  16  18
ENDBRANCH   1  16
BRANCH   9  19
ATOM     19  S   UNL     1      -5.076   2.348   0.040  0.00  0.00    -0.077 S 
BRANCH  19  20
ATOM     20  C   UNL     1      -5.333   0.556   0.032  0.00  0.00    +0.122 C 
ATOM     21  C   UNL     1      -4.809  -0.028  -1.282  0.00  0.00    +0.028 C 
BRANCH  20  22
ATOM     22  C   UNL     1      -6.805   0.260   0.162  0.00  0.00    +0.176 C 
ATOM     23  O   UNL     1      -7.623   1.081  -0.195  0.00  0.00    -0.291 OA
BRANCH  22  24
ATOM     24  C   UNL     1      -7.250  -1.027   0.720  0.00  0.00    +0.019 A 
ATOM     25  C   UNL     1      -6.309  -1.979   1.127  0.00  0.00    +0.012 A 
ATOM     26  C   UNL     1      -6.733  -3.179   1.656  0.00  0.00    +0.016 A 
ATOM     27  C   UNL     1      -8.086  -3.449   1.773  0.00  0.00    +0.018 A 
ATOM     28  C   UNL     1      -9.024  -2.513   1.367  0.00  0.00    +0.016 A 
ATOM     29  C   UNL     1      -8.615  -1.306   0.843  0.00  0.00    +0.012 A 
ATOM     30 BR   UNL     1      -8.658  -5.102   2.492  0.00  0.00    -0.050 Br
ENDBRANCH  22  24
ENDBRANCH  20  22
ENDBRANCH  19  20
ENDBRANCH   9  19
TORSDOF 8
