REMARK  Name = ZINC39689308
REMARK  6 active torsions:
REMARK  status: ('A' for Active; 'I' for Inactive)
REMARK    1  A    between atoms: C_1  and  C_2
REMARK    2  A    between atoms: C_6  and  C_8
REMARK    3  A    between atoms: C_8  and  C_9
REMARK    4  A    between atoms: C_9  and  N_10
REMARK    5  A    between atoms: C_11  and  C_13
REMARK    6  A    between atoms: C_24  and  C_26
REMARK                            x       y       z     vdW  Elec       q    Type
REMARK                         _______ _______ _______ _____ _____    ______ ____
ROOT
ATOM      1  C   UNL     1       2.709  -4.908   6.063  0.00  0.00    +0.100 C 
ATOM      2  C   UNL     1       2.160  -4.028   7.208  0.00  0.00    +0.121 C 
ATOM      3  N   UNL     1       2.994  -4.376   8.381  0.00  0.00    -0.296 N 
ATOM      4  C   UNL     1       4.362  -4.529   7.829  0.00  0.00    +0.115 C 
ATOM      5  C   UNL     1       4.154  -5.234   6.474  0.00  0.00    -0.004 C 
ATOM      6  C   UNL     1       4.331  -6.742   6.631  0.00  0.00    -0.010 C 
ATOM      7  C   UNL     1       5.790  -7.045   6.985  0.00  0.00    -0.082 C 
ATOM      8  N   UNL     1       6.668  -6.537   5.924  0.00  0.00    +0.379 N 
ATOM      9  C   UNL     1       6.561  -5.075   5.842  0.00  0.00    -0.082 C 
ATOM     10  C   UNL     1       5.134  -4.688   5.440  0.00  0.00    -0.010 C 
ATOM     11  C   UNL     1       2.600  -4.521   9.662  0.00  0.00    +0.249 C 
ATOM     12  O   UNL     1       3.412  -4.811  10.519  0.00  0.00    -0.270 OA
ATOM     13  H   UNL     1       7.623  -6.791   6.129  0.00  0.00    -0.086 HD
ATOM     14  H   UNL     1       6.397  -6.943   5.041  0.00  0.00    -0.086 HD
ENDROOT
BRANCH  11  15
ATOM     15  C   UNL     1       1.181  -4.327  10.024  0.00  0.00    +0.073 A 
ATOM     16  C   UNL     1       0.297  -5.410  10.004  0.00  0.00    +0.054 A 
ATOM     17  C   UNL     1      -1.028  -5.221  10.344  0.00  0.00    +0.021 A 
ATOM     18  C   UNL     1      -1.481  -3.964  10.704  0.00  0.00    +0.003 A 
ATOM     19  C   UNL     1      -0.612  -2.888  10.726  0.00  0.00    +0.021 A 
ATOM     20  C   UNL     1       0.717  -3.062  10.394  0.00  0.00    +0.054 A 
ATOM     21 CL   UNL     1       1.807  -1.712  10.430  0.00  0.00    -0.083 Cl
ATOM     22 CL   UNL     1       0.864  -6.987   9.552  0.00  0.00    -0.083 Cl
ENDBRANCH  11  15
BRANCH   1  24
ATOM     23  N   UNL     1       2.563  -4.810   3.595  0.00  0.00    -0.315 N 
ATOM     24  C   UNL     1       2.692  -4.147   4.762  0.00  0.00    +0.218 C 
ATOM     25  O   UNL     1       2.795  -2.939   4.764  0.00  0.00    -0.275 OA
ATOM     26  H   UNL     1       2.481  -5.777   3.593  0.00  0.00    +0.149 HD
BRANCH  23  27
ATOM     27  C   UNL     1       2.547  -4.071   2.331  0.00  0.00    +0.109 C 
BRANCH  27  28
ATOM     28  C   UNL     1       2.392  -5.053   1.168  0.00  0.00    +0.054 C 
BRANCH  28  34
ATOM     29  C   UNL     1      -0.145  -2.657  -2.420  0.00  0.00    +0.044 C 
ATOM     30  C   UNL     1       1.161  -3.147  -1.850  0.00  0.00    -0.050 A 
ATOM     31  C   UNL     1       2.345  -2.898  -2.520  0.00  0.00    +0.003 A 
ATOM     32  C   UNL     1       3.543  -3.347  -1.998  0.00  0.00    +0.001 A 
ATOM     33  C   UNL     1       3.558  -4.045  -0.804  0.00  0.00    +0.004 A 
ATOM     34  C   UNL     1       2.375  -4.292  -0.133  0.00  0.00    -0.046 A 
ATOM     35  C   UNL     1       1.177  -3.840  -0.654  0.00  0.00    +0.007 A 
ENDBRANCH  28  34
ENDBRANCH  27  28
ENDBRANCH  23  27
ENDBRANCH   1  24
TORSDOF 5
