REMARK  Name = ZINC35555338
REMARK  5 active torsions:
REMARK  status: ('A' for Active; 'I' for Inactive)
REMARK    1  A    between atoms: C_6  and  C_7
REMARK    2  A    between atoms: C_7  and  N_8
REMARK    3  A    between atoms: C_15  and  N_33
REMARK    4  A    between atoms: C_19  and  C_24
REMARK    5  A    between atoms: N_26  and  C_27
REMARK                            x       y       z     vdW  Elec       q    Type
REMARK                         _______ _______ _______ _____ _____    ______ ____
ROOT
ATOM      1  N   UNL     1      -1.727  -1.018  -1.371  0.00  0.00    +0.385 N 
ATOM      2  C   UNL     1      -2.057   0.262  -2.017  0.00  0.00    -0.059 C 
ATOM      3  C   UNL     1      -2.287   0.007  -3.504  0.00  0.00    +0.087 C 
ATOM      4  N   UNL     1      -3.270  -1.063  -3.696  0.00  0.00    -0.329 N 
ATOM      5  C   UNL     1      -4.087  -0.993  -4.836  0.00  0.00    +0.033 A 
ATOM      6  C   UNL     1      -3.890   0.051  -5.735  0.00  0.00    +0.025 A 
ATOM      7  C   UNL     1      -4.674   0.143  -6.867  0.00  0.00    +0.034 A 
ATOM      8  C   UNL     1      -5.656  -0.801  -7.107  0.00  0.00    +0.127 A 
ATOM      9  C   UNL     1      -5.855  -1.836  -6.214  0.00  0.00    +0.038 A 
ATOM     10  C   UNL     1      -5.073  -1.934  -5.077  0.00  0.00    -0.023 A 
ATOM     11  C   UNL     1      -5.315  -3.064  -4.111  0.00  0.00    +0.051 C 
ATOM     12  C   UNL     1      -4.853  -2.649  -2.715  0.00  0.00    +0.098 C 
ATOM     13  C   UNL     1      -3.394  -2.183  -2.777  0.00  0.00    +0.069 C 
ATOM     14  C   UNL     1      -2.918  -1.867  -1.368  0.00  0.00    -0.055 C 
ATOM     15  H   UNL     1      -0.987  -1.476  -1.883  0.00  0.00    -0.081 HD
ENDROOT
BRANCH  12  16
ATOM     16  C   UNL     1      -5.719  -1.522  -2.214  0.00  0.00    +0.218 C 
ATOM     17  O   UNL     1      -5.221  -0.452  -1.934  0.00  0.00    -0.275 OA
ATOM     18  N   UNL     1      -7.048  -1.702  -2.078  0.00  0.00    -0.312 N 
ATOM     19  H   UNL     1      -7.447  -2.558  -2.302  0.00  0.00    +0.149 HD
BRANCH  18  20
ATOM     20  C   UNL     1      -7.890  -0.606  -1.591  0.00  0.00    +0.073 C 
ATOM     21  C   UNL     1      -7.882  -0.598  -0.061  0.00  0.00    +0.022 C 
ATOM     22  C   UNL     1      -8.761   0.546   0.447  0.00  0.00    +0.002 C 
ATOM     23  C   UNL     1     -10.193   0.351  -0.054  0.00  0.00    +0.000 C 
ATOM     24  C   UNL     1     -10.201   0.342  -1.584  0.00  0.00    +0.002 C 
ATOM     25  C   UNL     1      -9.322  -0.802  -2.092  0.00  0.00    +0.022 C 
ENDBRANCH  18  20
ENDBRANCH  12  16
BRANCH   8  26
ATOM     26  N   UNL     1      -6.495  -0.702  -8.322  0.00  0.00    +0.056 N 
ATOM     27  O   UNL     1      -6.322   0.204  -9.104  0.00  0.00    -0.126 OA
ATOM     28  O   UNL     1      -7.353  -1.526  -8.534  0.00  0.00    -0.126 OA
ENDBRANCH   8  26
BRANCH   1  29
ATOM     29  C   UNL     1      -1.293  -0.775   0.011  0.00  0.00    -0.043 C 
BRANCH  29  35
ATOM     30  C   UNL     1      -0.017   1.378   0.010  0.00  0.00    +0.003 A 
ATOM     31  C   UNL     1       1.171   2.086   0.002  0.00  0.00    +0.020 A 
ATOM     32  C   UNL     1       2.378   1.410  -0.013  0.00  0.00    +0.041 A 
ATOM     33  C   UNL     1       2.396   0.027  -0.021  0.00  0.00    +0.020 A 
ATOM     34  C   UNL     1       1.208  -0.679  -0.013  0.00  0.00    +0.003 A 
ATOM     35  C   UNL     1       0.002  -0.004   0.002  0.00  0.00    -0.064 A 
ATOM     36 CL   UNL     1       3.870   2.298  -0.023  0.00  0.00    -0.084 Cl
ENDBRANCH  29  35
ENDBRANCH   1  29
TORSDOF 5
