REMARK  Name = ZINC36549574
REMARK  12 active torsions:
REMARK  status: ('A' for Active; 'I' for Inactive)
REMARK    1  A    between atoms: C_1  and  C_2
REMARK    2  A    between atoms: C_2  and  C_3
REMARK    3  A    between atoms: C_3  and  C_4
REMARK    4  A    between atoms: C_4  and  N_5
REMARK    5  A    between atoms: C_6  and  C_8
REMARK    6  A    between atoms: C_8  and  C_10
REMARK    7  A    between atoms: C_8  and  N_19
REMARK    8  A    between atoms: C_11  and  O_18
REMARK    9  A    between atoms: C_13  and  O_17
REMARK   10  A    between atoms: C_15  and  O_16
REMARK   11  A    between atoms: N_19  and  C_20
REMARK   12  A    between atoms: C_27  and  C_29
REMARK                            x       y       z     vdW  Elec       q    Type
REMARK                         _______ _______ _______ _____ _____    ______ ____
ROOT
ATOM      1  C   UNL     1       2.277  -4.916   3.498  0.00  0.00    +0.204 C 
ENDROOT
BRANCH   1   2
ATOM      2  C   UNL     1       3.749  -4.726   3.235  0.00  0.00    +0.065 A 
ATOM      3  C   UNL     1       4.427  -5.616   2.415  0.00  0.00    +0.129 A 
ATOM      4  C   UNL     1       5.781  -5.441   2.173  0.00  0.00    +0.091 A 
ATOM      5  C   UNL     1       6.457  -4.377   2.751  0.00  0.00    +0.124 A 
ATOM      6  C   UNL     1       5.779  -3.487   3.570  0.00  0.00    +0.091 A 
ATOM      7  C   UNL     1       4.424  -3.659   3.809  0.00  0.00    +0.129 A 
BRANCH   7   8
ATOM      8  O   UNL     1       3.758  -2.785   4.608  0.00  0.00    -0.506 OA
ATOM      9  H   UNL     1       3.755  -3.030   5.543  0.00  0.00    +0.292 HD
ENDBRANCH   7   8
BRANCH   5  10
ATOM     10  O   UNL     1       7.785  -4.207   2.515  0.00  0.00    -0.507 OA
ATOM     11  H   UNL     1       7.979  -3.656   1.744  0.00  0.00    +0.292 HD
ENDBRANCH   5  10
BRANCH   3  12
ATOM     12  O   UNL     1       3.764  -6.658   1.849  0.00  0.00    -0.506 OA
ATOM     13  H   UNL     1       3.382  -6.458   0.984  0.00  0.00    +0.292 HD
ENDBRANCH   3  12
ENDBRANCH   1   2
BRANCH   1  15
ATOM     14  N   UNL     1       1.403  -3.662   1.553  0.00  0.00    -0.313 N 
ATOM     15  C   UNL     1       1.521  -4.840   2.197  0.00  0.00    +0.239 C 
ATOM     16  O   UNL     1       1.017  -5.840   1.729  0.00  0.00    -0.273 OA
ATOM     17  H   UNL     1       1.806  -2.863   1.927  0.00  0.00    +0.149 HD
BRANCH  14  18
ATOM     18  C   UNL     1       0.668  -3.588   0.288  0.00  0.00    +0.104 C 
BRANCH  18  19
ATOM     19  C   UNL     1       0.685  -2.149  -0.229  0.00  0.00    +0.018 C 
BRANCH  19  21
ATOM     20  C   UNL     1      -0.066  -0.632  -2.066  0.00  0.00    +0.004 C 
ATOM     21  C   UNL     1      -0.083  -2.072  -1.550  0.00  0.00    -0.002 C 
ENDBRANCH  19  21
ENDBRANCH  18  19
ENDBRANCH  14  18
ENDBRANCH   1  15
BRANCH   1  22
ATOM     22  N   UNL     1       2.056  -6.226   4.116  0.00  0.00    -0.250 N 
ATOM     23  C   UNL     1       0.823  -6.574   4.534  0.00  0.00    +0.253 C 
ATOM     24  O   UNL     1      -0.121  -5.837   4.325  0.00  0.00    -0.270 OA
BRANCH  22  25
ATOM     25  C   UNL     1       3.125  -7.115   4.272  0.00  0.00    +0.056 A 
ATOM     26  C   UNL     1       4.138  -6.833   5.179  0.00  0.00    +0.025 A 
ATOM     27  C   UNL     1       5.192  -7.713   5.330  0.00  0.00    +0.002 A 
ATOM     28  C   UNL     1       5.239  -8.874   4.580  0.00  0.00    +0.002 A 
ATOM     29  C   UNL     1       4.233  -9.158   3.676  0.00  0.00    +0.022 A 
ATOM     30  C   UNL     1       3.172  -8.285   3.523  0.00  0.00    +0.062 A 
ATOM     31 CL   UNL     1       1.905  -8.646   2.394  0.00  0.00    -0.082 Cl
ENDBRANCH  22  25
BRANCH  23  32
ATOM     32  C   UNL     1       0.619  -7.852   5.247  0.00  0.00    +0.056 A 
ATOM     33  C   UNL     1       1.542  -8.277   6.204  0.00  0.00    +0.014 A 
ATOM     34  C   UNL     1       1.345  -9.470   6.867  0.00  0.00    +0.001 A 
ATOM     35  C   UNL     1       0.235 -10.247   6.585  0.00  0.00    +0.001 A 
ATOM     36  C   UNL     1      -0.684  -9.834   5.638  0.00  0.00    +0.021 A 
ATOM     37  C   UNL     1      -0.503  -8.638   4.971  0.00  0.00    +0.053 A 
ATOM     38 CL   UNL     1      -1.662  -8.116   3.789  0.00  0.00    -0.083 Cl
ENDBRANCH  23  32
ENDBRANCH   1  22
TORSDOF 11
