REMARK  Name = ZINC21658944
REMARK  5 active torsions:
REMARK  status: ('A' for Active; 'I' for Inactive)
REMARK    1  A    between atoms: C_1  and  N_2
REMARK    2  A    between atoms: C_5  and  C_24
REMARK    3  A    between atoms: C_8  and  C_17
REMARK    4  A    between atoms: C_22  and  O_23
REMARK    5  A    between atoms: N_32  and  C_35
REMARK                            x       y       z     vdW  Elec       q    Type
REMARK                         _______ _______ _______ _____ _____    ______ ____
ROOT
ATOM      1  C   UNL     1       3.407   4.276  -0.079  0.00  0.00    +0.154 C 
ATOM      2  N   UNL     1       1.973   4.401  -0.349  0.00  0.00    -0.294 N 
ATOM      3  C   UNL     1       1.125   3.284  -0.325  0.00  0.00    +0.082 A 
ATOM      4  C   UNL     1      -0.320   3.477  -0.607  0.00  0.00    +0.089 A 
ATOM      5  C   UNL     1      -0.904   2.237  -0.524  0.00  0.00    +0.069 A 
ATOM      6  N   UNL     1       0.077   1.342  -0.226  0.00  0.00    -0.306 N 
ATOM      7  C   UNL     1       1.297   1.990  -0.096  0.00  0.00    +0.073 A 
ATOM      8  C   UNL     1       2.559   1.239   0.266  0.00  0.00    +0.154 C 
ATOM      9  N   UNL     1       2.389  -0.160  -0.155  0.00  0.00    -0.330 N 
ATOM     10  C   UNL     1       1.151  -0.794  -0.004  0.00  0.00    +0.052 A 
ATOM     11  C   UNL     1      -0.030  -0.047  -0.066  0.00  0.00    +0.068 A 
ATOM     12  C   UNL     1      -1.257  -0.677   0.010  0.00  0.00    +0.028 A 
ATOM     13  C   UNL     1      -1.315  -2.049   0.184  0.00  0.00    +0.002 A 
ATOM     14  C   UNL     1      -0.150  -2.788   0.274  0.00  0.00    +0.002 A 
ATOM     15  C   UNL     1       1.082  -2.166   0.179  0.00  0.00    +0.025 A 
ATOM     16  C   UNL     1      -0.819   4.825  -0.898  0.00  0.00    +0.266 A 
ATOM     17  O   UNL     1      -1.992   5.046  -1.135  0.00  0.00    -0.267 OA
ATOM     18  N   UNL     1       0.117   5.808  -0.886  0.00  0.00    -0.263 N 
ATOM     19  C   UNL     1       1.412   5.598  -0.629  0.00  0.00    +0.332 A 
ATOM     20  O   UNL     1       2.147   6.566  -0.650  0.00  0.00    -0.246 OA
ATOM     21  C   UNL     1      -0.317   7.178  -1.169  0.00  0.00    +0.157 C 
ATOM     22  H   UNL     1       3.237  -0.710  -0.592  0.00  0.00    +0.147 HD
ENDROOT
BRANCH   8  23
ATOM     23  C   UNL     1       2.779   1.299   1.756  0.00  0.00    +0.020 A 
ATOM     24  C   UNL     1       1.754   1.704   2.590  0.00  0.00    +0.009 A 
ATOM     25  C   UNL     1       1.953   1.754   3.957  0.00  0.00    +0.001 A 
ATOM     26  C   UNL     1       3.181   1.411   4.493  0.00  0.00    +0.004 A 
ATOM     27  C   UNL     1       4.210   1.012   3.663  0.00  0.00    +0.046 A 
ATOM     28  C   UNL     1       4.011   0.955   2.291  0.00  0.00    +0.122 A 
BRANCH  28  29
ATOM     29  O   UNL     1       5.022   0.561   1.472  0.00  0.00    -0.506 OA
ATOM     30  H   UNL     1       5.999   0.288   1.897  0.00  0.00    +0.292 HD
ENDBRANCH  28  29
ENDBRANCH   8  23
BRANCH   5  31
ATOM     31  C   UNL     1      -2.334   1.931  -0.721  0.00  0.00    -0.000 A 
ATOM     32  C   UNL     1      -2.727   1.020  -1.704  0.00  0.00    +0.010 A 
ATOM     33  C   UNL     1      -4.065   0.734  -1.879  0.00  0.00    +0.001 A 
ATOM     34  C   UNL     1      -5.018   1.356  -1.092  0.00  0.00    +0.000 A 
ATOM     35  C   UNL     1      -4.636   2.264  -0.120  0.00  0.00    +0.001 A 
ATOM     36  C   UNL     1      -3.301   2.555   0.070  0.00  0.00    +0.010 A 
ENDBRANCH   5  31
TORSDOF 3
