REMARK  Name = ZINC00845599
REMARK  8 active torsions:
REMARK  status: ('A' for Active; 'I' for Inactive)
REMARK    1  A    between atoms: C_1  and  C_2
REMARK    2  A    between atoms: C_2  and  O_3
REMARK    3  A    between atoms: O_3  and  C_4
REMARK    4  A    between atoms: C_7  and  N_10
REMARK    5  A    between atoms: C_11  and  C_13
REMARK    6  A    between atoms: C_14  and  C_28
REMARK    7  A    between atoms: C_19  and  C_21
REMARK    8  A    between atoms: C_24  and  O_27
REMARK                            x       y       z     vdW  Elec       q    Type
REMARK                         _______ _______ _______ _____ _____    ______ ____
ROOT
ATOM      1  C   UNL     1       2.803  -4.283   0.037  0.00  0.00    +0.056 C 
ATOM      2  C   UNL     1       3.904  -5.057   0.126  0.00  0.00    +0.019 C 
ATOM      3  N   UNL     1       3.809  -6.421   0.142  0.00  0.00    -0.273 N 
ATOM      4  C   UNL     1       2.649  -7.085   0.071  0.00  0.00    +0.304 C 
ATOM      5  O   UNL     1       2.664  -8.300   0.091  0.00  0.00    -0.252 OA
ATOM      6  N   UNL     1       1.464  -6.449  -0.022  0.00  0.00    -0.288 N 
ATOM      7  C   UNL     1       1.458  -4.977  -0.040  0.00  0.00    +0.142 C 
ATOM      8  C   UNL     1       5.261  -4.408   0.211  0.00  0.00    +0.061 C 
ATOM      9  H   UNL     1       4.628  -6.936   0.208  0.00  0.00    +0.156 HD
ATOM     10  H   UNL     1       0.634  -6.950  -0.072  0.00  0.00    +0.151 HD
ENDROOT
BRANCH   7  11
ATOM     11  C   UNL     1       0.779  -4.535  -1.311  0.00  0.00    -0.022 A 
ATOM     12  C   UNL     1       1.160  -5.081  -2.522  0.00  0.00    +0.009 A 
ATOM     13  C   UNL     1       0.536  -4.682  -3.688  0.00  0.00    +0.046 A 
ATOM     14  C   UNL     1      -0.466  -3.724  -3.644  0.00  0.00    +0.117 A 
ATOM     15  C   UNL     1      -0.843  -3.174  -2.428  0.00  0.00    +0.046 A 
ATOM     16  C   UNL     1      -0.220  -3.580  -1.264  0.00  0.00    +0.009 A 
BRANCH  14  17
ATOM     17  O   UNL     1      -1.078  -3.325  -4.790  0.00  0.00    -0.507 OA
ATOM     18  H   UNL     1      -0.650  -2.573  -5.223  0.00  0.00    +0.292 HD
ENDBRANCH  14  17
ENDBRANCH   7  11
BRANCH   1  20
ATOM     19  N   UNL     1       3.340  -2.237  -1.085  0.00  0.00    -0.282 N 
ATOM     20  C   UNL     1       2.900  -2.870   0.021  0.00  0.00    +0.248 C 
ATOM     21  O   UNL     1       2.586  -2.227   1.006  0.00  0.00    -0.270 OA
ATOM     22  H   UNL     1       3.471  -2.734  -1.908  0.00  0.00    +0.155 HD
BRANCH  19  26
ATOM     23  C   UNL     1       4.134   1.854  -0.969  0.00  0.00    +0.121 A 
ATOM     24  C   UNL     1       4.882   1.025  -1.793  0.00  0.00    +0.047 A 
ATOM     25  C   UNL     1       4.620  -0.330  -1.832  0.00  0.00    +0.027 A 
ATOM     26  C   UNL     1       3.607  -0.863  -1.046  0.00  0.00    +0.034 A 
ATOM     27  C   UNL     1       2.858  -0.033  -0.222  0.00  0.00    +0.027 A 
ATOM     28  C   UNL     1       3.122   1.322  -0.184  0.00  0.00    +0.047 A 
BRANCH  23  29
ATOM     29  O   UNL     1       4.393   3.188  -0.932  0.00  0.00    -0.492 OA
BRANCH  29  31
ATOM     30  C   UNL     1       4.020   5.446  -0.154  0.00  0.00    +0.048 C 
ATOM     31  C   UNL     1       3.584   3.982  -0.061  0.00  0.00    +0.225 C 
ENDBRANCH  29  31
ENDBRANCH  23  29
ENDBRANCH  19  26
ENDBRANCH   1  20
TORSDOF 6
