REMARK  Name = ZINC35744113
REMARK  14 active torsions:
REMARK  status: ('A' for Active; 'I' for Inactive)
REMARK    1  A    between atoms: C_1  and  C_2
REMARK    2  A    between atoms: C_2  and  C_3
REMARK    3  A    between atoms: C_2  and  C_4
REMARK    4  A    between atoms: C_4  and  O_5
REMARK    5  A    between atoms: O_5  and  C_6
REMARK    6  A    between atoms: C_6  and  C_7
REMARK    7  A    between atoms: C_7  and  C_9
REMARK    8  A    between atoms: C_7  and  O_35
REMARK    9  A    between atoms: C_9  and  N_10
REMARK   10  A    between atoms: N_10  and  C_11
REMARK   11  A    between atoms: N_10  and  C_12
REMARK   12  A    between atoms: C_12  and  C_13
REMARK   13  A    between atoms: N_25  and  C_28
REMARK   14  A    between atoms: C_28  and  C_29
REMARK                            x       y       z     vdW  Elec       q    Type
REMARK                         _______ _______ _______ _____ _____    ______ ____
ROOT
ATOM      1  C   UNL     1      -0.165   0.059   9.748  0.00  0.00    +0.094 A 
ATOM      2  N   UNL     1       0.453  -0.065  10.951  0.00  0.00    -0.312 N 
ATOM      3  H   UNL     1       1.350  -0.432  10.989  0.00  0.00    +0.170 HD
ATOM      4  C   UNL     1      -0.154   0.313  12.091  0.00  0.00    +0.260 A 
ATOM      5  O   UNL     1       0.414   0.196  13.164  0.00  0.00    -0.267 OA
ATOM      6  C   UNL     1      -1.480   0.854  12.025  0.00  0.00    +0.075 A 
ATOM      7  C   UNL     1      -2.327   1.324  13.118  0.00  0.00    -0.020 A 
ATOM      8  C   UNL     1      -3.550   1.794  12.789  0.00  0.00    +0.010 A 
ATOM      9  S   UNL     1      -3.642   1.641  11.027  0.00  0.00    -0.072 S 
ATOM     10  C   UNL     1      -2.035   0.943  10.738  0.00  0.00    +0.116 A 
ATOM     11  N   UNL     1      -1.370   0.554   9.654  0.00  0.00    -0.229 NA
ATOM     12  C   UNL     1      -4.587   2.322  13.732  0.00  0.00    +0.127 C 
ATOM     13  N   UNL     1      -4.210   1.925  15.101  0.00  0.00    -0.293 NA
ATOM     14  C   UNL     1      -2.801   2.249  15.366  0.00  0.00    +0.090 C 
ATOM     15  C   UNL     1      -1.888   1.304  14.580  0.00  0.00    +0.052 C 
ENDROOT
BRANCH   1  16
ATOM     16  C   UNL     1       0.556  -0.378   8.498  0.00  0.00    -0.004 C 
BRANCH  16  17
ATOM     17  N   UNL     1      -0.304  -0.143   7.330  0.00  0.00    +0.384 N 
ATOM     18  C   UNL     1      -1.491  -1.004   7.415  0.00  0.00    -0.095 C 
ATOM     19  H   UNL     1      -0.591   0.824   7.312  0.00  0.00    -0.082 HD
BRANCH  17  20
ATOM     20  C   UNL     1       0.441  -0.456   6.103  0.00  0.00    -0.045 C 
BRANCH  20  21
ATOM     21  C   UNL     1       1.590   0.541   5.936  0.00  0.00    +0.124 C 
BRANCH  21  22
ATOM     22  O   UNL     1       1.058   1.858   5.777  0.00  0.00    -0.391 OA
ATOM     23  H   UNL     1       0.480   1.958   5.008  0.00  0.00    +0.210 HD
ENDBRANCH  21  22
BRANCH  21  24
ATOM     24  C   UNL     1       2.412   0.169   4.700  0.00  0.00    +0.189 C 
BRANCH  24  25
ATOM     25  O   UNL     1       3.550   1.028   4.610  0.00  0.00    -0.377 OA
BRANCH  25  26
ATOM     26  C   UNL     1       4.389   0.763   3.484  0.00  0.00    +0.163 C 
BRANCH  26  28
ATOM     27  C   UNL     1       6.445   1.472   4.715  0.00  0.00    +0.009 C 
ATOM     28  C   UNL     1       5.570   1.737   3.488  0.00  0.00    +0.009 C 
ATOM     29  C   UNL     1       6.400   1.537   2.218  0.00  0.00    +0.009 C 
ENDBRANCH  26  28
ENDBRANCH  25  26
ENDBRANCH  24  25
ENDBRANCH  21  24
ENDBRANCH  20  21
ENDBRANCH  17  20
ENDBRANCH  16  17
ENDBRANCH   1  16
BRANCH  13  30
ATOM     30  C   UNL     1      -5.091   2.555  16.094  0.00  0.00    +0.120 C 
BRANCH  30  31
ATOM     31  C   UNL     1      -6.490   2.019  15.936  0.00  0.00    -0.033 A 
ATOM     32  C   UNL     1      -7.379   2.646  15.083  0.00  0.00    +0.005 A 
ATOM     33  C   UNL     1      -8.663   2.154  14.938  0.00  0.00    +0.000 A 
ATOM     34  C   UNL     1      -9.058   1.035  15.647  0.00  0.00    +0.000 A 
ATOM     35  C   UNL     1      -8.169   0.407  16.500  0.00  0.00    +0.000 A 
ATOM     36  C   UNL     1      -6.884   0.897  16.641  0.00  0.00    +0.005 A 
ENDBRANCH  30  31
ENDBRANCH  13  30
TORSDOF 11
