REMARK  Name = ZINC40825601
REMARK  7 active torsions:
REMARK  status: ('A' for Active; 'I' for Inactive)
REMARK    1  A    between atoms: C_1  and  C_2
REMARK    2  A    between atoms: C_2  and  O_3
REMARK    3  A    between atoms: O_3  and  C_4
REMARK    4  A    between atoms: N_6  and  N_7
REMARK    5  A    between atoms: C_14  and  C_27
REMARK    6  A    between atoms: C_15  and  C_17
REMARK    7  A    between atoms: N_19  and  C_20
REMARK                            x       y       z     vdW  Elec       q    Type
REMARK                         _______ _______ _______ _____ _____    ______ ____
ROOT
ATOM      1  N   UNL     1      -3.856  -1.527   0.018  0.00  0.00    -0.182 NA
ATOM      2  C   UNL     1      -5.048  -2.039   0.020  0.00  0.00    +0.070 C 
ATOM      3  C   UNL     1      -5.290  -3.542   0.009  0.00  0.00    +0.058 C 
ATOM      4  C   UNL     1      -6.437  -3.836  -0.964  0.00  0.00    +0.014 C 
ATOM      5  C   UNL     1      -7.741  -3.206  -0.468  0.00  0.00    +0.075 C 
ATOM      6  C   UNL     1      -7.517  -1.742  -0.189  0.00  0.00    +0.115 A 
ATOM      7  C   UNL     1      -6.271  -1.206   0.040  0.00  0.00    +0.042 A 
ATOM      8  C   UNL     1      -6.437   0.166   0.264  0.00  0.00    +0.009 A 
ATOM      9  C   UNL     1      -7.779   0.409   0.170  0.00  0.00    +0.193 A 
ATOM     10  O   UNL     1      -8.409  -0.757  -0.110  0.00  0.00    -0.454 OA
ATOM     11  C   UNL     1      -5.353   1.173   0.552  0.00  0.00    +0.048 C 
ENDROOT
BRANCH   1  14
ATOM     12  C   UNL     1      -1.496  -1.832  -0.004  0.00  0.00    +0.420 C 
ATOM     13  O   UNL     1      -0.521  -2.559  -0.020  0.00  0.00    -0.225 OA
ATOM     14  N   UNL     1      -2.734  -2.365  -0.001  0.00  0.00    -0.172 N 
ATOM     15  H   UNL     1      -2.847  -3.328  -0.013  0.00  0.00    +0.181 HD
BRANCH  12  16
ATOM     16  O   UNL     1      -1.337  -0.495   0.012  0.00  0.00    -0.450 OA
BRANCH  16  18
ATOM     17  C   UNL     1      -0.018   1.530   0.028  0.00  0.00    +0.048 C 
ATOM     18  C   UNL     1       0.003   0.000   0.008  0.00  0.00    +0.230 C 
ENDBRANCH  16  18
ENDBRANCH  12  16
ENDBRANCH   1  14
BRANCH   9  19
ATOM     19  C   UNL     1      -8.426   1.716   0.333  0.00  0.00    +0.284 C 
ATOM     20  O   UNL     1      -7.755   2.702   0.575  0.00  0.00    -0.266 OA
ATOM     21  N   UNL     1      -9.765   1.823   0.216  0.00  0.00    -0.279 N 
ATOM     22  H   UNL     1     -10.293   1.052  -0.042  0.00  0.00    +0.155 HD
BRANCH  21  23
ATOM     23  C   UNL     1     -10.392   3.048   0.466  0.00  0.00    +0.034 A 
ATOM     24  C   UNL     1     -11.647   3.078   1.060  0.00  0.00    +0.024 A 
ATOM     25  C   UNL     1     -12.264   4.289   1.306  0.00  0.00    +0.016 A 
ATOM     26  C   UNL     1     -11.634   5.471   0.961  0.00  0.00    +0.013 A 
ATOM     27  C   UNL     1     -10.384   5.444   0.369  0.00  0.00    +0.016 A 
ATOM     28  C   UNL     1      -9.759   4.237   0.126  0.00  0.00    +0.024 A 
ATOM     29  I   UNL     1     -12.574   7.305   1.335  0.00  0.00    -0.044 I 
ENDBRANCH  21  23
ENDBRANCH   9  19
TORSDOF 5
