REMARK  Name = ZINC43732395
REMARK  9 active torsions:
REMARK  status: ('A' for Active; 'I' for Inactive)
REMARK    1  A    between atoms: C_1  and  O_2
REMARK    2  A    between atoms: O_2  and  C_3
REMARK    3  A    between atoms: C_7  and  C_9
REMARK    4  A    between atoms: C_9  and  C_11
REMARK    5  A    between atoms: C_13  and  C_26
REMARK    6  A    between atoms: C_28  and  O_34
REMARK    7  A    between atoms: C_31  and  O_32
REMARK    8  A    between atoms: O_32  and  C_33
REMARK    9  A    between atoms: O_34  and  C_35
REMARK                            x       y       z     vdW  Elec       q    Type
REMARK                         _______ _______ _______ _____ _____    ______ ____
ROOT
ATOM      1  C   UNL     1      -3.812  -4.687   0.052  0.00  0.00    +0.073 C 
ATOM      2  H   UNL     1      -5.969  -7.021  -0.130  0.00  0.00    +0.194 HD
ATOM      3  C   UNL     1      -4.147  -6.025   0.022  0.00  0.00    +0.083 C 
ATOM      4  N   UNL     1      -5.505  -6.170  -0.090  0.00  0.00    -0.263 N 
ATOM      5  O   UNL     1      -6.136  -4.902  -0.140  0.00  0.00    -0.248 OA
ATOM      6  C   UNL     1      -5.104  -3.923  -0.047  0.00  0.00    +0.229 C 
ATOM      7  C   UNL     1      -5.301  -3.016   1.137  0.00  0.00    +0.021 A 
ATOM      8  C   UNL     1      -5.383  -3.236   2.493  0.00  0.00    +0.009 A 
ATOM      9  C   UNL     1      -5.573  -2.172   3.357  0.00  0.00    +0.000 A 
ATOM     10  C   UNL     1      -5.679  -0.888   2.854  0.00  0.00    +0.002 A 
ATOM     11  C   UNL     1      -5.596  -0.663   1.496  0.00  0.00    +0.024 A 
ATOM     12  C   UNL     1      -5.404  -1.728   0.619  0.00  0.00    +0.040 A 
ATOM     13  N   UNL     1      -5.288  -1.756  -0.772  0.00  0.00    -0.282 N 
ATOM     14  C   UNL     1      -5.109  -3.005  -1.242  0.00  0.00    +0.261 C 
ATOM     15  O   UNL     1      -4.976  -3.329  -2.403  0.00  0.00    -0.271 OA
ATOM     16  H   UNL     1      -5.332  -0.967  -1.335  0.00  0.00    +0.155 HD
ENDROOT
BRANCH   3  17
ATOM     17  C   UNL     1      -3.184  -7.138   0.098  0.00  0.00    +0.046 A 
ATOM     18  C   UNL     1      -2.298  -7.227   1.175  0.00  0.00    +0.059 A 
ATOM     19  C   UNL     1      -1.397  -8.274   1.240  0.00  0.00    +0.121 A 
ATOM     20  C   UNL     1      -1.371  -9.237   0.238  0.00  0.00    +0.049 A 
ATOM     21  C   UNL     1      -2.243  -9.156  -0.830  0.00  0.00    +0.050 A 
ATOM     22  C   UNL     1      -3.156  -8.116  -0.906  0.00  0.00    +0.129 A 
BRANCH  22  23
ATOM     23  O   UNL     1      -4.016  -8.041  -1.954  0.00  0.00    -0.494 OA
ATOM     24  C   UNL     1      -3.848  -8.998  -3.002  0.00  0.00    +0.277 C 
ENDBRANCH  22  23
BRANCH  19  25
ATOM     25  O   UNL     1      -0.534  -8.362   2.288  0.00  0.00    -0.495 OA
ATOM     26  C   UNL     1       0.369  -9.469   2.292  0.00  0.00    +0.277 C 
ENDBRANCH  19  25
ENDBRANCH   3  17
BRANCH   1  27
ATOM     27  C   UNL     1      -2.520  -4.146   0.160  0.00  0.00    +0.195 C 
ATOM     28  O   UNL     1      -2.137  -3.689   1.223  0.00  0.00    -0.287 OA
BRANCH  27  33
ATOM     29  C   UNL     1       0.451  -3.484  -2.051  0.00  0.00    +0.121 A 
ATOM     30  C   UNL     1       0.051  -4.103  -3.228  0.00  0.00    +0.045 A 
ATOM     31  C   UNL     1      -1.177  -4.732  -3.302  0.00  0.00    +0.004 A 
ATOM     32  C   UNL     1      -2.015  -4.749  -2.205  0.00  0.00    +0.012 A 
ATOM     33  C   UNL     1      -1.623  -4.130  -1.018  0.00  0.00    +0.026 A 
ATOM     34  C   UNL     1      -0.381  -3.500  -0.944  0.00  0.00    +0.057 A 
BRANCH  29  36
ATOM     35  C   UNL     1       2.466  -2.889  -3.163  0.00  0.00    +0.277 C 
ATOM     36  O   UNL     1       1.660  -2.868  -1.983  0.00  0.00    -0.495 OA
ENDBRANCH  29  36
ENDBRANCH  27  33
ENDBRANCH   1  27
TORSDOF 6
