REMARK  Name = ZINC08859192
REMARK  11 active torsions:
REMARK  status: ('A' for Active; 'I' for Inactive)
REMARK    1  A    between atoms: C_1  and  C_2
REMARK    2  A    between atoms: C_5  and  C_8
REMARK    3  A    between atoms: C_8  and  C_9
REMARK    4  A    between atoms: N_11  and  C_12
REMARK    5  A    between atoms: C_12  and  C_14
REMARK    6  A    between atoms: C_12  and  N_18
REMARK    7  A    between atoms: N_18  and  C_19
REMARK    8  A    between atoms: C_19  and  N_21
REMARK    9  A    between atoms: N_21  and  C_22
REMARK   10  A    between atoms: C_25  and  N_28
REMARK   11  A    between atoms: C_29  and  C_31
REMARK                            x       y       z     vdW  Elec       q    Type
REMARK                         _______ _______ _______ _____ _____    ______ ____
ROOT
ATOM      1  C   UNL     1       1.417  10.378  -0.901  0.00  0.00    +0.211 C 
ENDROOT
BRANCH   1   4
ATOM      2  C   UNL     1       2.773  10.613   1.110  0.00  0.00    +0.219 C 
ATOM      3  O   UNL     1       3.341   9.584   0.811  0.00  0.00    -0.275 OA
ATOM      4  N   UNL     1       1.794  11.096   0.319  0.00  0.00    -0.293 N 
ATOM      5  H   UNL     1       1.340  11.919   0.557  0.00  0.00    +0.151 HD
BRANCH   2   6
ATOM      6  C   UNL     1       3.161  11.351   2.365  0.00  0.00    +0.131 C 
BRANCH   6  11
ATOM      7  C   UNL     1       7.415   8.499   5.042  0.00  0.00    +0.044 C 
ATOM      8  C   UNL     1       6.305   9.243   4.344  0.00  0.00    -0.050 A 
ATOM      9  C   UNL     1       6.607  10.210   3.404  0.00  0.00    +0.003 A 
ATOM     10  C   UNL     1       5.589  10.893   2.764  0.00  0.00    +0.004 A 
ATOM     11  C   UNL     1       4.270  10.607   3.063  0.00  0.00    -0.039 A 
ATOM     12  C   UNL     1       3.969   9.643   4.006  0.00  0.00    +0.004 A 
ATOM     13  C   UNL     1       4.986   8.957   4.643  0.00  0.00    +0.003 A 
ENDBRANCH   6  11
ENDBRANCH   2   6
ENDBRANCH   1   4
BRANCH   1  14
ATOM     14  C   UNL     1       1.273  11.373  -2.054  0.00  0.00    +0.225 C 
ATOM     15 CL   UNL     1      -0.003  12.581  -1.649  0.00  0.00    -0.080 Cl
ATOM     16 CL   UNL     1       2.842  12.221  -2.317  0.00  0.00    -0.080 Cl
ATOM     17 CL   UNL     1       0.809  10.489  -3.556  0.00  0.00    -0.080 Cl
ENDBRANCH   1  14
BRANCH   1  18
ATOM     18  N   UNL     1       0.142   9.689  -0.688  0.00  0.00    -0.305 N 
ATOM     19  H   UNL     1      -0.686  10.194  -0.677  0.00  0.00    +0.150 HD
BRANCH  18  20
ATOM     20  C   UNL     1       0.120   8.353  -0.507  0.00  0.00    +0.136 C 
ATOM     21  S   UNL     1       1.581   7.462  -0.526  0.00  0.00    -0.019 S 
BRANCH  20  22
ATOM     22  N   UNL     1      -1.054   7.720  -0.311  0.00  0.00    -0.297 N 
ATOM     23  H   UNL     1      -1.875   8.231  -0.238  0.00  0.00    +0.154 HD
BRANCH  22  24
ATOM     24  C   UNL     1      -1.087   6.323  -0.212  0.00  0.00    +0.033 A 
ATOM     25  C   UNL     1      -0.171   5.662   0.595  0.00  0.00    +0.025 A 
ATOM     26  C   UNL     1      -0.204   4.285   0.692  0.00  0.00    +0.025 A 
ATOM     27  C   UNL     1      -1.154   3.562  -0.017  0.00  0.00    +0.033 A 
ATOM     28  C   UNL     1      -2.066   4.222  -0.828  0.00  0.00    +0.025 A 
ATOM     29  C   UNL     1      -2.037   5.599  -0.921  0.00  0.00    +0.025 A 
BRANCH  27  30
ATOM     30  N   UNL     1      -1.187   2.164   0.083  0.00  0.00    -0.286 N 
ATOM     31  C   UNL     1      -2.368   1.515   0.055  0.00  0.00    +0.214 C 
ATOM     32  O   UNL     1      -3.406   2.143   0.071  0.00  0.00    -0.276 OA
ATOM     33  C   UNL     1      -2.399   0.009   0.012  0.00  0.00    +0.109 C 
ATOM     34  H   UNL     1      -0.361   1.664   0.171  0.00  0.00    +0.155 HD
ENDBRANCH  27  30
ENDBRANCH  22  24
ENDBRANCH  20  22
ENDBRANCH  18  20
ENDBRANCH   1  18
TORSDOF 9
