REMARK  Name = ZINC34786861
REMARK  6 active torsions:
REMARK  status: ('A' for Active; 'I' for Inactive)
REMARK    1  A    between atoms: C_1  and  C_2
REMARK    2  A    between atoms: C_4  and  C_34
REMARK    3  A    between atoms: N_19  and  N_20
REMARK    4  A    between atoms: N_19  and  N_27
REMARK    5  A    between atoms: N_20  and  C_21
REMARK    6  A    between atoms: N_27  and  C_28
REMARK                            x       y       z     vdW  Elec       q    Type
REMARK                         _______ _______ _______ _____ _____    ______ ____
ROOT
ATOM      1  C   UNL     1      -3.637   1.108   1.098  0.00  0.00    +0.067 C 
ATOM      2  C   UNL     1      -2.840  -0.142   0.829  0.00  0.00    +0.061 A 
ATOM      3  C   UNL     1      -2.606  -0.710  -0.429  0.00  0.00    +0.048 A 
ATOM      4  C   UNL     1      -1.852  -1.819  -0.253  0.00  0.00    +0.045 A 
ATOM      5  N   UNL     1      -1.617  -1.948   1.079  0.00  0.00    -0.202 N 
ATOM      6  N   UNL     1      -2.244  -0.878   1.731  0.00  0.00    -0.169 NA
ATOM      7  C   UNL     1      -0.877  -2.962   1.689  0.00  0.00    +0.254 A 
ATOM      8  N   UNL     1      -0.736  -2.960   3.007  0.00  0.00    -0.192 NA
ATOM      9  C   UNL     1      -0.046  -3.894   3.642  0.00  0.00    +0.170 A 
ATOM     10  C   UNL     1       0.564  -4.935   2.888  0.00  0.00    +0.054 A 
ATOM     11  C   UNL     1       1.369  -6.066   3.378  0.00  0.00    -0.025 A 
ATOM     12  C   UNL     1       1.839  -6.921   2.455  0.00  0.00    -0.004 A 
ATOM     13  S   UNL     1       1.250  -6.293   0.899  0.00  0.00    -0.073 S 
ATOM     14  C   UNL     1       0.372  -4.873   1.496  0.00  0.00    +0.116 A 
ATOM     15  N   UNL     1      -0.335  -3.909   0.939  0.00  0.00    -0.203 NA
ATOM     16  C   UNL     1       2.649  -8.031   3.069  0.00  0.00    +0.043 C 
ATOM     17  C   UNL     1       2.992  -7.523   4.487  0.00  0.00    +0.010 C 
ATOM     18  C   UNL     1       1.831  -6.545   4.757  0.00  0.00    +0.037 C 
ATOM     19  N   UNL     1       0.079  -3.859   5.019  0.00  0.00    -0.151 N 
ATOM     20  C   UNL     1      -1.363  -2.744  -1.337  0.00  0.00    +0.066 C 
ENDROOT
BRANCH  19  21
ATOM     21  N   UNL     1      -1.065  -3.803   5.825  0.00  0.00    -0.246 N 
ATOM     22  H   UNL     1      -1.290  -2.983   6.291  0.00  0.00    +0.172 HD
BRANCH  21  23
ATOM     23  C   UNL     1      -1.881  -4.929   5.959  0.00  0.00    +0.046 A 
ATOM     24  C   UNL     1      -1.638  -6.060   5.191  0.00  0.00    +0.024 A 
ATOM     25  C   UNL     1      -2.446  -7.172   5.326  0.00  0.00    +0.002 A 
ATOM     26  C   UNL     1      -3.497  -7.159   6.225  0.00  0.00    +0.000 A 
ATOM     27  C   UNL     1      -3.741  -6.035   6.992  0.00  0.00    +0.002 A 
ATOM     28  C   UNL     1      -2.933  -4.922   6.866  0.00  0.00    +0.024 A 
ENDBRANCH  21  23
ENDBRANCH  19  21
BRANCH  19  29
ATOM     29  N   UNL     1       1.351  -3.879   5.607  0.00  0.00    -0.246 N 
ATOM     30  H   UNL     1       1.599  -4.605   6.200  0.00  0.00    +0.172 HD
BRANCH  29  31
ATOM     31  C   UNL     1       2.261  -2.854   5.339  0.00  0.00    +0.046 A 
ATOM     32  C   UNL     1       1.867  -1.752   4.590  0.00  0.00    +0.024 A 
ATOM     33  C   UNL     1       2.769  -0.740   4.327  0.00  0.00    +0.002 A 
ATOM     34  C   UNL     1       4.063  -0.823   4.808  0.00  0.00    +0.000 A 
ATOM     35  C   UNL     1       4.459  -1.919   5.552  0.00  0.00    +0.002 A 
ATOM     36  C   UNL     1       3.560  -2.932   5.824  0.00  0.00    +0.024 A 
ENDBRANCH  29  31
ENDBRANCH  19  29
TORSDOF 4
