REMARK  Name = ZINC03586501
REMARK  8 active torsions:
REMARK  status: ('A' for Active; 'I' for Inactive)
REMARK    1  A    between atoms: C_1  and  C_2
REMARK    2  A    between atoms: C_5  and  C_8
REMARK    3  A    between atoms: C_8  and  N_9
REMARK    4  A    between atoms: C_18  and  C_19
REMARK    5  A    between atoms: C_22  and  C_25
REMARK    6  A    between atoms: N_27  and  C_28
REMARK    7  A    between atoms: C_28  and  C_29
REMARK    8  A    between atoms: C_29  and  N_30
REMARK                            x       y       z     vdW  Elec       q    Type
REMARK                         _______ _______ _______ _____ _____    ______ ____
ROOT
ATOM      1  N   UNL     1      -0.109  -0.305  -2.457  0.00  0.00    -0.257 N 
ATOM      2  C   UNL     1       0.678   0.852  -2.420  0.00  0.00    +0.079 A 
ATOM      3  C   UNL     1       0.211   2.029  -2.988  0.00  0.00    +0.027 A 
ATOM      4  C   UNL     1       0.990   3.170  -2.950  0.00  0.00    +0.002 A 
ATOM      5  C   UNL     1       2.235   3.144  -2.347  0.00  0.00    +0.004 A 
ATOM      6  C   UNL     1       2.708   1.976  -1.778  0.00  0.00    +0.048 A 
ATOM      7  C   UNL     1       1.933   0.827  -1.813  0.00  0.00    +0.150 A 
ATOM      8  O   UNL     1       2.396  -0.326  -1.256  0.00  0.00    -0.449 OA
ATOM      9  C   UNL     1       1.444  -1.209  -0.830  0.00  0.00    +0.191 C 
ATOM     10  C   UNL     1       1.599  -1.919   0.310  0.00  0.00    +0.059 C 
ATOM     11  C   UNL     1       0.235  -1.354  -1.672  0.00  0.00    +0.287 C 
ATOM     12  O   UNL     1      -0.424  -2.377  -1.660  0.00  0.00    -0.266 OA
ENDROOT
BRANCH  10  13
ATOM     13  C   UNL     1       0.481  -2.715   0.839  0.00  0.00    -0.021 A 
ATOM     14  C   UNL     1      -0.826  -2.220   0.766  0.00  0.00    +0.009 A 
ATOM     15  C   UNL     1      -1.865  -2.963   1.252  0.00  0.00    +0.013 A 
ATOM     16  C   UNL     1      -1.620  -4.211   1.833  0.00  0.00    +0.037 A 
ATOM     17  C   UNL     1      -0.314  -4.703   1.912  0.00  0.00    +0.013 A 
ATOM     18  C   UNL     1       0.725  -3.965   1.421  0.00  0.00    +0.009 A 
BRANCH  16  19
ATOM     19  C   UNL     1      -2.743  -5.010   2.364  0.00  0.00    +0.244 C 
ATOM     20  O   UNL     1      -2.531  -6.095   2.869  0.00  0.00    -0.270 OA
ATOM     21  N   UNL     1      -4.002  -4.536   2.289  0.00  0.00    -0.313 N 
ATOM     22  H   UNL     1      -4.194  -3.554   1.832  0.00  0.00    +0.149 HD
BRANCH  21  23
ATOM     23  C   UNL     1      -5.116  -5.329   2.816  0.00  0.00    +0.086 C 
BRANCH  23  24
ATOM     24  C   UNL     1      -6.427  -4.568   2.607  0.00  0.00    -0.060 C 
BRANCH  24  25
ATOM     25  N   UNL     1      -7.544  -5.363   3.135  0.00  0.00    +0.381 N 
ATOM     26  C   UNL     1      -7.657  -6.657   2.425  0.00  0.00    -0.079 C 
ATOM     27  C   UNL     1      -8.936  -7.384   2.736  0.00  0.00    -0.019 C 
ATOM     28  C   UNL     1      -9.981  -7.020   1.661  0.00  0.00    -0.002 C 
ATOM     29  C   UNL     1     -10.576  -5.709   1.893  0.00  0.00    -0.002 C 
ATOM     30  C   UNL     1      -9.527  -4.578   1.857  0.00  0.00    -0.019 C 
ATOM     31  C   UNL     1      -8.791  -4.568   3.169  0.00  0.00    -0.079 C 
ATOM     32  H   UNL     1      -7.332  -5.622   4.183  0.00  0.00    -0.082 HD
ENDBRANCH  24  25
ENDBRANCH  23  24
ENDBRANCH  21  23
ENDBRANCH  16  19
ENDBRANCH  10  13
BRANCH   1  33
ATOM     33  C   UNL     1      -1.282  -0.381  -3.333  0.00  0.00    +0.149 C 
BRANCH  33  38
ATOM     34  C   UNL     1       0.374  -1.994  -8.629  0.00  0.00    +0.044 C 
ATOM     35  C   UNL     1      -0.059  -1.574  -7.248  0.00  0.00    -0.050 A 
ATOM     36  C   UNL     1      -0.306  -2.529  -6.280  0.00  0.00    +0.003 A 
ATOM     37  C   UNL     1      -0.702  -2.143  -5.013  0.00  0.00    +0.005 A 
ATOM     38  C   UNL     1      -0.850  -0.802  -4.714  0.00  0.00    -0.030 A 
ATOM     39  C   UNL     1      -0.608   0.153  -5.683  0.00  0.00    +0.005 A 
ATOM     40  C   UNL     1      -0.208  -0.232  -6.949  0.00  0.00    +0.003 A 
ENDBRANCH  33  38
ENDBRANCH   1  33
TORSDOF 7
