REMARK  Name = ZINC25449302
REMARK  10 active torsions:
REMARK  status: ('A' for Active; 'I' for Inactive)
REMARK    1  A    between atoms: C_1  and  C_2
REMARK    2  A    between atoms: C_2  and  C_4
REMARK    3  A    between atoms: C_2  and  N_17
REMARK    4  A    between atoms: C_4  and  C_6
REMARK    5  A    between atoms: C_7  and  N_16
REMARK    6  A    between atoms: N_8  and  C_15
REMARK    7  A    between atoms: N_11  and  C_14
REMARK    8  A    between atoms: C_20  and  C_23
REMARK    9  A    between atoms: C_23  and  C_25
REMARK   10  A    between atoms: C_28  and  O_31
REMARK                            x       y       z     vdW  Elec       q    Type
REMARK                         _______ _______ _______ _____ _____    ______ ____
ROOT
ATOM      1  C   UNL     1      -7.910   2.116   1.623  0.00  0.00    -0.005 C 
ATOM      2  C   UNL     1      -8.136   2.087   0.111  0.00  0.00    +0.001 C 
ENDROOT
BRANCH   2   3
ATOM      3  N   UNL     1      -7.062   1.316  -0.530  0.00  0.00    +0.386 N 
ATOM      4  C   UNL     1      -7.191   1.350  -1.993  0.00  0.00    -0.077 C 
ATOM      5  C   UNL     1      -6.148   0.422  -2.620  0.00  0.00    -0.007 C 
ATOM      6  C   UNL     1      -4.748   0.879  -2.201  0.00  0.00    +0.057 C 
ATOM      7  C   UNL     1      -4.656   0.881  -0.673  0.00  0.00    -0.007 C 
ATOM      8  C   UNL     1      -5.742   1.796  -0.102  0.00  0.00    -0.077 C 
ATOM      9  H   UNL     1      -7.159   0.268  -0.210  0.00  0.00    -0.081 HD
BRANCH   6  10
ATOM     10  C   UNL     1      -3.720  -0.066  -2.767  0.00  0.00    +0.166 C 
ATOM     11  O   UNL     1      -4.027  -1.210  -3.030  0.00  0.00    -0.292 OA
BRANCH  10  12
ATOM     12  C   UNL     1      -2.345   0.397  -2.998  0.00  0.00    +0.018 A 
ATOM     13  C   UNL     1      -1.388  -0.480  -3.523  0.00  0.00    +0.015 A 
ATOM     14  C   UNL     1      -0.107  -0.041  -3.743  0.00  0.00    +0.046 A 
ATOM     15  C   UNL     1       0.242   1.271  -3.439  0.00  0.00    +0.117 A 
ATOM     16  C   UNL     1      -0.704   2.144  -2.912  0.00  0.00    +0.046 A 
ATOM     17  C   UNL     1      -1.986   1.715  -2.689  0.00  0.00    +0.015 A 
BRANCH  15  18
ATOM     18  O   UNL     1       1.510   1.700  -3.659  0.00  0.00    -0.507 OA
ATOM     19  H   UNL     1       1.789   2.737  -3.420  0.00  0.00    +0.292 HD
ENDBRANCH  15  18
ENDBRANCH  10  12
ENDBRANCH   6  10
ENDBRANCH   2   3
BRANCH   2  20
ATOM     20  C   UNL     1      -8.131   3.496  -0.425  0.00  0.00    +0.158 C 
ATOM     21  O   UNL     1      -7.149   3.926  -0.995  0.00  0.00    -0.294 OA
BRANCH  20  22
ATOM     22  C   UNL     1      -9.269   4.316  -0.264  0.00  0.00    +0.118 A 
ATOM     23  C   UNL     1      -9.248   5.668  -0.645  0.00  0.00    +0.116 A 
ATOM     24  N   UNL     1     -10.375   6.420  -0.474  0.00  0.00    -0.284 N 
ATOM     25  C   UNL     1     -11.490   5.895   0.056  0.00  0.00    +0.333 A 
ATOM     26  O   UNL     1     -12.466   6.607   0.191  0.00  0.00    -0.246 OA
ATOM     27  N   UNL     1     -11.568   4.611   0.443  0.00  0.00    -0.263 N 
ATOM     28  C   UNL     1     -10.511   3.784   0.312  0.00  0.00    +0.269 A 
ATOM     29  O   UNL     1     -10.585   2.621   0.664  0.00  0.00    -0.267 OA
ATOM     30  C   UNL     1     -12.818   4.103   1.015  0.00  0.00    +0.157 C 
ATOM     31  C   UNL     1     -10.365   7.830  -0.873  0.00  0.00    +0.155 C 
BRANCH  23  32
ATOM     32  N   UNL     1      -8.124   6.219  -1.179  0.00  0.00    -0.344 N 
ATOM     33  H   UNL     1      -8.117   7.278  -1.474  0.00  0.00    +0.144 HD
ATOM     34  H   UNL     1      -7.222   5.604  -1.316  0.00  0.00    +0.144 HD
ENDBRANCH  23  32
ENDBRANCH  20  22
ENDBRANCH   2  20
TORSDOF 7
