REMARK  Name = ZINC01864787
REMARK  9 active torsions:
REMARK  status: ('A' for Active; 'I' for Inactive)
REMARK    1  A    between atoms: C_1  and  C_2
REMARK    2  A    between atoms: C_2  and  C_3
REMARK    3  A    between atoms: C_2  and  C_4
REMARK    4  A    between atoms: C_4  and  N_5
REMARK    5  A    between atoms: C_13  and  C_17
REMARK    6  A    between atoms: C_13  and  N_21
REMARK    7  A    between atoms: C_22  and  C_24
REMARK    8  A    between atoms: C_24  and  C_25
REMARK    9  A    between atoms: C_25  and  C_26
REMARK                            x       y       z     vdW  Elec       q    Type
REMARK                         _______ _______ _______ _____ _____    ______ ____
ROOT
ATOM      1  N   UNL     1      -0.172   0.039   2.369  0.00  0.00    -0.281 N 
ATOM      2  C   UNL     1      -1.062  -0.878   2.889  0.00  0.00    +0.120 A 
ATOM      3  C   UNL     1      -1.716  -0.563   4.043  0.00  0.00    +0.096 A 
ATOM      4  C   UNL     1      -1.480   0.666   4.674  0.00  0.00    +0.262 A 
ATOM      5  N   UNL     1      -0.601   1.531   4.127  0.00  0.00    -0.275 N 
ATOM      6  C   UNL     1       0.044   1.210   2.991  0.00  0.00    +0.331 A 
ATOM      7  O   UNL     1       0.837   1.999   2.514  0.00  0.00    -0.246 OA
ATOM      8  O   UNL     1      -2.064   0.950   5.705  0.00  0.00    -0.267 OA
ATOM      9  C   UNL     1      -2.609  -1.737   4.368  0.00  0.00    +0.240 C 
ATOM     10  C   UNL     1      -2.340  -2.709   3.237  0.00  0.00    +0.256 C 
ATOM     11  O   UNL     1      -2.843  -3.802   3.084  0.00  0.00    -0.272 OA
ATOM     12  N   UNL     1      -1.434  -2.120   2.437  0.00  0.00    -0.269 N 
ATOM     13  H   UNL     1      -0.432   2.385   4.556  0.00  0.00    +0.173 HD
ATOM     14  H   UNL     1      -1.082  -2.528   1.630  0.00  0.00    +0.156 HD
ENDROOT
BRANCH   9  15
ATOM     15  C   UNL     1      -4.078  -1.310   4.375  0.00  0.00    +0.424 C 
ATOM     16  F   UNL     1      -4.390  -0.694   3.159  0.00  0.00    -0.167 F 
ATOM     17  F   UNL     1      -4.889  -2.437   4.549  0.00  0.00    -0.167 F 
ATOM     18  F   UNL     1      -4.298  -0.411   5.424  0.00  0.00    -0.167 F 
ENDBRANCH   9  15
BRANCH   9  19
ATOM     19  N   UNL     1      -2.236  -2.328   5.656  0.00  0.00    -0.291 N 
ATOM     20  C   UNL     1      -0.978  -2.769   5.856  0.00  0.00    +0.214 C 
ATOM     21  O   UNL     1      -0.133  -2.600   5.002  0.00  0.00    -0.276 OA
ATOM     22  H   UNL     1      -2.894  -2.401   6.365  0.00  0.00    +0.150 HD
BRANCH  20  23
ATOM     23  C   UNL     1      -0.622  -3.473   7.140  0.00  0.00    +0.096 C 
BRANCH  23  24
ATOM     24  C   UNL     1       0.856  -3.868   7.112  0.00  0.00    +0.013 C 
BRANCH  24  25
ATOM     25  C   UNL     1       1.218  -4.582   8.416  0.00  0.00    -0.011 C 
ATOM     26  C   UNL     1       1.082  -3.607   9.586  0.00  0.00    +0.003 C 
ATOM     27  C   UNL     1       1.444  -4.322  10.890  0.00  0.00    +0.000 C 
ATOM     28  C   UNL     1       2.886  -4.826  10.812  0.00  0.00    +0.000 C 
ATOM     29  C   UNL     1       3.022  -5.802   9.641  0.00  0.00    +0.000 C 
ATOM     30  C   UNL     1       2.660  -5.087   8.337  0.00  0.00    +0.003 C 
ENDBRANCH  24  25
ENDBRANCH  23  24
ENDBRANCH  20  23
ENDBRANCH   9  19
BRANCH   1  31
ATOM     31  C   UNL     1       0.547  -0.270   1.130  0.00  0.00    +0.131 C 
BRANCH  31  33
ATOM     32  C   UNL     1      -0.368   1.747  -0.027  0.00  0.00    +0.009 C 
ATOM     33  C   UNL     1      -0.268   0.221  -0.068  0.00  0.00    +0.003 C 
ATOM     34  C   UNL     1       0.421  -0.211  -1.364  0.00  0.00    +0.009 C 
ENDBRANCH  31  33
ENDBRANCH   1  31
TORSDOF 7
