REMARK  Name = ZINC40370484
REMARK  9 active torsions:
REMARK  status: ('A' for Active; 'I' for Inactive)
REMARK    1  A    between atoms: C_1  and  C_2
REMARK    2  A    between atoms: C_2  and  C_3
REMARK    3  A    between atoms: C_3  and  C_5
REMARK    4  A    between atoms: C_3  and  N_9
REMARK    5  A    between atoms: N_6  and  O_7
REMARK    6  A    between atoms: C_10  and  C_12
REMARK    7  A    between atoms: C_13  and  C_20
REMARK    8  A    between atoms: C_15  and  C_19
REMARK    9  A    between atoms: C_17  and  C_18
REMARK                            x       y       z     vdW  Elec       q    Type
REMARK                         _______ _______ _______ _____ _____    ______ ____
ROOT
ATOM      1  N   UNL     1      -2.105  -0.148  -1.230  0.00  0.00    -0.302 N 
ATOM      2  C   UNL     1      -2.690   1.062  -1.334  0.00  0.00    +0.245 C 
ATOM      3  O   UNL     1      -2.659   1.833  -0.395  0.00  0.00    -0.270 OA
ATOM      4  H   UNL     1      -2.130  -0.764  -1.980  0.00  0.00    +0.150 HD
ENDROOT
BRANCH   2   5
ATOM      5  C   UNL     1      -3.368   1.451  -2.588  0.00  0.00    +0.043 A 
ATOM      6  C   UNL     1      -4.725   1.176  -2.766  0.00  0.00    -0.038 A 
ATOM      7  C   UNL     1      -5.352   1.542  -3.939  0.00  0.00    +0.007 A 
ATOM      8  C   UNL     1      -4.639   2.179  -4.939  0.00  0.00    -0.050 A 
ATOM      9  C   UNL     1      -3.293   2.454  -4.769  0.00  0.00    +0.007 A 
ATOM     10  C   UNL     1      -2.656   2.099  -3.598  0.00  0.00    -0.038 A 
ATOM     11  C   UNL     1      -1.192   2.405  -3.413  0.00  0.00    +0.044 C 
ATOM     12  C   UNL     1      -5.330   2.576  -6.218  0.00  0.00    +0.044 C 
ATOM     13  C   UNL     1      -5.503   0.481  -1.679  0.00  0.00    +0.044 C 
ENDBRANCH   2   5
BRANCH   1  14
ATOM     14  C   UNL     1      -1.433  -0.534   0.013  0.00  0.00    +0.139 C 
BRANCH  14  15
ATOM     15  C   UNL     1      -1.414  -2.036   0.129  0.00  0.00    +0.152 C 
ATOM     16  N   UNL     1      -1.331  -2.593   1.291  0.00  0.00    -0.075 NA
ATOM     17  N   UNL     1      -1.484  -2.815  -1.005  0.00  0.00    -0.342 N 
ATOM     18  H   UNL     1      -1.546  -2.396  -1.878  0.00  0.00    +0.144 HD
ATOM     19  H   UNL     1      -1.471  -3.782  -0.931  0.00  0.00    +0.144 HD
BRANCH  16  20
ATOM     20  O   UNL     1      -1.312  -4.005   1.399  0.00  0.00    -0.408 OA
ATOM     21  H   UNL     1      -1.248  -4.329   2.308  0.00  0.00    +0.328 HD
ENDBRANCH  16  20
ENDBRANCH  14  15
BRANCH  14  23
ATOM     22  C   UNL     1      -0.019   1.526   0.010  0.00  0.00    +0.006 C 
ATOM     23  C   UNL     1       0.002  -0.004   0.002  0.00  0.00    +0.027 C 
ENDBRANCH  14  23
ENDBRANCH   1  14
TORSDOF 5
