REMARK  Name = ZINC09285229
REMARK  9 active torsions:
REMARK  status: ('A' for Active; 'I' for Inactive)
REMARK    1  A    between atoms: C_3  and  N_20
REMARK    2  A    between atoms: C_6  and  C_7
REMARK    3  A    between atoms: N_9  and  N_10
REMARK    4  A    between atoms: C_11  and  C_13
REMARK    5  A    between atoms: C_13  and  C_14
REMARK    6  A    between atoms: C_14  and  C_15
REMARK    7  A    between atoms: C_15  and  N_16
REMARK    8  A    between atoms: N_20  and  S_21
REMARK    9  A    between atoms: S_21  and  C_24
REMARK                            x       y       z     vdW  Elec       q    Type
REMARK                         _______ _______ _______ _____ _____    ______ ____
ROOT
ATOM      1  C   UNL     1       3.456  -3.164  -4.348  0.00  0.00    +0.015 A 
ATOM      2  C   UNL     1       2.465  -3.472  -3.444  0.00  0.00    +0.025 A 
ATOM      3  C   UNL     1       2.113  -2.556  -2.457  0.00  0.00    +0.048 A 
ATOM      4  C   UNL     1       2.758  -1.324  -2.384  0.00  0.00    +0.025 A 
ATOM      5  C   UNL     1       3.754  -1.013  -3.281  0.00  0.00    +0.015 A 
ATOM      6  C   UNL     1       4.110  -1.931  -4.274  0.00  0.00    +0.038 A 
ENDROOT
BRANCH   6   7
ATOM      7  C   UNL     1       5.173  -1.598  -5.241  0.00  0.00    +0.260 C 
ATOM      8  O   UNL     1       5.482  -2.397  -6.104  0.00  0.00    -0.269 OA
ATOM      9  N   UNL     1       5.802  -0.408  -5.168  0.00  0.00    -0.230 N 
ATOM     10  H   UNL     1       5.556   0.229  -4.480  0.00  0.00    +0.173 HD
BRANCH   9  11
ATOM     11  N   UNL     1       6.812  -0.092  -6.086  0.00  0.00    -0.234 N 
ATOM     12  C   UNL     1       7.441   1.097  -6.013  0.00  0.00    +0.229 C 
ATOM     13  O   UNL     1       7.133   1.894  -5.153  0.00  0.00    -0.274 OA
ATOM     14  H   UNL     1       7.058  -0.730  -6.775  0.00  0.00    +0.173 HD
BRANCH  12  15
ATOM     15  C   UNL     1       8.527   1.437  -7.001  0.00  0.00    +0.099 C 
BRANCH  15  16
ATOM     16  C   UNL     1       9.072   2.835  -6.699  0.00  0.00    +0.028 C 
BRANCH  16  17
ATOM     17  C   UNL     1      10.175   3.180  -7.702  0.00  0.00    +0.106 C 
BRANCH  17  18
ATOM     18  N   UNL     1      10.696   4.518  -7.413  0.00  0.00    -0.300 N 
ATOM     19  C   UNL     1      11.682   5.035  -8.174  0.00  0.00    +0.297 C 
ATOM     20  O   UNL     1      12.138   4.392  -9.099  0.00  0.00    -0.253 OA
ATOM     21  N   UNL     1      12.162   6.267  -7.908  0.00  0.00    -0.313 N 
ATOM     22  H   UNL     1      10.333   5.031  -6.675  0.00  0.00    +0.150 HD
ATOM     23  H   UNL     1      11.798   6.780  -7.169  0.00  0.00    +0.146 HD
ATOM     24  H   UNL     1      12.871   6.639  -8.455  0.00  0.00    +0.146 HD
ENDBRANCH  17  18
ENDBRANCH  16  17
ENDBRANCH  15  16
ENDBRANCH  12  15
ENDBRANCH   9  11
ENDBRANCH   6   7
BRANCH   3  25
ATOM     25  N   UNL     1       1.111  -2.870  -1.545  0.00  0.00    -0.216 N 
ATOM     26  H   UNL     1       0.239  -2.453  -1.621  0.00  0.00    +0.174 HD
BRANCH  25  27
ATOM     27  S   UNL     1       1.408  -3.954  -0.329  0.00  0.00    +0.072 S 
ATOM     28  O   UNL     1       1.972  -5.106  -0.941  0.00  0.00    -0.150 OA
ATOM     29  O   UNL     1       0.229  -4.012   0.461  0.00  0.00    -0.150 OA
BRANCH  27  30
ATOM     30  C   UNL     1       2.665  -3.260   0.693  0.00  0.00    +0.109 A 
ATOM     31  C   UNL     1       2.327  -2.375   1.699  0.00  0.00    +0.030 A 
ATOM     32  C   UNL     1       3.312  -1.831   2.501  0.00  0.00    +0.017 A 
ATOM     33  C   UNL     1       4.637  -2.172   2.296  0.00  0.00    +0.018 A 
ATOM     34  C   UNL     1       4.975  -3.057   1.288  0.00  0.00    +0.017 A 
ATOM     35  C   UNL     1       3.989  -3.601   0.487  0.00  0.00    +0.030 A 
ATOM     36 BR   UNL     1       5.986  -1.428   3.393  0.00  0.00    -0.050 Br
ENDBRANCH  27  30
ENDBRANCH  25  27
ENDBRANCH   3  25
TORSDOF 9
