REMARK  Name = ZINC66120261
REMARK  9 active torsions:
REMARK  status: ('A' for Active; 'I' for Inactive)
REMARK    1  A    between atoms: C_1  and  C_2
REMARK    2  A    between atoms: C_2  and  C_3
REMARK    3  A    between atoms: C_3  and  N_4
REMARK    4  A    between atoms: C_5  and  C_7
REMARK    5  A    between atoms: C_7  and  N_8
REMARK    6  A    between atoms: C_11  and  N_14
REMARK    7  A    between atoms: C_21  and  C_24
REMARK    8  A    between atoms: C_24  and  C_25
REMARK    9  A    between atoms: C_25  and  C_26
REMARK                            x       y       z     vdW  Elec       q    Type
REMARK                         _______ _______ _______ _____ _____    ______ ____
ROOT
ATOM      1  N   UNL     1       2.982  -6.549  -7.118  0.00  0.00    -0.297 N 
ATOM      2  C   UNL     1       2.870  -7.799  -7.609  0.00  0.00    +0.302 C 
ATOM      3  O   UNL     1       2.188  -8.621  -7.029  0.00  0.00    -0.253 OA
ATOM      4  N   UNL     1       3.515  -8.137  -8.743  0.00  0.00    -0.285 N 
ATOM      5  C   UNL     1       4.438  -7.194  -9.390  0.00  0.00    +0.109 C 
ATOM      6  C   UNL     1       5.789  -7.888  -9.594  0.00  0.00    +0.019 C 
ATOM      7  C   UNL     1       5.577  -9.191 -10.368  0.00  0.00    +0.006 C 
ATOM      8  C   UNL     1       4.672 -10.124  -9.561  0.00  0.00    +0.007 C 
ATOM      9  C   UNL     1       3.313  -9.458  -9.354  0.00  0.00    +0.112 C 
ATOM     10  H   UNL     1       3.583  -5.914  -7.539  0.00  0.00    +0.151 HD
ENDROOT
BRANCH   1  14
ATOM     11  N   UNL     1       2.023  -4.598  -3.507  0.00  0.00    +0.385 N 
ATOM     12  C   UNL     1       1.249  -4.211  -4.692  0.00  0.00    -0.076 C 
ATOM     13  C   UNL     1       2.001  -4.630  -5.957  0.00  0.00    +0.004 C 
ATOM     14  C   UNL     1       2.197  -6.149  -5.947  0.00  0.00    +0.071 C 
ATOM     15  C   UNL     1       2.941  -6.550  -4.670  0.00  0.00    +0.004 C 
ATOM     16  C   UNL     1       2.154  -6.059  -3.453  0.00  0.00    -0.076 C 
ATOM     17  H   UNL     1       2.941  -4.182  -3.556  0.00  0.00    -0.081 HD
BRANCH  11  18
ATOM     18  C   UNL     1       1.336  -4.125  -2.298  0.00  0.00    +0.019 C 
BRANCH  18  20
ATOM     19  N   UNL     1       0.726  -1.958  -1.273  0.00  0.00    -0.317 N 
ATOM     20  C   UNL     1       1.310  -2.618  -2.293  0.00  0.00    +0.196 C 
ATOM     21  O   UNL     1       1.815  -2.000  -3.206  0.00  0.00    -0.278 OA
ATOM     22  H   UNL     1       0.323  -2.453  -0.543  0.00  0.00    +0.149 HD
BRANCH  19  23
ATOM     23  C   UNL     1       0.701  -0.493  -1.268  0.00  0.00    +0.104 C 
BRANCH  23  25
ATOM     24  C   UNL     1      -0.041   1.530  -0.003  0.00  0.00    +0.005 C 
ATOM     25  C   UNL     1      -0.015   0.000  -0.009  0.00  0.00    +0.015 C 
ENDBRANCH  23  25
ENDBRANCH  19  23
ENDBRANCH  18  20
ENDBRANCH  11  18
ENDBRANCH   1  14
BRANCH   8  26
ATOM     26  C   UNL     1       4.488 -11.440 -10.321  0.00  0.00    +0.014 C 
BRANCH  26  27
ATOM     27  C   UNL     1       3.687 -12.418  -9.460  0.00  0.00    +0.096 C 
BRANCH  27  28
ATOM     28  C   UNL     1       3.506 -13.714 -10.209  0.00  0.00    +0.210 C 
ATOM     29  O   UNL     1       3.972 -13.842 -11.321  0.00  0.00    -0.276 OA
ATOM     30  N   UNL     1       2.826 -14.730  -9.642  0.00  0.00    -0.329 N 
ATOM     31  H   UNL     1       2.454 -14.628  -8.752  0.00  0.00    +0.145 HD
ATOM     32  H   UNL     1       2.710 -15.564 -10.123  0.00  0.00    +0.145 HD
ENDBRANCH  27  28
ENDBRANCH  26  27
ENDBRANCH   8  26
TORSDOF 8
