REMARK  Name = ZINC45931673
REMARK  8 active torsions:
REMARK  status: ('A' for Active; 'I' for Inactive)
REMARK    1  A    between atoms: C_1  and  C_2
REMARK    2  A    between atoms: C_7  and  C_8
REMARK    3  A    between atoms: C_8  and  C_10
REMARK    4  A    between atoms: C_8  and  N_27
REMARK    5  A    between atoms: C_10  and  C_11
REMARK    6  A    between atoms: N_13  and  C_14
REMARK    7  A    between atoms: N_18  and  C_20
REMARK    8  A    between atoms: C_20  and  C_21
REMARK                            x       y       z     vdW  Elec       q    Type
REMARK                         _______ _______ _______ _____ _____    ______ ____
ROOT
ATOM      1  C   UNL     1       1.128   1.536   4.147  0.00  0.00    +0.215 C 
ATOM      2  O   UNL     1       0.004   1.711   4.566  0.00  0.00    -0.276 OA
ATOM      3  N   UNL     1       2.170   2.161   4.731  0.00  0.00    -0.314 N 
ATOM      4  H   UNL     1       3.069   2.022   4.396  0.00  0.00    +0.149 HD
ENDROOT
BRANCH   3   5
ATOM      5  C   UNL     1       1.943   3.052   5.872  0.00  0.00    +0.055 C 
ATOM      6  C   UNL     1       1.969   2.248   7.193  0.00  0.00    +0.002 C 
ATOM      7  C   UNL     1       3.420   2.454   7.695  0.00  0.00    -0.077 C 
ATOM      8  N   UNL     1       3.712   3.863   7.325  0.00  0.00    +0.384 N 
ATOM      9  C   UNL     1       3.094   4.068   5.994  0.00  0.00    -0.056 C 
ATOM     10  H   UNL     1       3.301   4.492   7.998  0.00  0.00    -0.081 HD
BRANCH   8  11
ATOM     11  C   UNL     1       5.163   4.077   7.248  0.00  0.00    -0.043 C 
BRANCH  11  12
ATOM     12  C   UNL     1       5.765   3.933   8.622  0.00  0.00    -0.064 A 
ATOM     13  C   UNL     1       5.874   5.037   9.447  0.00  0.00    +0.002 A 
ATOM     14  C   UNL     1       6.426   4.906  10.708  0.00  0.00    +0.000 A 
ATOM     15  C   UNL     1       6.870   3.671  11.143  0.00  0.00    +0.000 A 
ATOM     16  C   UNL     1       6.760   2.567  10.318  0.00  0.00    +0.000 A 
ATOM     17  C   UNL     1       6.204   2.698   9.059  0.00  0.00    +0.002 A 
ENDBRANCH  11  12
ENDBRANCH   8  11
ENDBRANCH   3   5
BRANCH   1  18
ATOM     18  C   UNL     1       1.361   0.620   2.973  0.00  0.00    +0.123 C 
BRANCH  18  19
ATOM     19  C   UNL     1       0.024   0.044   2.503  0.00  0.00    +0.114 C 
BRANCH  19  26
ATOM     20  C   UNL     1      -2.230  -0.709   0.860  0.00  0.00    +0.044 C 
ATOM     21  C   UNL     1      -0.838  -1.133   0.469  0.00  0.00    -0.045 A 
ATOM     22  C   UNL     1      -0.639  -1.879  -0.678  0.00  0.00    +0.004 A 
ATOM     23  C   UNL     1       0.638  -2.268  -1.036  0.00  0.00    +0.000 A 
ATOM     24  C   UNL     1       1.716  -1.913  -0.247  0.00  0.00    +0.000 A 
ATOM     25  C   UNL     1       1.517  -1.167   0.900  0.00  0.00    +0.006 A 
ATOM     26  C   UNL     1       0.241  -0.774   1.255  0.00  0.00    -0.024 A 
ENDBRANCH  19  26
BRANCH  19  27
ATOM     27  N   UNL     1      -0.537  -0.808   3.554  0.00  0.00    -0.292 N 
ATOM     28  C   UNL     1       0.102  -1.937   3.920  0.00  0.00    +0.298 C 
ATOM     29  O   UNL     1       1.190  -2.201   3.444  0.00  0.00    -0.253 OA
ATOM     30  N   UNL     1      -0.464  -2.773   4.812  0.00  0.00    -0.313 N 
ATOM     31  H   UNL     1      -1.369  -0.560   3.987  0.00  0.00    +0.151 HD
ATOM     32  H   UNL     1      -1.331  -2.563   5.191  0.00  0.00    +0.146 HD
ATOM     33  H   UNL     1      -0.003  -3.586   5.075  0.00  0.00    +0.146 HD
ENDBRANCH  19  27
ENDBRANCH  18  19
ENDBRANCH   1  18
TORSDOF 7
