REMARK  Name = ZINC16360687
REMARK  10 active torsions:
REMARK  status: ('A' for Active; 'I' for Inactive)
REMARK    1  A    between atoms: C_1  and  C_2
REMARK    2  A    between atoms: C_2  and  C_3
REMARK    3  A    between atoms: C_3  and  C_4
REMARK    4  A    between atoms: C_4  and  N_5
REMARK    5  A    between atoms: C_6  and  N_31
REMARK    6  A    between atoms: C_7  and  N_14
REMARK    7  A    between atoms: N_14  and  C_15
REMARK    8  A    between atoms: C_20  and  C_22
REMARK    9  A    between atoms: C_22  and  S_23
REMARK   10  A    between atoms: S_23  and  C_24
REMARK                            x       y       z     vdW  Elec       q    Type
REMARK                         _______ _______ _______ _____ _____    ______ ____
ROOT
ATOM      1  N   UNL     1       2.594   1.317  -0.080  0.00  0.00    -0.260 N 
ATOM      2  C   UNL     1       3.709   2.077  -0.115  0.00  0.00    +0.230 C 
ATOM      3  O   UNL     1       4.800   1.550  -0.171  0.00  0.00    -0.274 OA
ENDROOT
BRANCH   1   6
ATOM      4  N   UNL     1      -0.339   3.228  -1.198  0.00  0.00    -0.280 N 
ATOM      5  C   UNL     1       0.906   2.643  -1.207  0.00  0.00    +0.127 A 
ATOM      6  C   UNL     1       1.323   1.929  -0.102  0.00  0.00    +0.140 A 
ATOM      7  C   UNL     1       0.458   1.822   1.004  0.00  0.00    +0.277 A 
ATOM      8  O   UNL     1       0.800   1.198   1.993  0.00  0.00    -0.266 OA
ATOM      9  N   UNL     1      -0.754   2.410   0.959  0.00  0.00    -0.273 N 
ATOM     10  H   UNL     1      -1.372   2.328   1.740  0.00  0.00    +0.173 HD
ATOM     11  C   UNL     1      -1.141   3.106  -0.125  0.00  0.00    +0.331 A 
ATOM     12  O   UNL     1      -2.238   3.630  -0.138  0.00  0.00    -0.246 OA
BRANCH   5  13
ATOM     13  N   UNL     1       1.725   2.767  -2.303  0.00  0.00    -0.343 N 
ATOM     14  H   UNL     1       2.567   2.286  -2.337  0.00  0.00    +0.144 HD
ATOM     15  H   UNL     1       1.462   3.336  -3.043  0.00  0.00    +0.144 HD
ENDBRANCH   5  13
BRANCH   4  16
ATOM     16  C   UNL     1      -0.794   3.988  -2.365  0.00  0.00    +0.128 C 
BRANCH  16  17
ATOM     17  C   UNL     1      -1.520   3.052  -3.333  0.00  0.00    +0.021 C 
BRANCH  17  19
ATOM     18  C   UNL     1      -2.722   2.910  -5.519  0.00  0.00    +0.004 C 
ATOM     19  C   UNL     1      -1.996   3.846  -4.551  0.00  0.00    -0.002 C 
ENDBRANCH  17  19
ENDBRANCH  16  17
ENDBRANCH   4  16
ENDBRANCH   1   6
BRANCH   1  20
ATOM     20  C   UNL     1       2.703  -0.142  -0.019  0.00  0.00    +0.082 C 
ATOM     21  C   UNL     1       3.504  -0.560   1.232  0.00  0.00    +0.023 C 
ATOM     22  C   UNL     1       4.338  -1.778   0.758  0.00  0.00    +0.002 C 
ATOM     23  C   UNL     1       4.734  -1.380  -0.686  0.00  0.00    +0.002 C 
ATOM     24  C   UNL     1       3.485  -0.663  -1.237  0.00  0.00    +0.023 C 
ENDBRANCH   1  20
BRANCH   2  25
ATOM     25  C   UNL     1       3.599   3.579  -0.084  0.00  0.00    +0.170 C 
BRANCH  25  26
ATOM     26  S   UNL     1       5.258   4.306   0.002  0.00  0.00    -0.115 S 
BRANCH  26  27
ATOM     27  C   UNL     1       4.959   6.035   0.158  0.00  0.00    +0.022 A 
ATOM     28  C   UNL     1       3.659   6.508   0.287  0.00  0.00    +0.016 A 
ATOM     29  C   UNL     1       3.429   7.864   0.414  0.00  0.00    +0.001 A 
ATOM     30  C   UNL     1       4.489   8.752   0.403  0.00  0.00    +0.001 A 
ATOM     31  C   UNL     1       5.784   8.286   0.269  0.00  0.00    +0.016 A 
ATOM     32  C   UNL     1       6.023   6.930   0.147  0.00  0.00    +0.031 A 
ATOM     33 BR   UNL     1       7.794   6.294  -0.037  0.00  0.00    -0.049 Br
ENDBRANCH  26  27
ENDBRANCH  25  26
ENDBRANCH   2  25
TORSDOF 9
