REMARK  Name = ZINC39669662
REMARK  7 active torsions:
REMARK  status: ('A' for Active; 'I' for Inactive)
REMARK    1  A    between atoms: C_1  and  C_2
REMARK    2  A    between atoms: C_2  and  C_3
REMARK    3  A    between atoms: C_2  and  C_4
REMARK    4  A    between atoms: C_2  and  N_28
REMARK    5  A    between atoms: C_4  and  N_5
REMARK    6  A    between atoms: C_6  and  C_8
REMARK    7  A    between atoms: C_19  and  C_21
REMARK                            x       y       z     vdW  Elec       q    Type
REMARK                         _______ _______ _______ _____ _____    ______ ____
ROOT
ATOM      1  C   UNL     1      -1.923  -3.845  -0.323  0.00  0.00    +0.100 C 
ATOM      2  C   UNL     1      -0.897  -4.562  -1.230  0.00  0.00    +0.121 C 
ATOM      3  N   UNL     1      -1.530  -5.862  -1.555  0.00  0.00    -0.296 N 
ATOM      4  C   UNL     1      -2.962  -5.535  -1.759  0.00  0.00    +0.115 C 
ATOM      5  C   UNL     1      -3.276  -4.485  -0.674  0.00  0.00    -0.004 C 
ATOM      6  C   UNL     1      -4.233  -3.432  -1.222  0.00  0.00    -0.010 C 
ATOM      7  C   UNL     1      -5.590  -4.080  -1.509  0.00  0.00    -0.082 C 
ATOM      8  N   UNL     1      -6.127  -4.662  -0.273  0.00  0.00    +0.379 N 
ATOM      9  C   UNL     1      -5.247  -5.739   0.197  0.00  0.00    -0.082 C 
ATOM     10  C   UNL     1      -3.876  -5.160   0.556  0.00  0.00    -0.010 C 
ATOM     11  C   UNL     1      -0.938  -7.070  -1.644  0.00  0.00    +0.247 C 
ATOM     12  O   UNL     1       0.227  -7.201  -1.321  0.00  0.00    -0.270 OA
ATOM     13  H   UNL     1      -6.188  -3.946   0.436  0.00  0.00    -0.086 HD
ATOM     14  H   UNL     1      -7.048  -5.035  -0.450  0.00  0.00    -0.086 HD
ENDROOT
BRANCH  11  15
ATOM     15  C   UNL     1      -1.704  -8.234  -2.136  0.00  0.00    +0.037 A 
ATOM     16  C   UNL     1      -2.861  -8.043  -2.894  0.00  0.00    +0.014 A 
ATOM     17  C   UNL     1      -3.572  -9.133  -3.349  0.00  0.00    +0.016 A 
ATOM     18  C   UNL     1      -3.141 -10.416  -3.056  0.00  0.00    +0.018 A 
ATOM     19  C   UNL     1      -1.994 -10.612  -2.304  0.00  0.00    +0.016 A 
ATOM     20  C   UNL     1      -1.272  -9.530  -1.848  0.00  0.00    +0.014 A 
ATOM     21 BR   UNL     1      -4.122 -11.906  -3.684  0.00  0.00    -0.050 Br
ENDBRANCH  11  15
BRANCH   1  23
ATOM     22  N   UNL     1      -2.369  -1.496   0.312  0.00  0.00    -0.313 N 
ATOM     23  C   UNL     1      -1.947  -2.369  -0.625  0.00  0.00    +0.218 C 
ATOM     24  O   UNL     1      -1.587  -1.965  -1.711  0.00  0.00    -0.275 OA
ATOM     25  H   UNL     1      -2.656  -1.819   1.181  0.00  0.00    +0.149 HD
BRANCH  22  26
ATOM     26  C   UNL     1      -2.392  -0.061   0.019  0.00  0.00    +0.126 C 
BRANCH  26  28
ATOM     27  C   UNL     1      -1.685   0.547   2.337  0.00  0.00    +0.029 C 
ATOM     28  C   UNL     1      -2.780   0.711   1.282  0.00  0.00    +0.032 C 
ATOM     29  C   UNL     1      -2.944   2.194   0.943  0.00  0.00    +0.029 C 
BRANCH  28  30
ATOM     30  N   UNL     1      -4.048   0.186   1.807  0.00  0.00    -0.291 NA
ATOM     31  C   UNL     1      -5.108   0.254   0.790  0.00  0.00    +0.113 C 
ATOM     32  C   UNL     1      -6.392  -0.357   1.357  0.00  0.00    +0.175 C 
ATOM     33  O   UNL     1      -6.750   0.330   2.559  0.00  0.00    -0.377 OA
ATOM     34  C   UNL     1      -5.741   0.284   3.572  0.00  0.00    +0.175 C 
ATOM     35  C   UNL     1      -4.450   0.901   3.027  0.00  0.00    +0.113 C 
ENDBRANCH  28  30
ENDBRANCH  26  28
ENDBRANCH  22  26
ENDBRANCH   1  23
TORSDOF 5
