REMARK  Name = ZINC16490600
REMARK  5 active torsions:
REMARK  status: ('A' for Active; 'I' for Inactive)
REMARK    1  A    between atoms: C_4  and  N_7
REMARK    2  A    between atoms: C_11  and  C_13
REMARK    3  A    between atoms: C_17  and  N_32
REMARK    4  A    between atoms: N_21  and  C_23
REMARK    5  A    between atoms: C_26  and  N_29
REMARK                            x       y       z     vdW  Elec       q    Type
REMARK                         _______ _______ _______ _____ _____    ______ ____
ROOT
ATOM      1  C   UNL     1      -7.498   1.799  -0.235  0.00  0.00    +0.127 A 
ATOM      2  C   UNL     1      -7.902   0.433  -0.400  0.00  0.00    +0.026 A 
ATOM      3  C   UNL     1      -7.080  -0.711  -0.344  0.00  0.00    +0.058 A 
ATOM      4  S   UNL     1      -8.153  -2.038  -0.606  0.00  0.00    -0.081 S 
ATOM      5  C   UNL     1      -9.690  -1.163  -0.787  0.00  0.00    +0.076 A 
ATOM      6  C   UNL     1      -9.320   0.195  -0.634  0.00  0.00    +0.078 A 
ATOM      7  C   UNL     1     -10.169   1.341  -0.689  0.00  0.00    +0.282 A 
ATOM      8  O   UNL     1     -11.364   1.207  -0.886  0.00  0.00    -0.265 OA
ATOM      9  N   UNL     1      -9.648   2.565  -0.521  0.00  0.00    -0.196 N 
ATOM     10  N   UNL     1      -8.403   2.773  -0.310  0.00  0.00    -0.160 NA
ENDROOT
BRANCH   1  15
ATOM     11  N   UNL     1      -2.528   3.798   0.690  0.00  0.00    -0.292 N 
ATOM     12  C   UNL     1      -3.691   3.109   0.459  0.00  0.00    +0.186 A 
ATOM     13  N   UNL     1      -3.886   1.792   0.331  0.00  0.00    -0.125 NA
ATOM     14  N   UNL     1      -5.034   1.310   0.121  0.00  0.00    -0.138 NA
ATOM     15  C   UNL     1      -6.094   2.121   0.009  0.00  0.00    +0.154 A 
ATOM     16  S   UNL     1      -5.308   3.711   0.244  0.00  0.00    -0.029 S 
ATOM     17  H   UNL     1      -2.555   4.756   0.844  0.00  0.00    +0.154 HD
BRANCH  11  21
ATOM     18  C   UNL     1       1.113   1.782   0.737  0.00  0.00    +0.000 A 
ATOM     19  C   UNL     1       0.047   1.264   0.025  0.00  0.00    +0.002 A 
ATOM     20  C   UNL     1      -1.161   1.933   0.003  0.00  0.00    +0.023 A 
ATOM     21  C   UNL     1      -1.307   3.123   0.706  0.00  0.00    +0.033 A 
ATOM     22  C   UNL     1      -0.233   3.640   1.421  0.00  0.00    +0.023 A 
ATOM     23  C   UNL     1       0.973   2.969   1.434  0.00  0.00    +0.002 A 
ENDBRANCH  11  21
ENDBRANCH   1  15
BRANCH   9  24
ATOM     24  C   UNL     1     -10.501   3.661  -0.580  0.00  0.00    +0.069 A 
ATOM     25  C   UNL     1     -11.392   3.796  -1.641  0.00  0.00    +0.030 A 
ATOM     26  C   UNL     1     -12.240   4.883  -1.693  0.00  0.00    +0.035 A 
ATOM     27  C   UNL     1     -12.199   5.844  -0.698  0.00  0.00    +0.126 A 
ATOM     28  C   UNL     1     -11.311   5.717   0.356  0.00  0.00    +0.035 A 
ATOM     29  C   UNL     1     -10.462   4.630   0.419  0.00  0.00    +0.030 A 
BRANCH  27  30
ATOM     30  N   UNL     1     -13.107   7.011  -0.761  0.00  0.00    +0.056 N 
ATOM     31  O   UNL     1     -13.069   7.927   0.185  0.00  0.00    -0.126 OA
ATOM     32  O   UNL     1     -13.952   7.134  -1.763  0.00  0.00    -0.126 OA
ENDBRANCH  27  30
ENDBRANCH   9  24
BRANCH   5  33
ATOM     33  N   UNL     1     -10.927  -1.677  -1.018  0.00  0.00    -0.352 N 
ATOM     34  H   UNL     1     -11.691  -1.085  -1.097  0.00  0.00    +0.143 HD
ATOM     35  H   UNL     1     -11.046  -2.636  -1.104  0.00  0.00    +0.143 HD
ENDBRANCH   5  33
TORSDOF 5
