REMARK  Name = ZINC04665331
REMARK  8 active torsions:
REMARK  status: ('A' for Active; 'I' for Inactive)
REMARK    1  A    between atoms: C_1  and  C_2
REMARK    2  A    between atoms: C_4  and  C_28
REMARK    3  A    between atoms: C_10  and  C_13
REMARK    4  A    between atoms: N_14  and  N_15
REMARK    5  A    between atoms: C_16  and  S_18
REMARK    6  A    between atoms: S_18  and  C_19
REMARK    7  A    between atoms: C_19  and  C_20
REMARK    8  A    between atoms: C_21  and  C_22
REMARK                            x       y       z     vdW  Elec       q    Type
REMARK                         _______ _______ _______ _____ _____    ______ ____
ROOT
ATOM      1  N   UNL     1       2.725  -7.820   2.481  0.00  0.00    -0.259 N 
ATOM      2  C   UNL     1       3.199  -8.282   3.619  0.00  0.00    +0.146 C 
ATOM      3  N   UNL     1       3.147  -7.505   4.752  0.00  0.00    -0.338 N 
ATOM      4  H   UNL     1       2.761  -6.616   4.712  0.00  0.00    +0.144 HD
ATOM      5  H   UNL     1       3.496  -7.845   5.590  0.00  0.00    +0.144 HD
ATOM      6  H   UNL     1       2.762  -8.369   1.682  0.00  0.00    +0.191 HD
ENDROOT
BRANCH   1   8
ATOM      7  C   UNL     1       1.699  -6.077   1.296  0.00  0.00    +0.147 C 
ATOM      8  N   UNL     1       2.168  -6.536   2.424  0.00  0.00    -0.180 NA
BRANCH   7  18
ATOM      9  C   UNL     1      -0.519   1.451   0.037  0.00  0.00    +0.044 C 
ATOM     10  C   UNL     1      -0.236  -0.029   0.015  0.00  0.00    -0.047 A 
ATOM     11  C   UNL     1      -0.233  -0.708  -1.195  0.00  0.00    +0.007 A 
ATOM     12  C   UNL     1       0.027  -2.060  -1.230  0.00  0.00    -0.036 A 
ATOM     13  C   UNL     1       0.285  -2.741  -0.042  0.00  0.00    +0.067 A 
ATOM     14  C   UNL     1       0.279  -2.058   1.186  0.00  0.00    +0.139 A 
ATOM     15  C   UNL     1       0.022  -0.690   1.196  0.00  0.00    +0.050 A 
ATOM     16  O   UNL     1       0.516  -2.719   2.335  0.00  0.00    -0.462 OA
ATOM     17  C   UNL     1       1.052  -3.940   2.348  0.00  0.00    +0.209 A 
ATOM     18  C   UNL     1       1.114  -4.729   1.236  0.00  0.00    +0.077 A 
ATOM     19  C   UNL     1       0.576  -4.188  -0.030  0.00  0.00    +0.201 A 
ATOM     20  O   UNL     1       0.385  -4.894  -1.005  0.00  0.00    -0.286 OA
ATOM     21  C   UNL     1       0.032  -2.798  -2.544  0.00  0.00    +0.044 C 
ENDBRANCH   7  18
ENDBRANCH   1   8
BRANCH   2  22
ATOM     22  S   UNL     1       3.899  -9.898   3.691  0.00  0.00    -0.087 S 
BRANCH  22  23
ATOM     23  C   UNL     1       4.401 -10.082   5.425  0.00  0.00    +0.104 C 
BRANCH  23  24
ATOM     24  C   UNL     1       5.024 -11.439   5.626  0.00  0.00    -0.015 C 
ATOM     25  C   UNL     1       6.304 -11.539   5.954  0.00  0.00    +0.004 C 
BRANCH  25  26
ATOM     26  C   UNL     1       6.915 -12.870   6.152  0.00  0.00    -0.025 A 
ATOM     27  C   UNL     1       6.148 -14.024   5.987  0.00  0.00    +0.008 A 
ATOM     28  C   UNL     1       6.725 -15.264   6.173  0.00  0.00    +0.001 A 
ATOM     29  C   UNL     1       8.060 -15.364   6.522  0.00  0.00    +0.000 A 
ATOM     30  C   UNL     1       8.825 -14.224   6.687  0.00  0.00    +0.001 A 
ATOM     31  C   UNL     1       8.262 -12.978   6.498  0.00  0.00    +0.008 A 
ENDBRANCH  25  26
ENDBRANCH  23  24
ENDBRANCH  22  23
ENDBRANCH   2  22
TORSDOF 6
