REMARK  Name = ZINC39536653
REMARK  7 active torsions:
REMARK  status: ('A' for Active; 'I' for Inactive)
REMARK    1  A    between atoms: C_1  and  C_2
REMARK    2  A    between atoms: C_4  and  C_30
REMARK    3  A    between atoms: C_7  and  C_12
REMARK    4  A    between atoms: C_12  and  O_14
REMARK    5  A    between atoms: O_14  and  C_15
REMARK    6  A    between atoms: C_15  and  C_16
REMARK    7  A    between atoms: N_18  and  C_19
REMARK                            x       y       z     vdW  Elec       q    Type
REMARK                         _______ _______ _______ _____ _____    ______ ____
ROOT
ATOM      1  C   UNL     1       0.099  -6.829   4.347  0.00  0.00    +0.328 C 
ENDROOT
BRANCH   1   2
ATOM      2  C   UNL     1       0.115  -6.632   5.841  0.00  0.00    +0.255 C 
ATOM      3  O   UNL     1       0.107  -5.511   6.305  0.00  0.00    -0.272 OA
ATOM      4  N   UNL     1       0.139  -7.701   6.662  0.00  0.00    -0.282 N 
ATOM      5  H   UNL     1       0.080  -8.596   6.293  0.00  0.00    +0.155 HD
BRANCH   4   6
ATOM      6  C   UNL     1       0.250  -7.519   8.047  0.00  0.00    +0.051 A 
ATOM      7  C   UNL     1      -0.353  -6.426   8.654  0.00  0.00    +0.073 A 
ATOM      8  C   UNL     1      -0.244  -6.246  10.024  0.00  0.00    +0.164 A 
ATOM      9  C   UNL     1       0.467  -7.162  10.789  0.00  0.00    +0.163 A 
ATOM     10  C   UNL     1       1.070  -8.253  10.180  0.00  0.00    +0.066 A 
ATOM     11  C   UNL     1       0.957  -8.435   8.814  0.00  0.00    +0.043 A 
ATOM     12 BR   UNL     1       1.774  -9.928   7.989  0.00  0.00    -0.048 Br
ATOM     13  O   UNL     1       0.578  -7.006  12.137  0.00  0.00    -0.485 OA
ATOM     14  C   UNL     1       0.280  -5.708  12.662  0.00  0.00    +0.270 C 
ATOM     15  C   UNL     1      -1.027  -5.220  12.022  0.00  0.00    +0.270 C 
ATOM     16  O   UNL     1      -0.838  -5.166  10.604  0.00  0.00    -0.485 OA
ENDBRANCH   4   6
ENDBRANCH   1   2
BRANCH   1  17
ATOM     17  O   UNL     1       0.075  -5.556   3.699  0.00  0.00    -0.451 OA
BRANCH  17  18
ATOM     18  C   UNL     1       0.058  -5.555   2.351  0.00  0.00    +0.356 C 
ATOM     19  O   UNL     1       0.063  -6.608   1.742  0.00  0.00    -0.243 OA
BRANCH  18  26
ATOM     20  C   UNL     1      -0.064   1.504   0.014  0.00  0.00    +0.044 C 
ATOM     21  C   UNL     1      -0.045  -0.002   0.005  0.00  0.00    -0.048 A 
ATOM     22  C   UNL     1      -0.051  -0.683  -1.206  0.00  0.00    +0.007 A 
ATOM     23  C   UNL     1      -0.033  -2.047  -1.236  0.00  0.00    -0.041 A 
ATOM     24  C   UNL     1      -0.008  -2.771  -0.037  0.00  0.00    +0.003 A 
ATOM     25  C   UNL     1       0.014  -4.154   0.264  0.00  0.00    +0.043 A 
ATOM     26  C   UNL     1       0.032  -4.283   1.617  0.00  0.00    +0.125 A 
ATOM     27  N   UNL     1       0.023  -3.026   2.192  0.00  0.00    -0.349 N 
ATOM     28  H   UNL     1       0.033  -2.841   3.144  0.00  0.00    +0.166 HD
ATOM     29  C   UNL     1      -0.002  -2.083   1.192  0.00  0.00    +0.048 A 
ATOM     30  C   UNL     1      -0.015  -0.691   1.197  0.00  0.00    +0.029 A 
ATOM     31  C   UNL     1      -0.041  -2.773  -2.557  0.00  0.00    +0.044 C 
ENDBRANCH  18  26
ENDBRANCH  17  18
ENDBRANCH   1  17
TORSDOF 5
