REMARK  Name = ZINC33933379
REMARK  9 active torsions:
REMARK  status: ('A' for Active; 'I' for Inactive)
REMARK    1  A    between atoms: C_1  and  C_2
REMARK    2  A    between atoms: C_4  and  C_17
REMARK    3  A    between atoms: N_8  and  C_10
REMARK    4  A    between atoms: CA_23  and  C_26
REMARK    5  A    between atoms: N_31  and  C_34
REMARK    6  A    between atoms: C_34  and  C_35
REMARK    7  A    between atoms: C_35  and  N_36
REMARK    8  A    between atoms: N_36  and  C_37
REMARK    9  A    between atoms: C_37  and  C_38
REMARK                            x       y       z     vdW  Elec       q    Type
REMARK                         _______ _______ _______ _____ _____    ______ ____
ROOT
ATOM      1  C   UNL     1      -2.041  -0.770  -1.303  0.00  0.00    -0.050 C 
ATOM      2  C   UNL     1      -3.431  -1.390  -1.208  0.00  0.00    +0.073 C 
ATOM      3  C   UNL     1      -3.530  -1.880  -2.702  0.00  0.00    +0.082 C 
ATOM      4  CA  UNL     1      -2.250  -2.565  -2.922  0.00  0.00    +0.057 C 
ATOM      5  N   UNL     1      -1.264  -1.788  -2.082  0.00  0.00    +0.391 N 
ATOM      6  C   UNL     1      -4.947  -2.108  -2.850  0.00  0.00    +0.224 C 
ATOM      7  O   UNL     1      -5.492  -2.954  -3.525  0.00  0.00    -0.275 OA
ATOM      8  N   UNL     1      -5.543  -1.157  -2.059  0.00  0.00    -0.244 N 
ATOM      9  C   UNL     1      -4.659  -0.535  -1.202  0.00  0.00    +0.224 C 
ATOM     10  O   UNL     1      -4.831   0.489  -0.576  0.00  0.00    -0.275 OA
ATOM     11  H1  UNL     1      -0.587  -1.325  -2.671  0.00  0.00    -0.084 HD
ATOM     12  H2  UNL     1      -0.794  -2.418  -1.450  0.00  0.00    -0.084 HD
ENDROOT
BRANCH   1  15
ATOM     13  C   UNL     1      -3.373  -0.415   1.728  0.00  0.00    +0.026 C 
ATOM     14  C   UNL     1      -2.312   0.370   0.953  0.00  0.00    +0.074 C 
ATOM     15  C   UNL     1      -1.438  -0.580   0.090  0.00  0.00    +0.031 C 
ATOM     16  C   UNL     1      -0.112   0.216   0.020  0.00  0.00    +0.185 C 
ATOM     17  N   UNL     1      -0.163   1.162   1.146  0.00  0.00    -0.249 N 
ATOM     18  N   UNL     1      -1.306   0.957   1.875  0.00  0.00    -0.236 NA
ATOM     19 CL   UNL     1       1.295  -0.898   0.202  0.00  0.00    -0.099 Cl
ATOM     20  H   UNL     1      -1.641   1.821   2.274  0.00  0.00    +0.145 HD
BRANCH  17  21
ATOM     21  C   UNL     1       0.807   2.126   1.429  0.00  0.00    +0.046 A 
ATOM     22  C   UNL     1       1.926   2.248   0.615  0.00  0.00    +0.024 A 
ATOM     23  C   UNL     1       2.883   3.203   0.897  0.00  0.00    +0.002 A 
ATOM     24  C   UNL     1       2.729   4.036   1.990  0.00  0.00    +0.000 A 
ATOM     25  C   UNL     1       1.617   3.917   2.803  0.00  0.00    +0.002 A 
ATOM     26  C   UNL     1       0.653   2.969   2.523  0.00  0.00    +0.024 A 
ENDBRANCH  17  21
ENDBRANCH   1  15
BRANCH   4  27
ATOM     27  C   UNL     1      -2.341  -4.003  -2.480  0.00  0.00    +0.343 C 
ATOM     28  O   UNL     1      -2.693  -4.863  -3.269  0.00  0.00    -0.248 OA
ATOM     29  OXT UNL     1      -2.062  -4.306  -1.332  0.00  0.00    -0.248 OA
ENDBRANCH   4  27
BRANCH   8  30
ATOM     30  C   UNL     1      -6.973  -0.841  -2.109  0.00  0.00    +0.097 C 
BRANCH  30  31
ATOM     31  C   UNL     1      -7.726  -1.730  -1.118  0.00  0.00    -0.062 C 
BRANCH  31  32
ATOM     32  N   UNL     1      -9.160  -1.413  -1.168  0.00  0.00    +0.383 N 
ATOM     33  H   UNL     1      -9.299  -0.444  -0.924  0.00  0.00    -0.085 HD
ATOM     34  H   UNL     1      -9.509  -1.579  -2.100  0.00  0.00    -0.085 HD
BRANCH  32  35
ATOM     35  C   UNL     1      -9.883  -2.267  -0.216  0.00  0.00    -0.047 C 
BRANCH  35  36
ATOM     36  C   UNL     1     -11.354  -1.942  -0.267  0.00  0.00    -0.064 A 
ATOM     37  C   UNL     1     -11.875  -0.964   0.560  0.00  0.00    +0.002 A 
ATOM     38  C   UNL     1     -13.224  -0.666   0.513  0.00  0.00    +0.000 A 
ATOM     39  C   UNL     1     -14.052  -1.345  -0.361  0.00  0.00    +0.000 A 
ATOM     40  C   UNL     1     -13.531  -2.322  -1.189  0.00  0.00    +0.000 A 
ATOM     41  C   UNL     1     -12.181  -2.617  -1.145  0.00  0.00    +0.002 A 
ENDBRANCH  35  36
ENDBRANCH  32  35
ENDBRANCH  31  32
ENDBRANCH  30  31
ENDBRANCH   8  30
TORSDOF 8
