REMARK  Name = ZINC16968863
REMARK  9 active torsions:
REMARK  status: ('A' for Active; 'I' for Inactive)
REMARK    1  A    between atoms: C_1  and  C_2
REMARK    2  A    between atoms: C_16  and  C_39
REMARK    3  A    between atoms: C_21  and  C_22
REMARK    4  A    between atoms: C_21  and  O_38
REMARK    5  A    between atoms: C_22  and  C_24
REMARK    6  A    between atoms: C_24  and  O_25
REMARK    7  A    between atoms: O_25  and  C_26
REMARK    8  A    between atoms: C_26  and  C_28
REMARK    9  A    between atoms: C_31  and  N_35
REMARK                            x       y       z     vdW  Elec       q    Type
REMARK                         _______ _______ _______ _____ _____    ______ ____
ROOT
ATOM      1  C   UNL     1     -11.004  -0.915  -2.415  0.00  0.00    +0.020 C 
ATOM      2  C   UNL     1     -11.376   0.515  -2.813  0.00  0.00    +0.011 C 
ATOM      3  C   UNL     1     -11.128   0.676  -4.302  0.00  0.00    +0.023 C 
ATOM      4  C   UNL     1     -12.237   0.011  -5.120  0.00  0.00    +0.080 C 
ATOM      5  C   UNL     1     -13.549   0.656  -4.720  0.00  0.00    +0.156 C 
ATOM      6  O   UNL     1     -14.350   1.029  -5.550  0.00  0.00    -0.293 OA
ATOM      7  C   UNL     1     -13.806   0.807  -3.284  0.00  0.00    +0.046 C 
ATOM      8  C   UNL     1     -12.802   0.746  -2.413  0.00  0.00    -0.056 C 
ATOM      9  C   UNL     1     -13.114   0.916  -0.938  0.00  0.00    +0.032 C 
ATOM     10  C   UNL     1     -12.233   2.034  -0.379  0.00  0.00    +0.012 C 
ATOM     11  C   UNL     1     -10.756   1.679  -0.575  0.00  0.00    +0.020 C 
ATOM     12  C   UNL     1     -10.480   1.471  -2.045  0.00  0.00    -0.060 C 
ATOM     13  C   UNL     1      -9.520   2.061  -2.702  0.00  0.00    -0.026 C 
ATOM     14  C   UNL     1      -8.524   3.004  -2.067  0.00  0.00    +0.037 C 
ATOM     15  C   UNL     1      -8.456   2.629  -0.594  0.00  0.00    +0.011 C 
ATOM     16  C   UNL     1      -9.889   2.781  -0.023  0.00  0.00    +0.006 C 
ATOM     17  C   UNL     1      -9.636   2.752   1.489  0.00  0.00    +0.008 C 
ATOM     18  C   UNL     1      -8.354   3.616   1.646  0.00  0.00    +0.043 C 
ATOM     19  C   UNL     1      -7.627   3.569   0.280  0.00  0.00    +0.133 C 
ATOM     20  C   UNL     1      -7.968   1.188  -0.435  0.00  0.00    +0.015 C 
ENDROOT
BRANCH  19  21
ATOM     21  C   UNL     1      -6.231   3.027   0.451  0.00  0.00    +0.202 C 
ATOM     22  O   UNL     1      -5.972   2.312   1.390  0.00  0.00    -0.291 OA
BRANCH  21  23
ATOM     23  C   UNL     1      -5.159   3.376  -0.549  0.00  0.00    +0.309 C 
BRANCH  23  24
ATOM     24  O   UNL     1      -3.913   2.736  -0.167  0.00  0.00    -0.453 OA
BRANCH  24  25
ATOM     25  C   UNL     1      -2.847   2.948  -0.962  0.00  0.00    +0.341 C 
ATOM     26  O   UNL     1      -2.956   3.649  -1.949  0.00  0.00    -0.245 OA
BRANCH  25  27
ATOM     27  C   UNL     1      -1.547   2.330  -0.635  0.00  0.00    +0.077 A 
ATOM     28  C   UNL     1      -1.420   1.519   0.495  0.00  0.00    +0.018 A 
ATOM     29  C   UNL     1      -0.202   0.948   0.797  0.00  0.00    +0.033 A 
ATOM     30  C   UNL     1       0.892   1.168  -0.022  0.00  0.00    +0.128 A 
ATOM     31  C   UNL     1       0.774   1.965  -1.146  0.00  0.00    +0.053 A 
ATOM     32  C   UNL     1      -0.439   2.548  -1.458  0.00  0.00    +0.057 A 
ATOM     33 CL   UNL     1      -0.586   3.549  -2.869  0.00  0.00    -0.083 Cl
BRANCH  30  34
ATOM     34  N   UNL     1       2.195   0.548   0.307  0.00  0.00    +0.056 N 
ATOM     35  O   UNL     1       2.303  -0.155   1.296  0.00  0.00    -0.126 OA
ATOM     36  O   UNL     1       3.160   0.739  -0.412  0.00  0.00    -0.126 OA
ENDBRANCH  30  34
ENDBRANCH  25  27
ENDBRANCH  24  25
ENDBRANCH  23  24
ENDBRANCH  21  23
ENDBRANCH  19  21
BRANCH  19  37
ATOM     37  O   UNL     1      -7.582   4.873  -0.301  0.00  0.00    -0.380 OA
ATOM     38  H   UNL     1      -7.084   5.519   0.219  0.00  0.00    +0.211 HD
ENDBRANCH  19  37
TORSDOF 7
