REMARK  Name = ZINC44164990
REMARK  6 active torsions:
REMARK  status: ('A' for Active; 'I' for Inactive)
REMARK    1  A    between atoms: C_1  and  C_2
REMARK    2  A    between atoms: C_2  and  C_4
REMARK    3  A    between atoms: C_2  and  N_10
REMARK    4  A    between atoms: C_11  and  C_13
REMARK    5  A    between atoms: C_18  and  C_21
REMARK    6  A    between atoms: C_23  and  C_26
REMARK                            x       y       z     vdW  Elec       q    Type
REMARK                         _______ _______ _______ _____ _____    ______ ____
ROOT
ATOM      1  C   UNL     1      -3.465  -1.164  -1.134  0.00  0.00    +0.027 C 
ATOM      2  C   UNL     1      -3.468  -2.617  -0.643  0.00  0.00    +0.062 C 
ATOM      3  S   UNL     1      -2.397  -3.593  -1.744  0.00  0.00    -0.163 S 
ATOM      4  C   UNL     1      -3.000  -3.133  -3.398  0.00  0.00    +0.061 C 
ATOM      5  C   UNL     1      -3.067  -1.603  -3.477  0.00  0.00    +0.010 C 
ATOM      6  N   UNL     1      -4.018  -1.097  -2.488  0.00  0.00    +0.394 N 
ATOM      7  H   UNL     1      -4.862  -1.649  -2.528  0.00  0.00    -0.084 HD
ATOM      8  H   UNL     1      -4.241  -0.137  -2.707  0.00  0.00    -0.084 HD
ENDROOT
BRANCH   5   9
ATOM      9  C   UNL     1      -3.513  -1.191  -4.856  0.00  0.00    +0.125 A 
ATOM     10  C   UNL     1      -2.711  -0.771  -5.851  0.00  0.00    +0.074 A 
ATOM     11  C   UNL     1      -3.522  -0.485  -6.976  0.00  0.00    +0.114 A 
ATOM     12  N   UNL     1      -4.766  -0.732  -6.646  0.00  0.00    -0.078 NA
ATOM     13  O   UNL     1      -4.777  -1.186  -5.305  0.00  0.00    -0.361 OA
BRANCH  11  14
ATOM     14  C   UNL     1      -3.047   0.007  -8.293  0.00  0.00    +0.004 A 
ATOM     15  C   UNL     1      -1.688   0.224  -8.510  0.00  0.00    +0.010 A 
ATOM     16  C   UNL     1      -1.252   0.682  -9.737  0.00  0.00    +0.001 A 
ATOM     17  C   UNL     1      -2.161   0.926 -10.750  0.00  0.00    +0.000 A 
ATOM     18  C   UNL     1      -3.512   0.713 -10.540  0.00  0.00    +0.001 A 
ATOM     19  C   UNL     1      -3.958   0.249  -9.319  0.00  0.00    +0.010 A 
ENDBRANCH  11  14
ENDBRANCH   5   9
BRANCH   1  21
ATOM     20  N   UNL     1      -1.709   0.360  -1.978  0.00  0.00    -0.310 N 
ATOM     21  C   UNL     1      -2.051  -0.643  -1.145  0.00  0.00    +0.200 C 
ATOM     22  O   UNL     1      -1.221  -1.125  -0.404  0.00  0.00    -0.278 OA
ATOM     23  H   UNL     1      -2.373   0.746  -2.570  0.00  0.00    +0.149 HD
BRANCH  20  25
ATOM     24  C   UNL     1       0.522   0.001  -2.915  0.00  0.00    +0.033 C 
ATOM     25  C   UNL     1      -0.334   0.867  -1.988  0.00  0.00    +0.100 C 
BRANCH  25  26
ATOM     26  C   UNL     1      -0.328   2.291  -2.482  0.00  0.00    -0.027 A 
ATOM     27  C   UNL     1      -1.153   2.663  -3.527  0.00  0.00    +0.005 A 
ATOM     28  C   UNL     1      -1.147   3.969  -3.981  0.00  0.00    +0.000 A 
ATOM     29  C   UNL     1      -0.316   4.902  -3.389  0.00  0.00    +0.000 A 
ATOM     30  C   UNL     1       0.508   4.530  -2.344  0.00  0.00    +0.000 A 
ATOM     31  C   UNL     1       0.499   3.225  -1.888  0.00  0.00    +0.005 A 
ENDBRANCH  25  26
ENDBRANCH  20  25
ENDBRANCH   1  21
TORSDOF 5
