REMARK  Name = ZINC40548926
REMARK  9 active torsions:
REMARK  status: ('A' for Active; 'I' for Inactive)
REMARK    1  A    between atoms: C_1  and  C_2
REMARK    2  A    between atoms: C_4  and  C_10
REMARK    3  A    between atoms: C_5  and  O_9
REMARK    4  A    between atoms: C_7  and  C_8
REMARK    5  A    between atoms: N_18  and  C_31
REMARK    6  A    between atoms: C_19  and  C_21
REMARK    7  A    between atoms: C_24  and  C_27
REMARK    8  A    between atoms: C_27  and  O_29
REMARK    9  A    between atoms: O_29  and  C_30
REMARK                            x       y       z     vdW  Elec       q    Type
REMARK                         _______ _______ _______ _____ _____    ______ ____
ROOT
ATOM      1  C   UNL     1      -0.229  -2.946  -2.878  0.00  0.00    +0.102 A 
ATOM      2  C   UNL     1       0.033  -4.320  -2.845  0.00  0.00    +0.035 A 
ATOM      3  C   UNL     1       0.065  -4.729  -4.165  0.00  0.00    +0.126 A 
ATOM      4  N   UNL     1      -0.172  -3.612  -4.914  0.00  0.00    -0.272 N 
ATOM      5  H   UNL     1      -0.209  -3.589  -5.883  0.00  0.00    +0.189 HD
ATOM      6  N   UNL     1      -0.343  -2.596  -4.145  0.00  0.00    -0.173 NA
ATOM      7  C   UNL     1       0.337  -6.170  -4.200  0.00  0.00    +0.266 C 
ATOM      8  O   UNL     1       0.429  -6.835  -5.214  0.00  0.00    -0.268 OA
ATOM      9  N   UNL     1       0.470  -6.652  -2.951  0.00  0.00    -0.280 N 
ATOM     10  C   UNL     1       0.292  -5.541  -2.007  0.00  0.00    +0.142 C 
ENDROOT
BRANCH   1  14
ATOM     11  C   UNL     1       1.465  -1.322   1.528  0.00  0.00    +0.044 C 
ATOM     12  C   UNL     1       0.451  -1.264   0.415  0.00  0.00    -0.047 A 
ATOM     13  C   UNL     1       0.577  -2.101  -0.675  0.00  0.00    +0.017 A 
ATOM     14  C   UNL     1      -0.360  -2.048  -1.704  0.00  0.00    +0.044 A 
ATOM     15  C   UNL     1      -1.424  -1.144  -1.626  0.00  0.00    +0.126 A 
ATOM     16  C   UNL     1      -1.538  -0.309  -0.527  0.00  0.00    +0.049 A 
ATOM     17  C   UNL     1      -0.606  -0.375   0.492  0.00  0.00    -0.044 A 
ATOM     18  C   UNL     1      -0.739   0.531   1.689  0.00  0.00    +0.044 C 
BRANCH  15  19
ATOM     19  O   UNL     1      -2.342  -1.085  -2.626  0.00  0.00    -0.506 OA
ATOM     20  H   UNL     1      -3.132  -1.618  -2.466  0.00  0.00    +0.292 HD
ENDBRANCH  15  19
ENDBRANCH   1  14
BRANCH   9  21
ATOM     21  C   UNL     1       0.745  -8.046  -2.594  0.00  0.00    +0.100 C 
ATOM     22  C   UNL     1      -0.377  -8.944  -3.142  0.00  0.00    +0.047 C 
ATOM     23  C   UNL     1       0.089 -10.424  -3.029  0.00  0.00    +0.168 C 
ATOM     24  S   UNL     1       1.852 -10.262  -3.538  0.00  0.00    -0.029 S 
ATOM     25  O   UNL     1       2.661 -11.020  -2.648  0.00  0.00    -0.174 OA
ATOM     26  O   UNL     1       1.952 -10.487  -4.937  0.00  0.00    -0.174 OA
ATOM     27  C   UNL     1       2.104  -8.473  -3.199  0.00  0.00    +0.188 C 
ENDBRANCH   9  21
BRANCH  10  28
ATOM     28  C   UNL     1      -0.884  -5.811  -1.105  0.00  0.00    -0.022 A 
ATOM     29  C   UNL     1      -2.054  -6.326  -1.635  0.00  0.00    +0.006 A 
ATOM     30  C   UNL     1      -3.135  -6.575  -0.815  0.00  0.00    +0.015 A 
ATOM     31  C   UNL     1      -3.047  -6.307   0.553  0.00  0.00    +0.059 A 
ATOM     32  C   UNL     1      -1.863  -5.787   1.081  0.00  0.00    +0.015 A 
ATOM     33  C   UNL     1      -0.788  -5.548   0.250  0.00  0.00    +0.006 A 
BRANCH  31  34
ATOM     34  C   UNL     1      -4.200  -6.571   1.437  0.00  0.00    +0.339 C 
ATOM     35  O   UNL     1      -5.229  -7.023   0.975  0.00  0.00    -0.245 OA
BRANCH  34  36
ATOM     36  O   UNL     1      -4.112  -6.311   2.756  0.00  0.00    -0.464 OA
ATOM     37  C   UNL     1      -5.265  -6.590   3.551  0.00  0.00    +0.280 C 
ENDBRANCH  34  36
ENDBRANCH  31  34
ENDBRANCH  10  28
TORSDOF 6
