REMARK  Name = ZINC19905400
REMARK  8 active torsions:
REMARK  status: ('A' for Active; 'I' for Inactive)
REMARK    1  A    between atoms: C_1  and  C_2
REMARK    2  A    between atoms: C_2  and  N_3
REMARK    3  A    between atoms: N_6  and  C_9
REMARK    4  A    between atoms: C_9  and  C_10
REMARK    5  A    between atoms: C_11  and  C_21
REMARK    6  A    between atoms: N_23  and  N_24
REMARK    7  A    between atoms: C_25  and  C_26
REMARK    8  A    between atoms: C_25  and  C_27
REMARK                            x       y       z     vdW  Elec       q    Type
REMARK                         _______ _______ _______ _____ _____    ______ ____
ROOT
ATOM      1  C   UNL     1      -6.519  -0.214  -0.434  0.00  0.00    +0.093 A 
ATOM      2  C   UNL     1      -5.299   0.371  -0.249  0.00  0.00    +0.173 A 
ATOM      3  N   UNL     1      -4.383  -0.598  -0.080  0.00  0.00    -0.124 NA
ATOM      4  N   UNL     1      -4.956  -1.749  -0.139  0.00  0.00    -0.058 NA
ATOM      5  N   UNL     1      -6.325  -1.550  -0.368  0.00  0.00    -0.191 N 
ATOM      6  C   UNL     1      -7.302  -2.544  -0.501  0.00  0.00    +0.240 A 
ATOM      7  C   UNL     1      -7.071  -3.989  -0.426  0.00  0.00    +0.206 A 
ATOM      8  N   UNL     1      -8.213  -4.596  -0.597  0.00  0.00    -0.032 NA
ATOM      9  O   UNL     1      -9.207  -3.604  -0.785  0.00  0.00    -0.239 OA
ATOM     10  N   UNL     1      -8.572  -2.341  -0.709  0.00  0.00    -0.027 NA
ATOM     11  N   UNL     1      -5.845  -4.608  -0.210  0.00  0.00    -0.337 N 
ATOM     12  H   UNL     1      -5.782  -5.705  -0.171  0.00  0.00    +0.144 HD
ATOM     13  H   UNL     1      -4.938  -4.000  -0.078  0.00  0.00    +0.144 HD
ENDROOT
BRANCH   2  14
ATOM     14  C   UNL     1      -5.030   1.821  -0.244  0.00  0.00    +0.285 C 
ATOM     15  O   UNL     1      -5.942   2.609  -0.414  0.00  0.00    -0.267 OA
ATOM     16  N   UNL     1      -3.776   2.274  -0.050  0.00  0.00    -0.201 N 
ATOM     17  H   UNL     1      -2.952   1.562   0.104  0.00  0.00    +0.178 HD
BRANCH  16  18
ATOM     18  N   UNL     1      -3.521   3.652  -0.045  0.00  0.00    -0.184 NA
ATOM     19  C   UNL     1      -2.333   4.092   0.249  0.00  0.00    +0.070 C 
ATOM     20  C   UNL     1      -2.014   5.557   0.097  0.00  0.00    +0.068 C 
BRANCH  19  21
ATOM     21  C   UNL     1      -1.304   3.163   0.728  0.00  0.00    +0.035 A 
ATOM     22  C   UNL     1       0.067   3.210   0.546  0.00  0.00    +0.017 A 
ATOM     23  C   UNL     1       0.834   2.209   1.095  0.00  0.00    +0.008 A 
ATOM     24  C   UNL     1       0.229   1.220   1.802  0.00  0.00    +0.046 A 
ATOM     25  S   UNL     1      -1.493   1.680   1.704  0.00  0.00    -0.095 S 
ENDBRANCH  19  21
ENDBRANCH  16  18
ENDBRANCH   2  14
BRANCH   1  26
ATOM     26  C   UNL     1      -7.829   0.493  -0.667  0.00  0.00    +0.142 C 
BRANCH  26  30
ATOM     27  N   UNL     1     -10.630   0.711   2.488  0.00  0.00    +0.381 N 
ATOM     28  C   UNL     1     -10.235   1.964   1.830  0.00  0.00    -0.063 C 
ATOM     29  C   UNL     1      -9.635   1.649   0.457  0.00  0.00    +0.066 C 
ATOM     30  N   UNL     1      -8.479   0.758   0.623  0.00  0.00    -0.300 NA
ATOM     31  C   UNL     1      -8.874  -0.495   1.281  0.00  0.00    +0.066 C 
ATOM     32  C   UNL     1      -9.473  -0.181   2.654  0.00  0.00    -0.063 C 
ATOM     33  H   UNL     1     -11.360   0.203   1.841  0.00  0.00    -0.082 HD
BRANCH  27  35
ATOM     34  C   UNL     1     -11.896  -0.318   4.314  0.00  0.00    -0.017 C 
ATOM     35  C   UNL     1     -11.280   0.976   3.778  0.00  0.00    -0.082 C 
ENDBRANCH  27  35
ENDBRANCH  26  30
ENDBRANCH   1  26
TORSDOF 6
