REMARK  Name = ZINC65965131
REMARK  6 active torsions:
REMARK  status: ('A' for Active; 'I' for Inactive)
REMARK    1  A    between atoms: C_4  and  C_7
REMARK    2  A    between atoms: N_9  and  N_10
REMARK    3  A    between atoms: C_11  and  C_13
REMARK    4  A    between atoms: C_13  and  N_14
REMARK    5  A    between atoms: C_17  and  C_20
REMARK    6  A    between atoms: N_22  and  C_23
REMARK                            x       y       z     vdW  Elec       q    Type
REMARK                         _______ _______ _______ _____ _____    ______ ____
ROOT
ATOM      1  N   UNL     1       6.035  -6.241  -0.090  0.00  0.00    +0.385 N 
ATOM      2  C   UNL     1       5.356  -6.617  -1.336  0.00  0.00    -0.077 C 
ATOM      3  C   UNL     1       5.026  -8.111  -1.312  0.00  0.00    -0.006 C 
ATOM      4  C   UNL     1       6.324  -8.912  -1.174  0.00  0.00    +0.071 C 
ATOM      5  C   UNL     1       7.060  -8.460   0.091  0.00  0.00    -0.006 C 
ATOM      6  C   UNL     1       7.315  -6.953   0.014  0.00  0.00    -0.077 C 
ATOM      7  H   UNL     1       5.451  -6.485   0.696  0.00  0.00    -0.081 HD
ENDROOT
BRANCH   4   8
ATOM      8  C   UNL     1       6.000 -10.381  -1.070  0.00  0.00    +0.216 C 
ATOM      9  O   UNL     1       4.846 -10.751  -1.103  0.00  0.00    -0.276 OA
ATOM     10  N   UNL     1       6.994 -11.282  -0.941  0.00  0.00    -0.312 N 
ATOM     11  H   UNL     1       7.917 -10.986  -0.914  0.00  0.00    +0.149 HD
BRANCH  10  12
ATOM     12  C   UNL     1       6.679 -12.709  -0.840  0.00  0.00    +0.073 C 
ATOM     13  C   UNL     1       6.368 -13.062   0.616  0.00  0.00    +0.022 C 
ATOM     14  C   UNL     1       6.040 -14.552   0.721  0.00  0.00    +0.002 C 
ATOM     15  C   UNL     1       7.238 -15.374   0.243  0.00  0.00    +0.000 C 
ATOM     16  C   UNL     1       7.550 -15.021  -1.213  0.00  0.00    +0.002 C 
ATOM     17  C   UNL     1       7.878 -13.531  -1.319  0.00  0.00    +0.022 C 
ENDBRANCH  10  12
ENDBRANCH   4   8
BRANCH   1  18
ATOM     18  C   UNL     1       6.280  -4.793  -0.085  0.00  0.00    +0.020 C 
BRANCH  18  20
ATOM     19  N   UNL     1       4.942  -2.713  -0.060  0.00  0.00    -0.236 N 
ATOM     20  C   UNL     1       4.963  -4.061  -0.068  0.00  0.00    +0.213 C 
ATOM     21  O   UNL     1       3.923  -4.684  -0.061  0.00  0.00    -0.276 OA
ATOM     22  H   UNL     1       5.774  -2.215  -0.066  0.00  0.00    +0.173 HD
BRANCH  19  25
ATOM     23  C   UNL     1       3.696  -0.685  -0.037  0.00  0.00    +0.260 C 
ATOM     24  O   UNL     1       4.738  -0.060  -0.044  0.00  0.00    -0.269 OA
ATOM     25  N   UNL     1       3.717  -2.032  -0.045  0.00  0.00    -0.230 N 
ATOM     26  H   UNL     1       2.885  -2.531  -0.039  0.00  0.00    +0.173 HD
BRANCH  23  30
ATOM     27  C   UNL     1      -0.017   1.379   0.010  0.00  0.00    +0.000 A 
ATOM     28  C   UNL     1       1.168   2.094   0.002  0.00  0.00    +0.001 A 
ATOM     29  C   UNL     1       2.377   1.429  -0.013  0.00  0.00    +0.013 A 
ATOM     30  C   UNL     1       2.403   0.034  -0.021  0.00  0.00    +0.038 A 
ATOM     31  C   UNL     1       1.204  -0.681  -0.013  0.00  0.00    +0.013 A 
ATOM     32  C   UNL     1       0.002  -0.004   0.002  0.00  0.00    +0.001 A 
ENDBRANCH  23  30
ENDBRANCH  19  25
ENDBRANCH  18  20
ENDBRANCH   1  18
TORSDOF 6
