REMARK  Name = ZINC35130142
REMARK  12 active torsions:
REMARK  status: ('A' for Active; 'I' for Inactive)
REMARK    1  A    between atoms: C_1  and  C_2
REMARK    2  A    between atoms: C_2  and  N_3
REMARK    3  A    between atoms: N_3  and  C_4
REMARK    4  A    between atoms: C_4  and  C_5
REMARK    5  A    between atoms: N_7  and  C_8
REMARK    6  A    between atoms: C_10  and  C_20
REMARK    7  A    between atoms: N_12  and  C_13
REMARK    8  A    between atoms: C_20  and  C_21
REMARK    9  A    between atoms: C_20  and  C_22
REMARK   10  A    between atoms: C_20  and  C_23
REMARK   11  A    between atoms: N_26  and  C_27
REMARK   12  A    between atoms: C_27  and  C_28
REMARK                            x       y       z     vdW  Elec       q    Type
REMARK                         _______ _______ _______ _____ _____    ______ ____
ROOT
ATOM      1  C   UNL     1      -1.764  -2.149  -1.741  0.00  0.00    +0.236 C 
ATOM      2  O   UNL     1      -1.097  -2.889  -1.049  0.00  0.00    -0.274 OA
ATOM      3  N   UNL     1      -2.310  -2.607  -2.885  0.00  0.00    -0.269 N 
ATOM      4  H   UNL     1      -2.844  -2.015  -3.438  0.00  0.00    +0.156 HD
ENDROOT
BRANCH   3   5
ATOM      5  C   UNL     1      -2.108  -3.931  -3.273  0.00  0.00    +0.129 A 
ATOM      6  C   UNL     1      -1.293  -4.834  -2.662  0.00  0.00    +0.069 A 
ATOM      7  C   UNL     1      -1.382  -6.038  -3.366  0.00  0.00    +0.071 A 
ATOM      8  N   UNL     1      -2.215  -5.875  -4.362  0.00  0.00    -0.169 NA
ATOM      9  N   UNL     1      -2.695  -4.559  -4.328  0.00  0.00    -0.217 N 
BRANCH   9  10
ATOM     10  C   UNL     1      -3.612  -3.991  -5.223  0.00  0.00    +0.086 A 
ATOM     11  C   UNL     1      -3.344  -2.759  -5.804  0.00  0.00    +0.029 A 
ATOM     12  C   UNL     1      -4.249  -2.201  -6.686  0.00  0.00    +0.002 A 
ATOM     13  C   UNL     1      -5.422  -2.868  -6.989  0.00  0.00    +0.002 A 
ATOM     14  C   UNL     1      -5.693  -4.095  -6.412  0.00  0.00    +0.022 A 
ATOM     15  C   UNL     1      -4.788  -4.661  -5.533  0.00  0.00    +0.066 A 
ATOM     16 CL   UNL     1      -5.125  -6.205  -4.814  0.00  0.00    -0.081 Cl
ENDBRANCH   9  10
BRANCH   7  17
ATOM     17  C   UNL     1      -0.643  -7.309  -3.034  0.00  0.00    +0.006 C 
ATOM     18  C   UNL     1      -1.287  -7.969  -1.814  0.00  0.00    +0.017 C 
ATOM     19  C   UNL     1      -0.712  -8.265  -4.227  0.00  0.00    +0.017 C 
ATOM     20  C   UNL     1       0.820  -6.983  -2.726  0.00  0.00    +0.017 C 
ENDBRANCH   7  17
ENDBRANCH   3   5
BRANCH   1  21
ATOM     21  C   UNL     1      -1.982  -0.718  -1.322  0.00  0.00    +0.205 C 
BRANCH  21  22
ATOM     22  N   UNL     1      -1.291  -0.470  -0.054  0.00  0.00    -0.277 N 
ATOM     23  C   UNL     1      -1.932  -0.673   1.114  0.00  0.00    +0.303 C 
ATOM     24  O   UNL     1      -3.084  -1.062   1.115  0.00  0.00    -0.253 OA
ATOM     25  N   UNL     1      -1.297  -0.445   2.280  0.00  0.00    -0.295 N 
ATOM     26  H   UNL     1      -0.378  -0.134   2.279  0.00  0.00    +0.151 HD
BRANCH  22  28
ATOM     27  C   UNL     1       0.117   1.529  -0.072  0.00  0.00    +0.024 C 
ATOM     28  C   UNL     1       0.096  -0.000  -0.056  0.00  0.00    +0.106 C 
ENDBRANCH  22  28
BRANCH  25  29
ATOM     29  C   UNL     1      -1.994  -0.665   3.550  0.00  0.00    +0.141 C 
BRANCH  29  30
ATOM     30  C   UNL     1      -1.069  -0.339   4.694  0.00  0.00    -0.030 A 
ATOM     31  C   UNL     1      -0.257  -1.322   5.228  0.00  0.00    +0.005 A 
ATOM     32  C   UNL     1       0.592  -1.023   6.278  0.00  0.00    +0.000 A 
ATOM     33  C   UNL     1       0.629   0.259   6.793  0.00  0.00    +0.000 A 
ATOM     34  C   UNL     1      -0.182   1.242   6.258  0.00  0.00    +0.000 A 
ATOM     35  C   UNL     1      -1.028   0.944   5.205  0.00  0.00    +0.005 A 
ENDBRANCH  29  30
ENDBRANCH  25  29
ENDBRANCH  21  22
ENDBRANCH   1  21
TORSDOF 8
