REMARK  Name = ZINC36316260
REMARK  18 active torsions:
REMARK  status: ('A' for Active; 'I' for Inactive)
REMARK    1  A    between atoms: C_1  and  C_2
REMARK    2  A    between atoms: C_2  and  C_3
REMARK    3  A    between atoms: C_4  and  C_21
REMARK    4  A    between atoms: C_5  and  O_14
REMARK    5  A    between atoms: N_6  and  C_8
REMARK    6  A    between atoms: O_14  and  C_15
REMARK    7  A    between atoms: C_21  and  N_22
REMARK    8  A    between atoms: N_22  and  C_23
REMARK    9  A    between atoms: N_22  and  C_32
REMARK   10  A    between atoms: C_23  and  C_24
REMARK   11  A    between atoms: C_24  and  C_26
REMARK   12  A    between atoms: C_24  and  O_31
REMARK   13  A    between atoms: C_26  and  O_27
REMARK   14  A    between atoms: O_27  and  C_28
REMARK   15  A    between atoms: C_28  and  C_29
REMARK   16  A    between atoms: C_28  and  C_30
REMARK   17  A    between atoms: C_32  and  C_33
REMARK   18  A    between atoms: C_32  and  C_34
REMARK                            x       y       z     vdW  Elec       q    Type
REMARK                         _______ _______ _______ _____ _____    ______ ____
ROOT
ATOM      1  C   UNL     1       1.770  -0.595  -1.981  0.00  0.00    +0.068 A 
ATOM      2  C   UNL     1       0.474  -0.731  -2.489  0.00  0.00    +0.021 A 
ATOM      3  C   UNL     1       0.559  -1.378  -3.682  0.00  0.00    +0.225 A 
ATOM      4  N   UNL     1       1.874  -1.638  -3.913  0.00  0.00    -0.200 N 
ATOM      5  N   UNL     1       2.607  -1.130  -2.832  0.00  0.00    -0.168 NA
ENDROOT
BRANCH   4   6
ATOM      6  C   UNL     1       2.402  -2.292  -5.034  0.00  0.00    +0.069 A 
ATOM      7  C   UNL     1       1.779  -3.427  -5.535  0.00  0.00    +0.028 A 
ATOM      8  C   UNL     1       2.302  -4.070  -6.640  0.00  0.00    +0.002 A 
ATOM      9  C   UNL     1       3.445  -3.584  -7.247  0.00  0.00    +0.000 A 
ATOM     10  C   UNL     1       4.068  -2.454  -6.751  0.00  0.00    +0.002 A 
ATOM     11  C   UNL     1       3.547  -1.803  -5.650  0.00  0.00    +0.028 A 
ENDBRANCH   4   6
BRANCH   1  13
ATOM     12  C   UNL     1       2.386   1.555  -0.910  0.00  0.00    +0.010 C 
ATOM     13  C   UNL     1       2.140   0.064  -0.677  0.00  0.00    +0.054 C 
ENDBRANCH   1  13
BRANCH   3  14
ATOM     14  O   UNL     1      -0.478  -1.704  -4.494  0.00  0.00    -0.438 OA
BRANCH  14  15
ATOM     15  C   UNL     1      -1.151  -2.856  -4.237  0.00  0.00    +0.130 A 
ATOM     16  C   UNL     1      -0.860  -3.592  -3.097  0.00  0.00    +0.046 A 
ATOM     17  C   UNL     1      -1.546  -4.763  -2.838  0.00  0.00    +0.004 A 
ATOM     18  C   UNL     1      -2.522  -5.202  -3.713  0.00  0.00    +0.000 A 
ATOM     19  C   UNL     1      -2.814  -4.470  -4.850  0.00  0.00    +0.004 A 
ATOM     20  C   UNL     1      -2.136  -3.296  -5.110  0.00  0.00    +0.046 A 
ENDBRANCH  14  15
ENDBRANCH   3  14
BRANCH   2  21
ATOM     21  C   UNL     1      -0.792  -0.248  -1.830  0.00  0.00    -0.035 C 
BRANCH  21  22
ATOM     22  N   UNL     1      -1.014   1.163  -2.172  0.00  0.00    +0.386 N 
ATOM     23  H   UNL     1      -0.194   1.700  -1.934  0.00  0.00    -0.081 HD
BRANCH  22  24
ATOM     24  C   UNL     1      -2.169   1.673  -1.421  0.00  0.00    -0.074 C 
ATOM     25  C   UNL     1      -3.416   0.870  -1.795  0.00  0.00    -0.014 C 
ATOM     26  C   UNL     1      -1.903   1.535   0.079  0.00  0.00    -0.014 C 
ENDBRANCH  22  24
BRANCH  22  27
ATOM     27  C   UNL     1      -1.276   1.282  -3.613  0.00  0.00    -0.044 C 
BRANCH  27  28
ATOM     28  C   UNL     1      -1.346   2.761  -3.998  0.00  0.00    +0.124 C 
BRANCH  28  29
ATOM     29  O   UNL     1      -2.507   3.352  -3.410  0.00  0.00    -0.391 OA
ATOM     30  H   UNL     1      -3.336   2.918  -3.654  0.00  0.00    +0.210 HD
ENDBRANCH  28  29
BRANCH  28  31
ATOM     31  C   UNL     1      -1.425   2.889  -5.521  0.00  0.00    +0.189 C 
BRANCH  31  32
ATOM     32  O   UNL     1      -1.373   4.269  -5.887  0.00  0.00    -0.375 OA
BRANCH  32  33
ATOM     33  C   UNL     1      -1.439   4.500  -7.295  0.00  0.00    +0.112 C 
ATOM     34  C   UNL     1      -2.107   5.851  -7.560  0.00  0.00    +0.037 C 
ATOM     35  C   UNL     1      -0.025   4.507  -7.879  0.00  0.00    +0.037 C 
ENDBRANCH  32  33
ENDBRANCH  31  32
ENDBRANCH  28  31
ENDBRANCH  27  28
ENDBRANCH  22  27
ENDBRANCH  21  22
ENDBRANCH   2  21
TORSDOF 13
