REMARK  Name = ZINC39839196
REMARK  14 active torsions:
REMARK  status: ('A' for Active; 'I' for Inactive)
REMARK    1  A    between atoms: C_1  and  C_2
REMARK    2  A    between atoms: C_2  and  C_3
REMARK    3  A    between atoms: C_2  and  C_4
REMARK    4  A    between atoms: C_4  and  C_5
REMARK    5  A    between atoms: C_5  and  O_6
REMARK    6  A    between atoms: O_6  and  C_7
REMARK    7  A    between atoms: C_11  and  C_13
REMARK    8  A    between atoms: N_28  and  C_29
REMARK    9  A    between atoms: C_29  and  C_30
REMARK   10  A    between atoms: C_30  and  C_31
REMARK   11  A    between atoms: C_34  and  O_39
REMARK   12  A    between atoms: C_35  and  O_37
REMARK   13  A    between atoms: O_37  and  C_38
REMARK   14  A    between atoms: O_39  and  C_40
REMARK                            x       y       z     vdW  Elec       q    Type
REMARK                         _______ _______ _______ _____ _____    ______ ____
ROOT
ATOM      1  C   UNL     1      -5.739  -6.409  -0.341  0.00  0.00    +0.145 C 
ATOM      2  C   UNL     1      -6.141  -6.771  -1.733  0.00  0.00    +0.072 A 
ATOM      3  C   UNL     1      -6.316  -5.947  -2.934  0.00  0.00    +0.199 A 
ATOM      4  O   UNL     1      -5.972  -4.780  -2.998  0.00  0.00    -0.287 OA
ATOM      5  C   UNL     1      -6.952  -6.670  -4.064  0.00  0.00    +0.064 A 
ATOM      6  C   UNL     1      -7.366  -5.979  -5.202  0.00  0.00    +0.015 A 
ATOM      7  C   UNL     1      -7.955  -6.659  -6.232  0.00  0.00    +0.001 A 
ATOM      8  C   UNL     1      -8.140  -8.032  -6.147  0.00  0.00    +0.004 A 
ATOM      9  C   UNL     1      -7.734  -8.731  -5.032  0.00  0.00    +0.047 A 
ATOM     10  C   UNL     1      -7.130  -8.060  -3.969  0.00  0.00    +0.139 A 
ATOM     11  O   UNL     1      -6.730  -8.768  -2.887  0.00  0.00    -0.450 OA
ATOM     12  C   UNL     1      -6.359  -8.119  -1.766  0.00  0.00    +0.199 A 
ATOM     13  C   UNL     1      -6.115  -8.660  -0.418  0.00  0.00    +0.283 C 
ATOM     14  O   UNL     1      -6.224  -9.829  -0.107  0.00  0.00    -0.267 OA
ATOM     15  N   UNL     1      -5.752  -7.667   0.422  0.00  0.00    -0.283 N 
ENDROOT
BRANCH   1  20
ATOM     16  C   UNL     1      -2.919  -3.897  -0.222  0.00  0.00    +0.121 A 
ATOM     17  C   UNL     1      -1.810  -4.724  -0.333  0.00  0.00    +0.045 A 
ATOM     18  C   UNL     1      -1.978  -6.090  -0.445  0.00  0.00    +0.004 A 
ATOM     19  C   UNL     1      -3.249  -6.634  -0.448  0.00  0.00    +0.006 A 
ATOM     20  C   UNL     1      -4.355  -5.812  -0.338  0.00  0.00    -0.019 A 
ATOM     21  C   UNL     1      -4.193  -4.446  -0.220  0.00  0.00    +0.051 A 
BRANCH  16  22
ATOM     22  O   UNL     1      -2.756  -2.552  -0.111  0.00  0.00    -0.492 OA
BRANCH  22  23
ATOM     23  C   UNL     1      -1.416  -2.058  -0.121  0.00  0.00    +0.229 C 
BRANCH  23  24
ATOM     24  C   UNL     1      -1.433  -0.534   0.013  0.00  0.00    +0.044 C 
BRANCH  24  26
ATOM     25  C   UNL     1      -0.019   1.526   0.010  0.00  0.00    +0.007 C 
ATOM     26  C   UNL     1       0.002  -0.004   0.002  0.00  0.00    -0.014 C 
ATOM     27  C   UNL     1       0.742  -0.511   1.242  0.00  0.00    +0.007 C 
ENDBRANCH  24  26
ENDBRANCH  23  24
ENDBRANCH  22  23
ENDBRANCH  16  22
ENDBRANCH   1  20
BRANCH  15  28
ATOM     28  C   UNL     1      -5.428  -7.815   1.843  0.00  0.00    +0.114 C 
BRANCH  28  29
ATOM     29  C   UNL     1      -6.700  -7.646   2.677  0.00  0.00    +0.054 C 
BRANCH  29  30
ATOM     30  C   UNL     1      -6.366  -7.799   4.139  0.00  0.00    -0.042 A 
ATOM     31  C   UNL     1      -6.413  -9.047   4.731  0.00  0.00    +0.007 A 
ATOM     32  C   UNL     1      -6.108  -9.192   6.071  0.00  0.00    +0.049 A 
ATOM     33  C   UNL     1      -5.753  -8.084   6.825  0.00  0.00    +0.161 A 
ATOM     34  C   UNL     1      -5.705  -6.828   6.229  0.00  0.00    +0.162 A 
ATOM     35  C   UNL     1      -6.008  -6.690   4.883  0.00  0.00    +0.053 A 
BRANCH  34  36
ATOM     36  O   UNL     1      -5.358  -5.738   6.964  0.00  0.00    -0.491 OA
ATOM     37  C   UNL     1      -5.330  -4.480   6.286  0.00  0.00    +0.277 C 
ENDBRANCH  34  36
BRANCH  33  38
ATOM     38  O   UNL     1      -5.453  -8.225   8.143  0.00  0.00    -0.491 OA
ATOM     39  C   UNL     1      -5.524  -9.544   8.688  0.00  0.00    +0.277 C 
ENDBRANCH  33  38
ENDBRANCH  29  30
ENDBRANCH  28  29
ENDBRANCH  15  28
TORSDOF 10
