REMARK  Name = ZINC03586389
REMARK  9 active torsions:
REMARK  status: ('A' for Active; 'I' for Inactive)
REMARK    1  A    between atoms: C_1  and  C_2
REMARK    2  A    between atoms: C_5  and  C_8
REMARK    3  A    between atoms: C_8  and  N_9
REMARK    4  A    between atoms: C_18  and  C_19
REMARK    5  A    between atoms: C_22  and  C_25
REMARK    6  A    between atoms: N_27  and  C_28
REMARK    7  A    between atoms: C_28  and  C_29
REMARK    8  A    between atoms: C_29  and  C_30
REMARK    9  A    between atoms: C_30  and  N_31
REMARK                            x       y       z     vdW  Elec       q    Type
REMARK                         _______ _______ _______ _____ _____    ______ ____
ROOT
ATOM      1  N   UNL     1      -0.110  -0.305  -2.457  0.00  0.00    -0.257 N 
ATOM      2  C   UNL     1       0.678   0.852  -2.420  0.00  0.00    +0.079 A 
ATOM      3  C   UNL     1       0.211   2.028  -2.988  0.00  0.00    +0.027 A 
ATOM      4  C   UNL     1       0.990   3.169  -2.950  0.00  0.00    +0.002 A 
ATOM      5  C   UNL     1       2.235   3.143  -2.347  0.00  0.00    +0.004 A 
ATOM      6  C   UNL     1       2.707   1.975  -1.779  0.00  0.00    +0.048 A 
ATOM      7  C   UNL     1       1.933   0.827  -1.813  0.00  0.00    +0.150 A 
ATOM      8  O   UNL     1       2.396  -0.327  -1.256  0.00  0.00    -0.449 OA
ATOM      9  C   UNL     1       1.444  -1.210  -0.830  0.00  0.00    +0.191 C 
ATOM     10  C   UNL     1       1.599  -1.920   0.310  0.00  0.00    +0.059 C 
ATOM     11  C   UNL     1       0.235  -1.355  -1.672  0.00  0.00    +0.287 C 
ATOM     12  O   UNL     1      -0.425  -2.377  -1.660  0.00  0.00    -0.266 OA
ENDROOT
BRANCH  10  13
ATOM     13  C   UNL     1       0.482  -2.716   0.839  0.00  0.00    -0.021 A 
ATOM     14  C   UNL     1      -0.826  -2.221   0.766  0.00  0.00    +0.009 A 
ATOM     15  C   UNL     1      -1.864  -2.964   1.253  0.00  0.00    +0.013 A 
ATOM     16  C   UNL     1      -1.620  -4.211   1.834  0.00  0.00    +0.037 A 
ATOM     17  C   UNL     1      -0.314  -4.704   1.912  0.00  0.00    +0.013 A 
ATOM     18  C   UNL     1       0.725  -3.966   1.421  0.00  0.00    +0.009 A 
BRANCH  16  19
ATOM     19  C   UNL     1      -2.743  -5.011   2.365  0.00  0.00    +0.244 C 
ATOM     20  O   UNL     1      -2.531  -6.096   2.870  0.00  0.00    -0.270 OA
ATOM     21  N   UNL     1      -4.002  -4.537   2.290  0.00  0.00    -0.311 N 
ATOM     22  H   UNL     1      -4.194  -3.554   1.833  0.00  0.00    +0.149 HD
BRANCH  21  23
ATOM     23  C   UNL     1      -5.116  -5.329   2.817  0.00  0.00    +0.102 C 
BRANCH  23  24
ATOM     24  C   UNL     1      -6.427  -4.569   2.608  0.00  0.00    +0.000 C 
BRANCH  24  25
ATOM     25  C   UNL     1      -7.590  -5.397   3.158  0.00  0.00    -0.077 C 
BRANCH  25  26
ATOM     26  N   UNL     1      -8.849  -4.667   2.957  0.00  0.00    +0.380 N 
ATOM     27  C   UNL     1      -9.004  -4.252   1.540  0.00  0.00    -0.079 C 
ATOM     28  C   UNL     1     -10.527  -4.002   1.408  0.00  0.00    -0.020 C 
ATOM     29  C   UNL     1     -11.138  -5.118   2.286  0.00  0.00    -0.020 C 
ATOM     30  C   UNL     1     -10.014  -5.527   3.255  0.00  0.00    -0.079 C 
ATOM     31  H   UNL     1      -8.803  -3.801   3.634  0.00  0.00    -0.082 HD
ENDBRANCH  25  26
ENDBRANCH  24  25
ENDBRANCH  23  24
ENDBRANCH  21  23
ENDBRANCH  16  19
ENDBRANCH  10  13
BRANCH   1  32
ATOM     32  C   UNL     1      -1.282  -0.382  -3.332  0.00  0.00    +0.149 C 
BRANCH  32  37
ATOM     33  C   UNL     1       0.372  -1.995  -8.629  0.00  0.00    +0.044 C 
ATOM     34  C   UNL     1      -0.060  -1.574  -7.248  0.00  0.00    -0.050 A 
ATOM     35  C   UNL     1      -0.307  -2.530  -6.280  0.00  0.00    +0.003 A 
ATOM     36  C   UNL     1      -0.703  -2.144  -5.013  0.00  0.00    +0.005 A 
ATOM     37  C   UNL     1      -0.851  -0.802  -4.713  0.00  0.00    -0.030 A 
ATOM     38  C   UNL     1      -0.609   0.153  -5.683  0.00  0.00    +0.005 A 
ATOM     39  C   UNL     1      -0.209  -0.233  -6.949  0.00  0.00    +0.003 A 
ENDBRANCH  32  37
ENDBRANCH   1  32
TORSDOF 8
