REMARK  Name = ZINC45410457
REMARK  4 active torsions:
REMARK  status: ('A' for Active; 'I' for Inactive)
REMARK    1  A    between atoms: C_3  and  N_4
REMARK    2  A    between atoms: C_7  and  N_10
REMARK    3  A    between atoms: N_13  and  N_14
REMARK    4  A    between atoms: N_14  and  C_15
REMARK                            x       y       z     vdW  Elec       q    Type
REMARK                         _______ _______ _______ _____ _____    ______ ____
ROOT
ATOM      1  N   UNL     1      -2.386  -2.714  -4.301  0.00  0.00    -0.296 N 
ATOM      2  C   UNL     1      -3.653  -3.067  -4.596  0.00  0.00    +0.316 C 
ATOM      3  O   UNL     1      -4.566  -2.710  -3.876  0.00  0.00    -0.251 OA
ATOM      4  N   UNL     1      -3.908  -3.815  -5.687  0.00  0.00    -0.220 N 
ATOM      5  H   UNL     1      -1.657  -2.998  -4.875  0.00  0.00    +0.151 HD
ATOM      6  H   UNL     1      -4.819  -4.069  -5.899  0.00  0.00    +0.174 HD
ENDROOT
BRANCH   1  10
ATOM      7  N   UNL     1      -0.515   0.167  -1.859  0.00  0.00    +0.382 N 
ATOM      8  C   UNL     1      -0.362  -1.237  -1.458  0.00  0.00    -0.077 C 
ATOM      9  C   UNL     1      -0.671  -2.147  -2.649  0.00  0.00    +0.004 C 
ATOM     10  C   UNL     1      -2.108  -1.901  -3.114  0.00  0.00    +0.071 C 
ATOM     11  C   UNL     1      -2.276  -0.418  -3.459  0.00  0.00    +0.004 C 
ATOM     12  C   UNL     1      -1.908   0.428  -2.238  0.00  0.00    -0.077 C 
ATOM     13  H   UNL     1       0.088   0.357  -2.645  0.00  0.00    -0.081 HD
BRANCH   7  16
ATOM     14  C   UNL     1      -0.226   2.550  -0.957  0.00  0.00    -0.017 C 
ATOM     15  C   UNL     1       1.139   1.862  -0.876  0.00  0.00    -0.017 C 
ATOM     16  C   UNL     1      -0.143   1.038  -0.736  0.00  0.00    -0.069 C 
ENDBRANCH   7  16
ENDBRANCH   1  10
BRANCH   4  17
ATOM     17  N   UNL     1      -2.856  -4.225  -6.516  0.00  0.00    -0.258 N 
ATOM     18  H   UNL     1      -1.938  -4.038  -6.264  0.00  0.00    +0.170 HD
BRANCH  17  19
ATOM     19  C   UNL     1      -3.129  -4.907  -7.710  0.00  0.00    +0.121 A 
ATOM     20  C   UNL     1      -4.254  -4.578  -8.457  0.00  0.00    +0.186 A 
ATOM     21  C   UNL     1      -4.522  -5.252  -9.636  0.00  0.00    +0.198 A 
ATOM     22  C   UNL     1      -3.670  -6.254 -10.072  0.00  0.00    +0.199 A 
ATOM     23  C   UNL     1      -2.547  -6.584  -9.329  0.00  0.00    +0.198 A 
ATOM     24  C   UNL     1      -2.272  -5.908  -8.151  0.00  0.00    +0.186 A 
ATOM     25  F   UNL     1      -1.175  -6.226  -7.430  0.00  0.00    -0.200 F 
ATOM     26  F   UNL     1      -1.717  -7.561  -9.756  0.00  0.00    -0.199 F 
ATOM     27  F   UNL     1      -3.933  -6.911 -11.223  0.00  0.00    -0.199 F 
ATOM     28  F   UNL     1      -5.616  -4.934 -10.362  0.00  0.00    -0.199 F 
ATOM     29  F   UNL     1      -5.085  -3.602  -8.032  0.00  0.00    -0.200 F 
ENDBRANCH  17  19
ENDBRANCH   4  17
TORSDOF 4
