REMARK  Name = ZINC34978320
REMARK  8 active torsions:
REMARK  status: ('A' for Active; 'I' for Inactive)
REMARK    1  A    between atoms: C_1  and  C_2
REMARK    2  A    between atoms: C_9  and  C_11
REMARK    3  A    between atoms: C_17  and  C_19
REMARK    4  A    between atoms: C_19  and  C_21
REMARK    5  A    between atoms: C_19  and  N_28
REMARK    6  A    between atoms: C_21  and  C_22
REMARK    7  A    between atoms: N_28  and  S_29
REMARK    8  A    between atoms: S_29  and  C_32
REMARK                            x       y       z     vdW  Elec       q    Type
REMARK                         _______ _______ _______ _____ _____    ______ ____
ROOT
ATOM      1  C   UNL     1      -4.782  -0.596   0.664  0.00  0.00    +0.166 C 
ENDROOT
BRANCH   1  11
ATOM      2  C   UNL     1      -0.524   0.856  -1.051  0.00  0.00    +0.029 C 
ATOM      3  C   UNL     1      -0.394  -0.658  -1.229  0.00  0.00    +0.090 C 
ATOM      4  C   UNL     1      -1.758  -1.251  -1.604  0.00  0.00    +0.130 C 
ATOM      5  N   UNL     1      -2.641  -1.177  -0.431  0.00  0.00    -0.297 N 
ATOM      6  C   UNL     1      -2.195  -1.786   0.830  0.00  0.00    +0.127 C 
ATOM      7  C   UNL     1      -0.831  -1.193   1.205  0.00  0.00    +0.127 C 
ATOM      8  N   UNL     1       0.056  -1.266   0.031  0.00  0.00    -0.295 N 
ATOM      9  C   UNL     1       1.253  -1.881   0.107  0.00  0.00    +0.219 C 
ATOM     10  O   UNL     1       2.011  -1.851  -0.839  0.00  0.00    -0.275 OA
ATOM     11  C   UNL     1      -3.837  -0.562  -0.510  0.00  0.00    +0.235 C 
ATOM     12  O   UNL     1      -4.154   0.018  -1.527  0.00  0.00    -0.274 OA
BRANCH   9  13
ATOM     13  C   UNL     1       1.649  -2.605   1.368  0.00  0.00    +0.075 C 
ATOM     14  C   UNL     1       2.003  -1.585   2.452  0.00  0.00    +0.013 C 
ATOM     15  C   UNL     1       2.406  -2.320   3.732  0.00  0.00    +0.001 C 
ATOM     16  C   UNL     1       3.620  -3.207   3.450  0.00  0.00    +0.000 C 
ATOM     17  C   UNL     1       3.266  -4.227   2.366  0.00  0.00    +0.001 C 
ATOM     18  C   UNL     1       2.864  -3.492   1.086  0.00  0.00    +0.013 C 
ENDBRANCH   9  13
ENDBRANCH   1  11
BRANCH   1  19
ATOM     19  N   UNL     1      -6.098  -0.108   0.246  0.00  0.00    -0.178 NA
ATOM     20  H   UNL     1      -6.281   0.845   0.235  0.00  0.00    +0.149 HD
BRANCH  19  21
ATOM     21  S   UNL     1      -7.274  -1.182  -0.208  0.00  0.00    +0.059 S 
ATOM     22  O   UNL     1      -8.419  -0.412  -0.545  0.00  0.00    -0.153 OA
ATOM     23  O   UNL     1      -6.667  -2.086  -1.122  0.00  0.00    -0.153 OA
BRANCH  21  24
ATOM     24  C   UNL     1      -7.701  -2.122   1.220  0.00  0.00    +0.105 A 
ATOM     25  C   UNL     1      -6.959  -3.237   1.561  0.00  0.00    +0.030 A 
ATOM     26  C   UNL     1      -7.293  -3.974   2.681  0.00  0.00    +0.022 A 
ATOM     27  C   UNL     1      -8.371  -3.595   3.462  0.00  0.00    +0.041 A 
ATOM     28  C   UNL     1      -9.113  -2.479   3.120  0.00  0.00    +0.022 A 
ATOM     29  C   UNL     1      -8.774  -1.739   2.003  0.00  0.00    +0.030 A 
ATOM     30 CL   UNL     1      -8.792  -4.521   4.869  0.00  0.00    -0.084 Cl
ENDBRANCH  21  24
ENDBRANCH  19  21
ENDBRANCH   1  19
BRANCH   1  31
ATOM     31  C   UNL     1      -4.238   0.296   1.781  0.00  0.00    +0.065 C 
BRANCH  31  32
ATOM     32  C   UNL     1      -5.133   0.190   2.989  0.00  0.00    -0.045 A 
ATOM     33  C   UNL     1      -6.249   0.998   3.095  0.00  0.00    +0.004 A 
ATOM     34  C   UNL     1      -7.070   0.901   4.203  0.00  0.00    +0.000 A 
ATOM     35  C   UNL     1      -6.775  -0.004   5.205  0.00  0.00    +0.000 A 
ATOM     36  C   UNL     1      -5.659  -0.813   5.098  0.00  0.00    +0.000 A 
ATOM     37  C   UNL     1      -4.840  -0.719   3.988  0.00  0.00    +0.004 A 
ENDBRANCH  31  32
ENDBRANCH   1  31
TORSDOF 7
