REMARK  Name = ZINC22681410
REMARK  10 active torsions:
REMARK  status: ('A' for Active; 'I' for Inactive)
REMARK    1  A    between atoms: C_1  and  C_2
REMARK    2  A    between atoms: N_5  and  C_8
REMARK    3  A    between atoms: C_8  and  C_10
REMARK    4  A    between atoms: C_8  and  C_27
REMARK    5  A    between atoms: C_10  and  N_11
REMARK    6  A    between atoms: C_12  and  C_14
REMARK    7  A    between atoms: C_14  and  C_15
REMARK    8  A    between atoms: C_15  and  N_16
REMARK    9  A    between atoms: N_19  and  C_20
REMARK   10  A    between atoms: C_20  and  C_21
REMARK                            x       y       z     vdW  Elec       q    Type
REMARK                         _______ _______ _______ _____ _____    ______ ____
ROOT
ATOM      1  N   UNL     1      -0.175   1.285   0.709  0.00  0.00    -0.316 N 
ATOM      2  C   UNL     1       0.800   2.105   1.148  0.00  0.00    +0.214 C 
ATOM      3  O   UNL     1       0.550   3.266   1.395  0.00  0.00    -0.276 OA
ATOM      4  H   UNL     1       0.051   0.231   0.489  0.00  0.00    +0.149 HD
ENDROOT
BRANCH   1   5
ATOM      5  C   UNL     1      -1.535   1.796   0.525  0.00  0.00    +0.094 C 
BRANCH   5   6
ATOM      6  C   UNL     1      -2.439   0.671   0.017  0.00  0.00    -0.013 C 
BRANCH   6  11
ATOM      7  C   UNL     1      -3.034  -3.541   3.835  0.00  0.00    +0.007 C 
ATOM      8  C   UNL     1      -3.297  -2.325   2.945  0.00  0.00    -0.018 C 
ATOM      9  C   UNL     1      -3.155  -2.727   1.474  0.00  0.00    -0.015 C 
ATOM     10  C   UNL     1      -3.359  -1.493   0.591  0.00  0.00    -0.078 C 
ATOM     11  N   UNL     1      -2.362  -0.472   0.937  0.00  0.00    +0.386 N 
ATOM     12  C   UNL     1      -2.510  -0.036   2.332  0.00  0.00    -0.078 C 
ATOM     13  C   UNL     1      -2.281  -1.226   3.266  0.00  0.00    -0.015 C 
ATOM     14  H   UNL     1      -1.366  -0.926   0.832  0.00  0.00    -0.081 HD
ENDBRANCH   6  11
BRANCH   6  15
ATOM     15  C   UNL     1      -3.861   1.163  -0.055  0.00  0.00    -0.022 A 
ATOM     16  C   UNL     1      -4.610   1.454  -1.147  0.00  0.00    +0.009 A 
ATOM     17  C   UNL     1      -5.908   1.895  -0.972  0.00  0.00    +0.008 A 
ATOM     18  C   UNL     1      -6.394   2.024   0.286  0.00  0.00    +0.045 A 
ATOM     19  S   UNL     1      -5.001   1.508   1.276  0.00  0.00    -0.103 S 
ENDBRANCH   6  15
ENDBRANCH   5   6
ENDBRANCH   1   5
BRANCH   2  20
ATOM     20  C   UNL     1       2.201   1.581   1.331  0.00  0.00    +0.114 C 
BRANCH  20  21
ATOM     21  C   UNL     1       3.106   2.707   1.834  0.00  0.00    +0.115 C 
BRANCH  21  22
ATOM     22  N   UNL     1       4.468   2.197   2.012  0.00  0.00    -0.299 N 
ATOM     23  C   UNL     1       5.443   3.018   2.450  0.00  0.00    +0.300 C 
ATOM     24  O   UNL     1       5.192   4.181   2.698  0.00  0.00    -0.253 OA
ATOM     25  N   UNL     1       6.696   2.548   2.614  0.00  0.00    -0.295 N 
ATOM     26  H   UNL     1       4.694   1.144   1.787  0.00  0.00    +0.150 HD
ATOM     27  H   UNL     1       6.922   1.495   2.390  0.00  0.00    +0.151 HD
BRANCH  25  28
ATOM     28  C   UNL     1       7.755   3.440   3.091  0.00  0.00    +0.141 C 
BRANCH  28  29
ATOM     29  C   UNL     1       9.050   2.675   3.187  0.00  0.00    -0.030 A 
ATOM     30  C   UNL     1       9.388   2.033   4.363  0.00  0.00    +0.005 A 
ATOM     31  C   UNL     1      10.573   1.327   4.449  0.00  0.00    +0.000 A 
ATOM     32  C   UNL     1      11.426   1.272   3.363  0.00  0.00    +0.000 A 
ATOM     33  C   UNL     1      11.091   1.920   2.188  0.00  0.00    +0.000 A 
ATOM     34  C   UNL     1       9.903   2.621   2.100  0.00  0.00    +0.005 A 
ENDBRANCH  28  29
ENDBRANCH  25  28
ENDBRANCH  21  22
ENDBRANCH  20  21
ENDBRANCH   2  20
TORSDOF 9
