REMARK  Name = ZINC14595597
REMARK  10 active torsions:
REMARK  status: ('A' for Active; 'I' for Inactive)
REMARK    1  A    between atoms: C_1  and  C_2
REMARK    2  A    between atoms: C_3  and  C_35
REMARK    3  A    between atoms: C_11  and  C_13
REMARK    4  A    between atoms: C_13  and  S_14
REMARK    5  A    between atoms: S_14  and  C_15
REMARK    6  A    between atoms: C_15  and  C_17
REMARK    7  A    between atoms: C_15  and  C_18
REMARK    8  A    between atoms: N_20  and  N_21
REMARK    9  A    between atoms: C_22  and  C_24
REMARK   10  A    between atoms: C_24  and  C_25
REMARK                            x       y       z     vdW  Elec       q    Type
REMARK                         _______ _______ _______ _____ _____    ______ ____
ROOT
ATOM      1  C   UNL     1      -5.401   0.941  -0.091  0.00  0.00    +0.242 C 
ATOM      2  O   UNL     1      -5.342  -0.217   0.267  0.00  0.00    -0.273 OA
ATOM      3  N   UNL     1      -6.549   1.431  -0.599  0.00  0.00    -0.233 N 
ATOM      4  H   UNL     1      -6.596   2.357  -0.886  0.00  0.00    +0.173 HD
ENDROOT
BRANCH   3   5
ATOM      5  N   UNL     1      -7.674   0.604  -0.714  0.00  0.00    -0.234 N 
ATOM      6  C   UNL     1      -8.822   1.094  -1.222  0.00  0.00    +0.230 C 
ATOM      7  O   UNL     1      -8.881   2.252  -1.580  0.00  0.00    -0.274 OA
ATOM      8  H   UNL     1      -7.627  -0.322  -0.427  0.00  0.00    +0.173 HD
BRANCH   6   9
ATOM      9  C   UNL     1     -10.032   0.205  -1.345  0.00  0.00    +0.104 C 
BRANCH   9  10
ATOM     10  C   UNL     1     -11.192   1.002  -1.946  0.00  0.00    -0.020 C 
ATOM     11  C   UNL     1     -11.521   2.188  -1.037  0.00  0.00    +0.011 C 
ATOM     12  C   UNL     1     -12.680   2.985  -1.639  0.00  0.00    -0.010 C 
ATOM     13  C   UNL     1     -13.909   2.081  -1.764  0.00  0.00    +0.007 C 
ATOM     14  C   UNL     1     -13.580   0.895  -2.672  0.00  0.00    -0.010 C 
ATOM     15  C   UNL     1     -12.420   0.098  -2.071  0.00  0.00    +0.011 C 
ATOM     16  C   UNL     1     -13.181   1.409  -4.057  0.00  0.00    +0.007 C 
ATOM     17  C   UNL     1     -11.953   2.312  -3.933  0.00  0.00    -0.010 C 
ATOM     18  C   UNL     1     -12.282   3.498  -3.024  0.00  0.00    +0.007 C 
ATOM     19  C   UNL     1     -10.793   1.515  -3.331  0.00  0.00    +0.011 C 
ENDBRANCH   9  10
ENDBRANCH   6   9
ENDBRANCH   3   5
BRANCH   1  20
ATOM     20  C   UNL     1      -4.191   1.830   0.032  0.00  0.00    +0.131 C 
ATOM     21  C   UNL     1      -4.265   2.614   1.344  0.00  0.00    +0.029 C 
BRANCH  20  22
ATOM     22  S   UNL     1      -2.689   0.813   0.019  0.00  0.00    -0.141 S 
BRANCH  22  23
ATOM     23  C   UNL     1      -1.338   2.024   0.019  0.00  0.00    +0.144 C 
BRANCH  23  34
ATOM     24  C   UNL     1       4.944  -0.317  -0.048  0.00  0.00    +0.045 C 
ATOM     25  C   UNL     1       3.551  -0.893  -0.037  0.00  0.00    -0.026 A 
ATOM     26  C   UNL     1       3.366  -2.222  -0.042  0.00  0.00    -0.008 A 
ATOM     27  S   UNL     1       1.591  -2.392  -0.026  0.00  0.00    -0.073 S 
ATOM     28  C   UNL     1       1.151  -0.673  -0.013  0.00  0.00    +0.116 A 
ATOM     29  C   UNL     1       2.395  -0.017  -0.021  0.00  0.00    +0.075 A 
ATOM     30  C   UNL     1       2.339   1.415  -0.012  0.00  0.00    +0.260 A 
ATOM     31  O   UNL     1       3.364   2.075  -0.018  0.00  0.00    -0.267 OA
ATOM     32  N   UNL     1       1.137   2.020   0.002  0.00  0.00    -0.310 N 
ATOM     33  H   UNL     1       1.092   2.989   0.008  0.00  0.00    +0.170 HD
ATOM     34  C   UNL     1      -0.016   1.302   0.009  0.00  0.00    +0.121 A 
ATOM     35  N   UNL     1       0.002  -0.004   0.002  0.00  0.00    -0.226 NA
ATOM     36  C   UNL     1       4.409  -3.311  -0.058  0.00  0.00    +0.052 C 
ENDBRANCH  23  34
ENDBRANCH  22  23
ENDBRANCH  20  22
ENDBRANCH   1  20
TORSDOF 7
