REMARK  Name = ZINC36316243
REMARK  18 active torsions:
REMARK  status: ('A' for Active; 'I' for Inactive)
REMARK    1  A    between atoms: C_1  and  C_2
REMARK    2  A    between atoms: C_2  and  C_3
REMARK    3  A    between atoms: C_4  and  C_21
REMARK    4  A    between atoms: C_5  and  O_14
REMARK    5  A    between atoms: N_6  and  C_8
REMARK    6  A    between atoms: O_14  and  C_15
REMARK    7  A    between atoms: C_21  and  N_22
REMARK    8  A    between atoms: N_22  and  C_23
REMARK    9  A    between atoms: N_22  and  C_31
REMARK   10  A    between atoms: C_23  and  C_24
REMARK   11  A    between atoms: C_24  and  C_26
REMARK   12  A    between atoms: C_24  and  O_30
REMARK   13  A    between atoms: C_26  and  O_27
REMARK   14  A    between atoms: O_27  and  C_28
REMARK   15  A    between atoms: C_28  and  C_29
REMARK   16  A    between atoms: C_31  and  C_32
REMARK   17  A    between atoms: C_32  and  C_33
REMARK   18  A    between atoms: C_32  and  C_34
REMARK                            x       y       z     vdW  Elec       q    Type
REMARK                         _______ _______ _______ _____ _____    ______ ____
ROOT
ATOM      1  C   UNL     1       0.033  -0.699   0.687  0.00  0.00    +0.068 A 
ATOM      2  C   UNL     1       1.379  -0.545   1.029  0.00  0.00    +0.021 A 
ATOM      3  C   UNL     1       1.453  -0.397   2.379  0.00  0.00    +0.225 A 
ATOM      4  N   UNL     1       0.184  -0.456   2.866  0.00  0.00    -0.200 N 
ATOM      5  N   UNL     1      -0.682  -0.640   1.781  0.00  0.00    -0.168 NA
ENDROOT
BRANCH   4   6
ATOM      6  C   UNL     1      -0.190  -0.347   4.213  0.00  0.00    +0.069 A 
ATOM      7  C   UNL     1       0.543  -1.002   5.193  0.00  0.00    +0.028 A 
ATOM      8  C   UNL     1       0.172  -0.892   6.519  0.00  0.00    +0.002 A 
ATOM      9  C   UNL     1      -0.927  -0.131   6.870  0.00  0.00    +0.000 A 
ATOM     10  C   UNL     1      -1.659   0.523   5.896  0.00  0.00    +0.002 A 
ATOM     11  C   UNL     1      -1.290   0.422   4.569  0.00  0.00    +0.028 A 
ENDBRANCH   4   6
BRANCH   1  13
ATOM     12  C   UNL     1      -0.805   0.471  -1.333  0.00  0.00    +0.010 C 
ATOM     13  C   UNL     1      -0.505  -0.893  -0.708  0.00  0.00    +0.054 C 
ENDBRANCH   1  13
BRANCH   3  14
ATOM     14  O   UNL     1       2.585  -0.222   3.107  0.00  0.00    -0.438 OA
BRANCH  14  15
ATOM     15  C   UNL     1       3.267  -1.329   3.501  0.00  0.00    +0.130 A 
ATOM     16  C   UNL     1       2.865  -2.584   3.068  0.00  0.00    +0.046 A 
ATOM     17  C   UNL     1       3.560  -3.708   3.470  0.00  0.00    +0.004 A 
ATOM     18  C   UNL     1       4.657  -3.583   4.303  0.00  0.00    +0.000 A 
ATOM     19  C   UNL     1       5.061  -2.333   4.735  0.00  0.00    +0.004 A 
ATOM     20  C   UNL     1       4.372  -1.205   4.332  0.00  0.00    +0.046 A 
ENDBRANCH  14  15
ENDBRANCH   3  14
BRANCH   2  21
ATOM     21  C   UNL     1       2.544  -0.545   0.072  0.00  0.00    -0.036 C 
BRANCH  21  22
ATOM     22  N   UNL     1       2.802   0.827  -0.384  0.00  0.00    +0.384 N 
ATOM     23  H   UNL     1       1.958   1.216  -0.777  0.00  0.00    -0.081 HD
BRANCH  22  24
ATOM     24  C   UNL     1       3.857   0.812  -1.406  0.00  0.00    -0.044 C 
BRANCH  24  25
ATOM     25  C   UNL     1       3.353   0.077  -2.649  0.00  0.00    +0.124 C 
BRANCH  25  26
ATOM     26  O   UNL     1       2.215   0.761  -3.178  0.00  0.00    -0.391 OA
ATOM     27  H   UNL     1       2.409   1.649  -3.509  0.00  0.00    +0.210 HD
ENDBRANCH  25  26
BRANCH  25  28
ATOM     28  C   UNL     1       4.461   0.038  -3.703  0.00  0.00    +0.189 C 
BRANCH  28  29
ATOM     29  O   UNL     1       4.032  -0.748  -4.817  0.00  0.00    -0.378 OA
BRANCH  29  30
ATOM     30  C   UNL     1       4.998  -0.848  -5.864  0.00  0.00    +0.156 C 
ATOM     31  C   UNL     1       4.434  -1.708  -6.998  0.00  0.00    +0.034 C 
ENDBRANCH  29  30
ENDBRANCH  28  29
ENDBRANCH  25  28
ENDBRANCH  24  25
ENDBRANCH  22  24
BRANCH  22  32
ATOM     32  C   UNL     1       3.235   1.648   0.755  0.00  0.00    -0.075 C 
BRANCH  32  33
ATOM     33  C   UNL     1       3.368   3.106   0.311  0.00  0.00    -0.034 C 
ATOM     34  C   UNL     1       1.998   3.635  -0.119  0.00  0.00    +0.005 C 
ATOM     35  C   UNL     1       3.897   3.947   1.475  0.00  0.00    +0.005 C 
ENDBRANCH  32  33
ENDBRANCH  22  32
ENDBRANCH  21  22
ENDBRANCH   2  21
TORSDOF 14
