REMARK  Name = ZINC64610465
REMARK  6 active torsions:
REMARK  status: ('A' for Active; 'I' for Inactive)
REMARK    1  A    between atoms: C_1  and  C_2
REMARK    2  A    between atoms: C_8  and  C_10
REMARK    3  A    between atoms: N_12  and  N_13
REMARK    4  A    between atoms: C_14  and  C_16
REMARK    5  A    between atoms: C_16  and  C_17
REMARK    6  A    between atoms: C_17  and  C_22
REMARK                            x       y       z     vdW  Elec       q    Type
REMARK                         _______ _______ _______ _____ _____    ______ ____
ROOT
ATOM      1  C   UNL     1       1.960  -5.266   2.679  0.00  0.00    +0.267 C 
ATOM      2  O   UNL     1       2.867  -4.987   3.442  0.00  0.00    -0.268 OA
ATOM      3  N   UNL     1       1.581  -6.550   2.523  0.00  0.00    -0.230 N 
ATOM      4  H   UNL     1       0.859  -6.772   1.915  0.00  0.00    +0.173 HD
ENDROOT
BRANCH   1  12
ATOM      5  C   UNL     1       0.155   1.471  -0.260  0.00  0.00    +0.008 C 
ATOM      6  C   UNL     1       0.178  -0.059  -0.246  0.00  0.00    -0.009 C 
ATOM      7  C   UNL     1      -1.257  -0.590  -0.310  0.00  0.00    +0.009 C 
ATOM      8  C   UNL     1      -1.212  -2.102  -0.569  0.00  0.00    +0.043 C 
ATOM      9  C   UNL     1      -0.231  -2.718   0.384  0.00  0.00    -0.006 A 
ATOM     10  C   UNL     1       0.710  -2.062   1.123  0.00  0.00    -0.036 A 
ATOM     11  C   UNL     1       1.513  -2.842   1.942  0.00  0.00    +0.024 A 
ATOM     12  C   UNL     1       1.281  -4.205   1.929  0.00  0.00    +0.076 A 
ATOM     13  S   UNL     1      -0.060  -4.336   0.761  0.00  0.00    -0.088 S 
ATOM     14  C   UNL     1       0.855  -0.545   1.036  0.00  0.00    +0.039 C 
ENDBRANCH   1  12
BRANCH   3  15
ATOM     15  N   UNL     1       2.231  -7.564   3.240  0.00  0.00    -0.234 N 
ATOM     16  C   UNL     1       1.852  -8.848   3.084  0.00  0.00    +0.230 C 
ATOM     17  O   UNL     1       0.949  -9.125   2.324  0.00  0.00    -0.274 OA
ATOM     18  H   UNL     1       2.953  -7.341   3.848  0.00  0.00    +0.173 HD
BRANCH  16  19
ATOM     19  C   UNL     1       2.550  -9.938   3.855  0.00  0.00    +0.116 C 
BRANCH  19  20
ATOM     20  C   UNL     1       1.848 -11.273   3.600  0.00  0.00    +0.090 C 
ATOM     21  C   UNL     1       2.042 -11.656   2.133  0.00  0.00    +0.030 C 
ATOM     22  C   UNL     1       0.855 -12.531   1.643  0.00  0.00    +0.070 C 
ATOM     23  S   UNL     1      -0.537 -11.667   2.495  0.00  0.00    -0.160 S 
ATOM     24  C   UNL     1       0.368 -11.139   4.009  0.00  0.00    +0.087 C 
BRANCH  20  25
ATOM     25  C   UNL     1       2.493 -12.329   4.460  0.00  0.00    +0.363 C 
ATOM     26  O   UNL     1       2.435 -12.245   5.675  0.00  0.00    -0.246 OA
ATOM     27  O   UNL     1       3.074 -13.267   3.941  0.00  0.00    -0.246 OA
ENDBRANCH  20  25
ENDBRANCH  19  20
ENDBRANCH  16  19
ENDBRANCH   3  15
TORSDOF 5
