REMARK  Name = ZINC39654372
REMARK  8 active torsions:
REMARK  status: ('A' for Active; 'I' for Inactive)
REMARK    1  A    between atoms: C_1  and  C_2
REMARK    2  A    between atoms: C_2  and  C_3
REMARK    3  A    between atoms: C_6  and  C_9
REMARK    4  A    between atoms: C_9  and  C_10
REMARK    5  A    between atoms: C_10  and  N_11
REMARK    6  A    between atoms: C_12  and  C_14
REMARK    7  A    between atoms: C_25  and  C_27
REMARK    8  A    between atoms: C_27  and  C_33
REMARK                            x       y       z     vdW  Elec       q    Type
REMARK                         _______ _______ _______ _____ _____    ______ ____
ROOT
ATOM      1  C   UNL     1     -10.610  -1.462   0.106  0.00  0.00    +0.100 C 
ATOM      2  C   UNL     1     -10.576  -2.209   1.458  0.00  0.00    +0.121 C 
ATOM      3  N   UNL     1     -11.167  -1.257   2.427  0.00  0.00    -0.300 N 
ATOM      4  C   UNL     1     -12.281  -0.619   1.685  0.00  0.00    +0.115 C 
ATOM      5  C   UNL     1     -11.733  -0.422   0.257  0.00  0.00    -0.004 C 
ATOM      6  C   UNL     1     -12.832  -0.676  -0.770  0.00  0.00    -0.010 C 
ATOM      7  C   UNL     1     -13.908   0.405  -0.638  0.00  0.00    -0.082 C 
ATOM      8  N   UNL     1     -13.306   1.726  -0.853  0.00  0.00    +0.379 N 
ATOM      9  C   UNL     1     -12.316   2.001   0.196  0.00  0.00    -0.082 C 
ATOM     10  C   UNL     1     -11.172   0.988   0.099  0.00  0.00    -0.010 C 
ATOM     11  C   UNL     1     -10.780  -1.024   3.696  0.00  0.00    +0.222 C 
ATOM     12  O   UNL     1      -9.794  -1.573   4.141  0.00  0.00    -0.275 OA
ATOM     13  H   UNL     1     -12.853   1.746  -1.754  0.00  0.00    -0.086 HD
ATOM     14  H   UNL     1     -14.027   2.431  -0.826  0.00  0.00    -0.086 HD
ENDROOT
BRANCH  11  15
ATOM     15  C   UNL     1     -11.572  -0.080   4.564  0.00  0.00    +0.044 C 
ATOM     16  C   UNL     1     -11.454   1.342   4.013  0.00  0.00    +0.016 C 
ATOM     17  C   UNL     1      -9.983   1.766   4.008  0.00  0.00    +0.001 C 
ATOM     18  C   UNL     1      -9.437   1.726   5.437  0.00  0.00    +0.000 C 
ATOM     19  C   UNL     1      -9.556   0.304   5.988  0.00  0.00    +0.001 C 
ATOM     20  C   UNL     1     -11.026  -0.120   5.993  0.00  0.00    +0.016 C 
ATOM     21  C   UNL     1     -13.043  -0.504   4.569  0.00  0.00    +0.021 C 
ENDBRANCH  11  15
BRANCH   1  23
ATOM     22  N   UNL     1      -8.865  -0.587  -1.413  0.00  0.00    -0.315 N 
ATOM     23  C   UNL     1      -9.292  -0.778  -0.149  0.00  0.00    +0.218 C 
ATOM     24  O   UNL     1      -8.616  -0.399   0.784  0.00  0.00    -0.275 OA
ATOM     25  H   UNL     1      -9.406  -0.890  -2.159  0.00  0.00    +0.149 HD
BRANCH  22  26
ATOM     26  C   UNL     1      -7.583   0.078  -1.660  0.00  0.00    +0.109 C 
BRANCH  26  27
ATOM     27  C   UNL     1      -7.337   0.167  -3.168  0.00  0.00    +0.054 C 
BRANCH  27  31
ATOM     28  C   UNL     1      -3.601   2.107  -3.891  0.00  0.00    -0.048 A 
ATOM     29  C   UNL     1      -3.650   0.733  -3.745  0.00  0.00    +0.004 A 
ATOM     30  C   UNL     1      -4.859   0.105  -3.511  0.00  0.00    +0.004 A 
ATOM     31  C   UNL     1      -6.019   0.851  -3.422  0.00  0.00    -0.046 A 
ATOM     32  C   UNL     1      -5.970   2.225  -3.567  0.00  0.00    +0.004 A 
ATOM     33  C   UNL     1      -4.760   2.853  -3.798  0.00  0.00    +0.004 A 
BRANCH  28  35
ATOM     34  C   UNL     1      -1.633   3.160  -2.812  0.00  0.00    +0.009 C 
ATOM     35  C   UNL     1      -2.283   2.791  -4.147  0.00  0.00    +0.032 C 
ENDBRANCH  28  35
ENDBRANCH  27  31
ENDBRANCH  26  27
ENDBRANCH  22  26
ENDBRANCH   1  23
TORSDOF 6
