REMARK  Name = ZINC36813037
REMARK  4 active torsions:
REMARK  status: ('A' for Active; 'I' for Inactive)
REMARK    1  A    between atoms: C_1  and  C_2
REMARK    2  A    between atoms: C_7  and  N_8
REMARK    3  A    between atoms: N_8  and  C_9
REMARK    4  A    between atoms: C_18  and  N_19
REMARK                            x       y       z     vdW  Elec       q    Type
REMARK                         _______ _______ _______ _____ _____    ______ ____
ROOT
ATOM      1  C   UNL     1      -0.058  -0.766   3.585  0.00  0.00    +0.063 A 
ATOM      2  C   UNL     1      -0.473  -0.177   4.801  0.00  0.00    +0.022 A 
ATOM      3  C   UNL     1      -0.840   1.175   4.868  0.00  0.00    +0.027 A 
ATOM      4  C   UNL     1      -1.234   1.707   6.059  0.00  0.00    +0.019 A 
ATOM      5  C   UNL     1      -1.278   0.924   7.212  0.00  0.00    +0.017 A 
ATOM      6  C   UNL     1      -0.929  -0.390   7.181  0.00  0.00    +0.027 A 
ATOM      7  C   UNL     1      -0.516  -0.975   5.970  0.00  0.00    +0.048 A 
ATOM      8  N   UNL     1      -0.168  -2.265   5.914  0.00  0.00    -0.359 N 
ATOM      9  C   UNL     1       0.219  -2.828   4.793  0.00  0.00    +0.107 A 
ATOM     10  C   UNL     1       0.284  -2.114   3.598  0.00  0.00    +0.063 A 
ATOM     11 BR   UNL     1      -1.728   3.530   6.149  0.00  0.00    -0.050 Br
ATOM     12  H   UNL     1      -0.203  -2.799   6.723  0.00  0.00    +0.165 HD
ENDROOT
BRANCH  10  13
ATOM     13  N   UNL     1       0.697  -2.749   2.418  0.00  0.00    -0.355 N 
ATOM     14  H   UNL     1       0.823  -2.231   1.608  0.00  0.00    +0.142 HD
ATOM     15  H   UNL     1       0.856  -3.706   2.413  0.00  0.00    +0.142 HD
ENDBRANCH  10  13
BRANCH   1  16
ATOM     16  N   UNL     1       0.000  -0.022   2.410  0.00  0.00    -0.312 N 
ATOM     17  H   UNL     1      -0.762  -0.002   1.810  0.00  0.00    +0.152 HD
BRANCH  16  24
ATOM     18  C   UNL     1       0.127   1.273  -0.120  0.00  0.00    +0.046 C 
ATOM     19  C   UNL     1       1.261   1.344   0.871  0.00  0.00    -0.028 A 
ATOM     20  C   UNL     1       2.403   2.058   0.564  0.00  0.00    +0.020 A 
ATOM     21  C   UNL     1       3.444   2.124   1.473  0.00  0.00    +0.018 A 
ATOM     22  C   UNL     1       3.345   1.476   2.691  0.00  0.00    +0.017 A 
ATOM     23  C   UNL     1       2.206   0.760   3.003  0.00  0.00    +0.024 A 
ATOM     24  C   UNL     1       1.156   0.696   2.095  0.00  0.00    +0.034 A 
ATOM     25 BR   UNL     1       5.005   3.103   1.049  0.00  0.00    -0.050 Br
ENDBRANCH  16  24
ENDBRANCH   1  16
TORSDOF 3
