REMARK  Name = ZINC03427016
REMARK  8 active torsions:
REMARK  status: ('A' for Active; 'I' for Inactive)
REMARK    1  A    between atoms: C_3  and  C_10
REMARK    2  A    between atoms: C_5  and  N_7
REMARK    3  A    between atoms: N_12  and  C_13
REMARK    4  A    between atoms: C_13  and  C_14
REMARK    5  A    between atoms: N_16  and  C_17
REMARK    6  A    between atoms: C_20  and  S_23
REMARK    7  A    between atoms: S_23  and  N_26
REMARK    8  A    between atoms: N_26  and  C_27
REMARK                            x       y       z     vdW  Elec       q    Type
REMARK                         _______ _______ _______ _____ _____    ______ ____
ROOT
ATOM      1  C   UNL     1       8.571  -2.436   1.423  0.00  0.00    +0.234 C 
ATOM      2  O   UNL     1       8.261  -3.597   1.256  0.00  0.00    -0.274 OA
ATOM      3  N   UNL     1       7.730  -1.453   1.044  0.00  0.00    -0.284 N 
ATOM      4  H   UNL     1       8.008  -0.526   1.107  0.00  0.00    +0.155 HD
ENDROOT
BRANCH   3   5
ATOM      5  C   UNL     1       6.457  -1.770   0.558  0.00  0.00    +0.034 A 
ATOM      6  C   UNL     1       5.778  -2.875   1.056  0.00  0.00    +0.025 A 
ATOM      7  C   UNL     1       4.521  -3.184   0.575  0.00  0.00    +0.030 A 
ATOM      8  C   UNL     1       3.938  -2.396  -0.401  0.00  0.00    +0.109 A 
ATOM      9  C   UNL     1       4.614  -1.299  -0.902  0.00  0.00    +0.030 A 
ATOM     10  C   UNL     1       5.869  -0.981  -0.422  0.00  0.00    +0.025 A 
BRANCH   8  11
ATOM     11  S   UNL     1       2.334  -2.795  -1.011  0.00  0.00    +0.072 S 
ATOM     12  O   UNL     1       2.094  -4.152  -0.665  0.00  0.00    -0.150 OA
ATOM     13  O   UNL     1       2.284  -2.331  -2.353  0.00  0.00    -0.150 OA
BRANCH  11  14
ATOM     14  N   UNL     1       1.245  -1.888  -0.155  0.00  0.00    -0.216 N 
ATOM     15  H   UNL     1       0.684  -1.243  -0.614  0.00  0.00    +0.174 HD
BRANCH  14  16
ATOM     16  C   UNL     1       1.134  -2.051   1.228  0.00  0.00    +0.048 A 
ATOM     17  C   UNL     1       1.089  -0.939   2.059  0.00  0.00    +0.026 A 
ATOM     18  C   UNL     1       0.979  -1.103   3.426  0.00  0.00    +0.022 A 
ATOM     19  C   UNL     1       0.915  -2.375   3.968  0.00  0.00    +0.041 A 
ATOM     20  C   UNL     1       0.959  -3.485   3.143  0.00  0.00    +0.022 A 
ATOM     21  C   UNL     1       1.069  -3.326   1.775  0.00  0.00    +0.026 A 
ATOM     22 CL   UNL     1       0.777  -2.578   5.687  0.00  0.00    -0.084 Cl
ENDBRANCH  14  16
ENDBRANCH  11  14
ENDBRANCH   8  11
ENDBRANCH   3   5
BRANCH   1  23
ATOM     23  C   UNL     1       9.896  -2.093   2.054  0.00  0.00    +0.200 C 
BRANCH  23  26
ATOM     24  C   UNL     1      11.836  -3.264   2.949  0.00  0.00    +0.245 C 
ATOM     25  O   UNL     1      12.334  -2.185   3.202  0.00  0.00    -0.270 OA
ATOM     26  N   UNL     1      10.619  -3.326   2.373  0.00  0.00    -0.303 N 
ATOM     27  H   UNL     1      10.221  -4.188   2.171  0.00  0.00    +0.150 HD
BRANCH  24  30
ATOM     28  C   UNL     1      12.682  -6.908   3.285  0.00  0.00    +0.003 A 
ATOM     29  C   UNL     1      11.994  -5.750   2.986  0.00  0.00    +0.013 A 
ATOM     30  C   UNL     1      12.566  -4.509   3.271  0.00  0.00    +0.039 A 
ATOM     31  C   UNL     1      13.826  -4.448   3.867  0.00  0.00    +0.045 A 
ATOM     32  C   UNL     1      14.502  -5.614   4.165  0.00  0.00    +0.127 A 
ATOM     33  C   UNL     1      13.932  -6.841   3.875  0.00  0.00    +0.033 A 
BRANCH  32  34
ATOM     34  N   UNL     1      15.839  -5.551   4.797  0.00  0.00    +0.056 N 
ATOM     35  O   UNL     1      16.341  -4.472   5.053  0.00  0.00    -0.126 OA
ATOM     36  O   UNL     1      16.436  -6.579   5.061  0.00  0.00    -0.126 OA
ENDBRANCH  32  34
ENDBRANCH  24  30
ENDBRANCH  23  26
ENDBRANCH   1  23
TORSDOF 8
