REMARK  Name = ZINC26784236
REMARK  3 active torsions:
REMARK  status: ('A' for Active; 'I' for Inactive)
REMARK    1  A    between atoms: C_8  and  C_12
REMARK    2  A    between atoms: C_12  and  N_13
REMARK    3  A    between atoms: C_14  and  C_16
REMARK                            x       y       z     vdW  Elec       q    Type
REMARK                         _______ _______ _______ _____ _____    ______ ____
ROOT
ATOM      1  C   UNL     1       4.925   3.811  -0.164  0.00  0.00    +0.111 C 
ENDROOT
BRANCH   1   9
ATOM      2  C   UNL     1      -1.238   3.130   0.030  0.00  0.00    +0.000 A 
ATOM      3  C   UNL     1      -1.218   1.747   0.017  0.00  0.00    +0.004 A 
ATOM      4  C   UNL     1      -0.013   1.076   0.008  0.00  0.00    +0.046 A 
ATOM      5  C   UNL     1       1.184   1.786   0.000  0.00  0.00    +0.124 A 
ATOM      6  C   UNL     1       1.161   3.169   0.009  0.00  0.00    -0.005 A 
ATOM      7  C   UNL     1      -0.052   3.837   0.022  0.00  0.00    +0.007 A 
ATOM      8  C   UNL     1       2.434   3.977   0.007  0.00  0.00    +0.047 C 
ATOM      9  C   UNL     1       3.602   3.096  -0.445  0.00  0.00    +0.048 C 
ATOM     10  C   UNL     1       3.547   1.781   0.342  0.00  0.00    +0.234 C 
ATOM     11  O   UNL     1       2.350   1.089  -0.019  0.00  0.00    -0.491 OA
ENDBRANCH   1   9
BRANCH   1  12
ATOM     12  N   UNL     1       6.034   3.006  -0.682  0.00  0.00    -0.308 N 
ATOM     13  C   UNL     1       7.303   3.441  -0.547  0.00  0.00    +0.279 C 
ATOM     14  O   UNL     1       7.527   4.502   0.005  0.00  0.00    -0.267 OA
ATOM     15  H   UNL     1       5.832   2.047  -1.181  0.00  0.00    +0.149 HD
BRANCH  13  16
ATOM     16  C   UNL     1       8.412   2.635  -1.065  0.00  0.00    +0.191 A 
ATOM     17  C   UNL     1       9.738   2.959  -1.000  0.00  0.00    +0.056 A 
ATOM     18  C   UNL     1      10.440   1.910  -1.611  0.00  0.00    +0.058 A 
ATOM     19  C   UNL     1       9.524   1.005  -2.026  0.00  0.00    +0.171 A 
ATOM     20  O   UNL     1       8.303   1.446  -1.695  0.00  0.00    -0.444 OA
ATOM     21 BR   UNL     1       9.903  -0.615  -2.924  0.00  0.00    -0.008 Br
ENDBRANCH  13  16
ENDBRANCH   1  12
TORSDOF 3
