REMARK  Name = ZINC33058434
REMARK  9 active torsions:
REMARK  status: ('A' for Active; 'I' for Inactive)
REMARK    1  A    between atoms: C_1  and  O_2
REMARK    2  A    between atoms: O_2  and  C_3
REMARK    3  A    between atoms: C_6  and  S_9
REMARK    4  A    between atoms: S_9  and  C_12
REMARK    5  A    between atoms: C_13  and  N_34
REMARK    6  A    between atoms: C_14  and  C_25
REMARK    7  A    between atoms: C_16  and  N_17
REMARK    8  A    between atoms: N_17  and  C_18
REMARK    9  A    between atoms: C_25  and  C_27
REMARK                            x       y       z     vdW  Elec       q    Type
REMARK                         _______ _______ _______ _____ _____    ______ ____
ROOT
ATOM      1  C   UNL     1      -2.294   1.067   0.043  0.00  0.00    +0.143 A 
ATOM      2  C   UNL     1      -1.087   1.715  -0.042  0.00  0.00    +0.070 A 
ATOM      3  C   UNL     1      -1.079   3.112   0.043  0.00  0.00    +0.084 A 
ATOM      4  S   UNL     1      -2.814   3.486   0.233  0.00  0.00    -0.066 S 
ATOM      5  C   UNL     1      -3.443   1.816   0.202  0.00  0.00    +0.098 A 
ENDROOT
BRANCH   1   6
ATOM      6  S   UNL     1      -2.376  -0.691  -0.049  0.00  0.00    +0.029 S 
ATOM      7  O   UNL     1      -3.691  -1.014  -0.480  0.00  0.00    -0.164 OA
ATOM      8  O   UNL     1      -1.217  -1.115  -0.753  0.00  0.00    -0.164 OA
BRANCH   6  12
ATOM      9  C   UNL     1      -1.974  -2.273   4.175  0.00  0.00    +0.120 A 
ATOM     10  C   UNL     1      -3.228  -1.981   3.659  0.00  0.00    +0.047 A 
ATOM     11  C   UNL     1      -3.348  -1.499   2.370  0.00  0.00    +0.031 A 
ATOM     12  C   UNL     1      -2.220  -1.306   1.595  0.00  0.00    +0.094 A 
ATOM     13  C   UNL     1      -0.969  -1.601   2.105  0.00  0.00    +0.031 A 
ATOM     14  C   UNL     1      -0.843  -2.079   3.395  0.00  0.00    +0.047 A 
BRANCH   9  16
ATOM     15  C   UNL     1      -0.532  -3.026   5.908  0.00  0.00    +0.277 C 
ATOM     16  O   UNL     1      -1.854  -2.747   5.443  0.00  0.00    -0.495 OA
ENDBRANCH   9  16
ENDBRANCH   6  12
ENDBRANCH   1   6
BRANCH   2  17
ATOM     17  N   UNL     1       0.096   1.002  -0.201  0.00  0.00    -0.355 N 
ATOM     18  H   UNL     1       1.056   1.536  -0.268  0.00  0.00    +0.142 HD
ATOM     19  H   UNL     1       0.073  -0.096  -0.261  0.00  0.00    +0.142 HD
ENDBRANCH   2  17
BRANCH   5  20
ATOM     20  N   UNL     1      -4.753   1.382   0.310  0.00  0.00    -0.307 N 
ATOM     21  H   UNL     1      -4.984   0.309   0.240  0.00  0.00    +0.153 HD
BRANCH  20  22
ATOM     22  C   UNL     1      -5.782   2.307   0.507  0.00  0.00    +0.032 A 
ATOM     23  C   UNL     1      -5.583   3.402   1.338  0.00  0.00    +0.024 A 
ATOM     24  C   UNL     1      -6.600   4.317   1.527  0.00  0.00    +0.022 A 
ATOM     25  C   UNL     1      -7.820   4.138   0.898  0.00  0.00    +0.041 A 
ATOM     26  C   UNL     1      -8.022   3.045   0.074  0.00  0.00    +0.022 A 
ATOM     27  C   UNL     1      -7.007   2.129  -0.123  0.00  0.00    +0.024 A 
ATOM     28 CL   UNL     1      -9.098   5.287   1.143  0.00  0.00    -0.084 Cl
ENDBRANCH  20  22
ENDBRANCH   5  20
BRANCH   3  29
ATOM     29  C   UNL     1       0.015   3.995  -0.011  0.00  0.00    +0.202 C 
ATOM     30  O   UNL     1       1.153   3.556  -0.017  0.00  0.00    -0.286 OA
BRANCH  29  31
ATOM     31  C   UNL     1      -0.215   5.456  -0.059  0.00  0.00    +0.023 A 
ATOM     32  C   UNL     1       0.706   6.329   0.522  0.00  0.00    +0.014 A 
ATOM     33  C   UNL     1       0.490   7.690   0.470  0.00  0.00    +0.039 A 
ATOM     34  C   UNL     1      -0.646   8.190  -0.148  0.00  0.00    +0.123 A 
ATOM     35  C   UNL     1      -1.566   7.327  -0.722  0.00  0.00    +0.039 A 
ATOM     36  C   UNL     1      -1.356   5.965  -0.680  0.00  0.00    +0.014 A 
ATOM     37  F   UNL     1      -0.856   9.524  -0.192  0.00  0.00    -0.205 F 
ENDBRANCH  29  31
ENDBRANCH   3  29
TORSDOF 8
