REMARK  Name = ZINC16688222
REMARK  10 active torsions:
REMARK  status: ('A' for Active; 'I' for Inactive)
REMARK    1  A    between atoms: C_1  and  C_2
REMARK    2  A    between atoms: C_2  and  O_3
REMARK    3  A    between atoms: O_3  and  C_4
REMARK    4  A    between atoms: C_6  and  C_22
REMARK    5  A    between atoms: C_8  and  N_11
REMARK    6  A    between atoms: C_9  and  O_10
REMARK    7  A    between atoms: N_12  and  C_13
REMARK    8  A    between atoms: C_17  and  N_19
REMARK    9  A    between atoms: N_23  and  N_24
REMARK   10  A    between atoms: C_25  and  C_26
REMARK                            x       y       z     vdW  Elec       q    Type
REMARK                         _______ _______ _______ _____ _____    ______ ____
ROOT
ATOM      1  C   UNL     1       2.796  -3.461  -0.045  0.00  0.00    +0.164 A 
ATOM      2  C   UNL     1       3.397  -4.372   0.768  0.00  0.00    +0.059 A 
ATOM      3  C   UNL     1       3.615  -5.739   0.289  0.00  0.00    +0.000 A 
ATOM      4  C   UNL     1       3.195  -6.092  -1.019  0.00  0.00    +0.043 A 
ATOM      5  C   UNL     1       2.586  -5.144  -1.820  0.00  0.00    +0.132 A 
ATOM      6  C   UNL     1       2.378  -3.828  -1.339  0.00  0.00    +0.186 A 
ENDROOT
BRANCH   6   7
ATOM      7  O   UNL     1       1.778  -2.915  -2.130  0.00  0.00    -0.502 OA
ATOM      8  H   UNL     1       2.391  -2.411  -2.682  0.00  0.00    +0.292 HD
ENDBRANCH   6   7
BRANCH   5   9
ATOM      9  N   UNL     1       2.180  -5.479  -3.079  0.00  0.00    -0.145 NA
ATOM     10  N   UNL     1       1.793  -6.682  -3.333  0.00  0.00    -0.149 NA
BRANCH  10  11
ATOM     11  C   UNL     1       1.321  -7.475  -2.325  0.00  0.00    +0.088 A 
ATOM     12  C   UNL     1       1.224  -8.858  -2.506  0.00  0.00    +0.030 A 
ATOM     13  C   UNL     1       0.747  -9.651  -1.484  0.00  0.00    +0.004 A 
ATOM     14  C   UNL     1       0.363  -9.082  -0.282  0.00  0.00    +0.033 A 
ATOM     15  C   UNL     1       0.455  -7.713  -0.097  0.00  0.00    +0.128 A 
ATOM     16  C   UNL     1       0.937  -6.907  -1.107  0.00  0.00    +0.062 A 
BRANCH  15  17
ATOM     17  N   UNL     1       0.041  -7.114   1.192  0.00  0.00    +0.056 N 
ATOM     18  O   UNL     1      -0.315  -7.890   2.195  0.00  0.00    -0.126 OA
ATOM     19  O   UNL     1       0.028  -5.805   1.336  0.00  0.00    -0.126 OA
ENDBRANCH  15  17
ENDBRANCH  10  11
ENDBRANCH   5   9
BRANCH   3  20
ATOM     20  C   UNL     1       4.231  -6.684   1.111  0.00  0.00    +0.140 C 
ATOM     21  N   UNL     1       4.336  -7.964   0.705  0.00  0.00    -0.180 NA
BRANCH  21  22
ATOM     22  N   UNL     1       4.816  -8.857   1.502  0.00  0.00    -0.263 N 
ATOM     23  C   UNL     1       5.018 -10.130   1.058  0.00  0.00    +0.143 C 
ATOM     24  N   UNL     1       4.816 -10.429  -0.235  0.00  0.00    -0.342 N 
ATOM     25  H   UNL     1       4.681  -9.720  -0.882  0.00  0.00    +0.144 HD
ATOM     26  H   UNL     1       4.806 -11.356  -0.522  0.00  0.00    +0.144 HD
ATOM     27  H   UNL     1       5.034  -8.623   2.418  0.00  0.00    +0.190 HD
BRANCH  23  28
ATOM     28  C   UNL     1       5.455 -11.174   1.995  0.00  0.00    +0.187 A 
ATOM     29  C   UNL     1       6.084 -12.453   1.631  0.00  0.00    +0.191 A 
ATOM     30  N   UNL     1       6.331 -13.115   2.728  0.00  0.00    -0.033 NA
ATOM     31  O   UNL     1       5.892 -12.332   3.823  0.00  0.00    -0.240 OA
ATOM     32  N   UNL     1       5.358 -11.126   3.305  0.00  0.00    -0.044 NA
ATOM     33  N   UNL     1       6.367 -12.880   0.344  0.00  0.00    -0.339 N 
ATOM     34  H   UNL     1       6.274 -12.268  -0.403  0.00  0.00    +0.144 HD
ATOM     35  H   UNL     1       6.657 -13.793   0.188  0.00  0.00    +0.144 HD
ENDBRANCH  23  28
ENDBRANCH  21  22
ENDBRANCH   3  20
BRANCH   1  36
ATOM     36  O   UNL     1       2.592  -2.192   0.396  0.00  0.00    -0.488 OA
BRANCH  36  38
ATOM     37  C   UNL     1       2.726  -0.422   2.035  0.00  0.00    +0.048 C 
ATOM     38  C   UNL     1       3.039  -1.885   1.718  0.00  0.00    +0.226 C 
ENDBRANCH  36  38
ENDBRANCH   1  36
TORSDOF 9
