REMARK  Name = ZINC64612668
REMARK  5 active torsions:
REMARK  status: ('A' for Active; 'I' for Inactive)
REMARK    1  A    between atoms: C_4  and  C_7
REMARK    2  A    between atoms: C_11  and  C_14
REMARK    3  A    between atoms: C_17  and  S_19
REMARK    4  A    between atoms: S_19  and  N_22
REMARK    5  A    between atoms: N_22  and  C_23
REMARK                            x       y       z     vdW  Elec       q    Type
REMARK                         _______ _______ _______ _____ _____    ______ ____
ROOT
ATOM      1  C   UNL     1       6.136  -2.213  -1.859  0.00  0.00    +0.069 C 
ATOM      2  N   UNL     1       7.127  -2.949  -1.482  0.00  0.00    -0.258 NA
ATOM      3  C   UNL     1       8.296  -2.626  -2.083  0.00  0.00    +0.135 C 
ATOM      4  C   UNL     1       8.164  -1.615  -2.934  0.00  0.00    +0.111 C 
ATOM      5  C   UNL     1       6.695  -1.236  -2.875  0.00  0.00    +0.113 C 
ENDROOT
BRANCH   1   9
ATOM      6  C   UNL     1       3.711  -0.707  -0.038  0.00  0.00    +0.233 C 
ATOM      7  N   UNL     1       3.572  -2.033   0.619  0.00  0.00    -0.223 NA
ATOM      8  N   UNL     1       4.669  -2.803   0.009  0.00  0.00    -0.222 NA
ATOM      9  C   UNL     1       4.708  -2.310  -1.387  0.00  0.00    +0.248 C 
ATOM     10  O   UNL     1       4.100  -1.008  -1.390  0.00  0.00    -0.332 OA
ATOM     11  H   UNL     1       3.696  -1.957   1.618  0.00  0.00    +0.144 HD
ATOM     12  H   UNL     1       4.476  -3.793   0.037  0.00  0.00    +0.144 HD
BRANCH   6  16
ATOM     13  C   UNL     1      -0.017   1.378   0.010  0.00  0.00    +0.000 A 
ATOM     14  C   UNL     1       1.171   2.086   0.002  0.00  0.00    +0.000 A 
ATOM     15  C   UNL     1       2.377   1.411  -0.013  0.00  0.00    +0.007 A 
ATOM     16  C   UNL     1       2.396   0.029  -0.020  0.00  0.00    -0.003 A 
ATOM     17  C   UNL     1       1.208  -0.679  -0.012  0.00  0.00    +0.007 A 
ATOM     18  C   UNL     1       0.002  -0.004   0.002  0.00  0.00    +0.000 A 
ENDBRANCH   6  16
ENDBRANCH   1   9
BRANCH   4  19
ATOM     19  S   UNL     1       9.421  -0.875  -3.923  0.00  0.00    +0.090 S 
ATOM     20  O   UNL     1      10.572  -1.698  -3.798  0.00  0.00    -0.149 OA
ATOM     21  O   UNL     1       8.828  -0.580  -5.180  0.00  0.00    -0.149 OA
BRANCH  19  22
ATOM     22  N   UNL     1       9.800   0.578  -3.226  0.00  0.00    -0.095 NA
BRANCH  22  23
ATOM     23  C   UNL     1      10.779   1.395  -3.801  0.00  0.00    +0.109 A 
ATOM     24  C   UNL     1      11.430   0.992  -4.959  0.00  0.00    +0.029 A 
ATOM     25  C   UNL     1      12.396   1.801  -5.525  0.00  0.00    +0.002 A 
ATOM     26  C   UNL     1      12.717   3.012  -4.939  0.00  0.00    +0.003 A 
ATOM     27  C   UNL     1      12.072   3.418  -3.785  0.00  0.00    +0.040 A 
ATOM     28  C   UNL     1      11.099   2.616  -3.217  0.00  0.00    +0.148 A 
ATOM     29  F   UNL     1      10.465   3.015  -2.093  0.00  0.00    -0.203 F 
ENDBRANCH  22  23
ENDBRANCH  19  22
ENDBRANCH   4  19
TORSDOF 5
