REMARK  Name = ZINC07868109
REMARK  7 active torsions:
REMARK  status: ('A' for Active; 'I' for Inactive)
REMARK    1  A    between atoms: C_1  and  C_2
REMARK    2  A    between atoms: C_2  and  C_4
REMARK    3  A    between atoms: C_2  and  O_18
REMARK    4  A    between atoms: N_6  and  C_7
REMARK    5  A    between atoms: C_8  and  C_15
REMARK    6  A    between atoms: O_18  and  C_19
REMARK    7  A    between atoms: C_19  and  C_21
REMARK                            x       y       z     vdW  Elec       q    Type
REMARK                         _______ _______ _______ _____ _____    ______ ____
ROOT
ATOM      1  C   UNL     1       1.629   4.445   0.012  0.00  0.00    +0.258 C 
ATOM      2  O   UNL     1       0.416   4.408   0.024  0.00  0.00    -0.271 OA
ATOM      3  N   UNL     1       2.338   3.299  -0.002  0.00  0.00    -0.276 N 
ATOM      4  H   UNL     1       3.307   3.329  -0.012  0.00  0.00    +0.155 HD
ENDROOT
BRANCH   3   5
ATOM      5  C   UNL     1       1.681   2.078  -0.003  0.00  0.00    +0.084 A 
ATOM      6  C   UNL     1       2.229   0.806  -0.015  0.00  0.00    +0.068 A 
ATOM      7  C   UNL     1       1.307  -0.329  -0.013  0.00  0.00    -0.023 A 
ATOM      8  C   UNL     1       0.002  -0.004   0.002  0.00  0.00    -0.004 A 
ATOM      9  S   UNL     1      -0.022   1.772   0.012  0.00  0.00    -0.077 S 
ATOM     10  C   UNL     1      -0.882  -1.222   0.007  0.00  0.00    +0.043 C 
ATOM     11  C   UNL     1       0.051  -2.378   0.429  0.00  0.00    +0.010 C 
ATOM     12  C   UNL     1       1.427  -1.853  -0.025  0.00  0.00    +0.037 C 
BRANCH   6  13
ATOM     13  C   UNL     1       3.682   0.606  -0.029  0.00  0.00    +0.244 C 
ATOM     14  O   UNL     1       4.275   0.528  -1.089  0.00  0.00    -0.270 OA
ATOM     15  N   UNL     1       4.360   0.506   1.131  0.00  0.00    -0.325 N 
ATOM     16  H   UNL     1       3.887   0.568   1.976  0.00  0.00    +0.145 HD
ATOM     17  H   UNL     1       5.321   0.373   1.121  0.00  0.00    +0.145 HD
ENDBRANCH   6  13
ENDBRANCH   3   5
BRANCH   1  19
ATOM     18  C   UNL     1       3.133   5.926   1.313  0.00  0.00    +0.062 C 
ATOM     19  C   UNL     1       2.342   5.773   0.013  0.00  0.00    +0.259 C 
BRANCH  19  20
ATOM     20  O   UNL     1       1.369   6.845  -0.090  0.00  0.00    -0.449 OA
BRANCH  20  21
ATOM     21  C   UNL     1       1.767   7.976  -0.706  0.00  0.00    +0.341 C 
ATOM     22  O   UNL     1       2.897   8.063  -1.145  0.00  0.00    -0.245 OA
BRANCH  21  23
ATOM     23  C   UNL     1       0.835   9.104  -0.847  0.00  0.00    +0.069 A 
ATOM     24  C   UNL     1      -0.454   9.028  -0.363  0.00  0.00    +0.060 A 
ATOM     25  S   UNL     1      -1.121  10.575  -0.767  0.00  0.00    -0.100 S 
ATOM     26  C   UNL     1       0.286  11.291  -1.567  0.00  0.00    -0.006 A 
ATOM     27  C   UNL     1       1.239  10.333  -1.505  0.00  0.00    -0.023 A 
ATOM     28  C   UNL     1       2.623  10.565  -2.096  0.00  0.00    +0.037 C 
ATOM     29  C   UNL     1       2.549  11.734  -3.080  0.00  0.00    +0.005 C 
ATOM     30  C   UNL     1       1.902  12.945  -2.403  0.00  0.00    +0.005 C 
ATOM     31  C   UNL     1       0.411  12.651  -2.181  0.00  0.00    +0.043 C 
ENDBRANCH  21  23
ENDBRANCH  20  21
ENDBRANCH  19  20
ENDBRANCH   1  19
TORSDOF 6
