REMARK  Name = ZINC24503125
REMARK  10 active torsions:
REMARK  status: ('A' for Active; 'I' for Inactive)
REMARK    1  A    between atoms: C_1  and  C_2
REMARK    2  A    between atoms: C_2  and  C_4
REMARK    3  A    between atoms: C_2  and  N_31
REMARK    4  A    between atoms: C_7  and  S_16
REMARK    5  A    between atoms: N_8  and  C_9
REMARK    6  A    between atoms: S_16  and  C_17
REMARK    7  A    between atoms: C_17  and  C_19
REMARK    8  A    between atoms: C_17  and  C_20
REMARK    9  A    between atoms: N_31  and  C_32
REMARK   10  A    between atoms: N_31  and  C_33
REMARK                            x       y       z     vdW  Elec       q    Type
REMARK                         _______ _______ _______ _____ _____    ______ ____
ROOT
ATOM      1  C   UNL     1      -1.927   9.963  -0.807  0.00  0.00    +0.125 A 
ATOM      2  N   UNL     1      -0.713   9.724  -0.398  0.00  0.00    -0.135 NA
ATOM      3  N   UNL     1      -0.535   8.460  -0.256  0.00  0.00    -0.122 NA
ATOM      4  C   UNL     1      -1.634   7.815  -0.570  0.00  0.00    +0.197 A 
ATOM      5  N   UNL     1      -2.558   8.754  -0.938  0.00  0.00    -0.275 N 
ENDROOT
BRANCH   5   6
ATOM      6  C   UNL     1      -3.878   8.527  -1.357  0.00  0.00    +0.050 A 
ATOM      7  C   UNL     1      -4.260   8.851  -2.652  0.00  0.00    +0.029 A 
ATOM      8  C   UNL     1      -5.558   8.621  -3.065  0.00  0.00    +0.040 A 
ATOM      9  C   UNL     1      -6.480   8.079  -2.185  0.00  0.00    +0.124 A 
ATOM     10  C   UNL     1      -6.102   7.761  -0.892  0.00  0.00    +0.040 A 
ATOM     11  C   UNL     1      -4.803   7.984  -0.477  0.00  0.00    +0.029 A 
ATOM     12  F   UNL     1      -7.751   7.861  -2.590  0.00  0.00    -0.205 F 
ENDBRANCH   5   6
BRANCH   1  14
ATOM     13  C   UNL     1      -1.974  11.851  -2.415  0.00  0.00    -0.005 C 
ATOM     14  C   UNL     1      -2.525  11.317  -1.091  0.00  0.00    -0.003 C 
BRANCH  14  15
ATOM     15  N   UNL     1      -2.174  12.244  -0.006  0.00  0.00    +0.382 N 
ATOM     16  C   UNL     1      -2.740  13.577  -0.249  0.00  0.00    -0.096 C 
ATOM     17  C   UNL     1      -2.605  11.718   1.296  0.00  0.00    -0.096 C 
ATOM     18  H   UNL     1      -1.078  12.341   0.015  0.00  0.00    -0.082 HD
ENDBRANCH  14  15
ENDBRANCH   1  14
BRANCH   4  19
ATOM     19  S   UNL     1      -1.873   6.069  -0.533  0.00  0.00    -0.073 S 
BRANCH  19  20
ATOM     20  C   UNL     1      -0.237   5.541   0.033  0.00  0.00    +0.137 C 
ATOM     21  C   UNL     1       0.002   6.055   1.454  0.00  0.00    +0.029 C 
BRANCH  20  22
ATOM     22  C   UNL     1      -0.164   4.035   0.024  0.00  0.00    +0.231 C 
ATOM     23  O   UNL     1      -1.184   3.379   0.031  0.00  0.00    -0.274 OA
ATOM     24  N   UNL     1       1.034   3.418   0.010  0.00  0.00    -0.268 N 
ATOM     25  C   UNL     1       1.101   2.025   0.002  0.00  0.00    +0.143 A 
ATOM     26  C   UNL     1       2.341   1.395  -0.013  0.00  0.00    +0.082 A 
ATOM     27  C   UNL     1       2.393   0.011  -0.020  0.00  0.00    +0.045 A 
ATOM     28  C   UNL     1       1.198  -0.697  -0.013  0.00  0.00    +0.061 A 
ATOM     29  C   UNL     1       0.002  -0.004   0.002  0.00  0.00    +0.133 A 
ATOM     30  N   UNL     1      -0.016   1.315   0.009  0.00  0.00    -0.237 NA
ATOM     31 CL   UNL     1       1.206  -2.433  -0.022  0.00  0.00    -0.082 Cl
ATOM     32 CL   UNL     1       3.804   2.330  -0.022  0.00  0.00    -0.080 Cl
ATOM     33  H   UNL     1       1.959   4.013   0.004  0.00  0.00    +0.156 HD
ENDBRANCH  20  22
ENDBRANCH  19  20
ENDBRANCH   4  19
TORSDOF 6
