REMARK  Name = ZINC44877015
REMARK  9 active torsions:
REMARK  status: ('A' for Active; 'I' for Inactive)
REMARK    1  A    between atoms: C_1  and  C_2
REMARK    2  A    between atoms: C_2  and  C_3
REMARK    3  A    between atoms: N_18  and  C_19
REMARK    4  A    between atoms: C_19  and  C_20
REMARK    5  A    between atoms: N_22  and  C_23
REMARK    6  A    between atoms: C_23  and  C_24
REMARK    7  A    between atoms: C_27  and  C_30
REMARK    8  A    between atoms: C_30  and  N_31
REMARK    9  A    between atoms: C_34  and  C_37
REMARK                            x       y       z     vdW  Elec       q    Type
REMARK                         _______ _______ _______ _____ _____    ______ ____
ROOT
ATOM      1  C   UNL     1       1.073  -1.815  -6.581  0.00  0.00    +0.232 C 
ATOM      2  O   UNL     1       1.094  -0.609  -6.462  0.00  0.00    -0.274 OA
ATOM      3  N   UNL     1       0.321  -2.385  -7.544  0.00  0.00    -0.310 N 
ATOM      4  H   UNL     1       0.304  -3.350  -7.639  0.00  0.00    +0.149 HD
ENDROOT
BRANCH   1   5
ATOM      5  C   UNL     1       1.888  -2.678  -5.652  0.00  0.00    +0.227 C 
BRANCH   5  21
ATOM      6  C   UNL     1       0.707  -0.490  -1.238  0.00  0.00    -0.047 A 
ATOM      7  C   UNL     1      -0.014  -0.718  -2.397  0.00  0.00    +0.005 A 
ATOM      8  C   UNL     1       0.628  -1.161  -3.535  0.00  0.00    +0.025 A 
ATOM      9  C   UNL     1       2.001  -1.382  -3.525  0.00  0.00    +0.060 A 
ATOM     10  C   UNL     1       2.733  -1.157  -2.358  0.00  0.00    +0.007 A 
ATOM     11  C   UNL     1       2.069  -0.701  -1.215  0.00  0.00    +0.014 A 
ATOM     12  C   UNL     1       4.196  -1.379  -2.272  0.00  0.00    +0.011 A 
ATOM     13  C   UNL     1       4.809  -1.483  -1.022  0.00  0.00    +0.010 A 
ATOM     14  C   UNL     1       6.171  -1.688  -0.940  0.00  0.00    +0.001 A 
ATOM     15  C   UNL     1       6.936  -1.792  -2.088  0.00  0.00    +0.002 A 
ATOM     16  C   UNL     1       6.335  -1.691  -3.333  0.00  0.00    +0.029 A 
ATOM     17  C   UNL     1       4.978  -1.488  -3.421  0.00  0.00    +0.116 A 
ATOM     18  S   UNL     1       4.182  -1.361  -4.993  0.00  0.00    +0.076 S 
ATOM     19  O   UNL     1       4.761  -2.350  -5.834  0.00  0.00    -0.150 OA
ATOM     20  O   UNL     1       4.152   0.018  -5.335  0.00  0.00    -0.150 OA
ATOM     21  N   UNL     1       2.610  -1.828  -4.704  0.00  0.00    -0.194 N 
BRANCH   6  23
ATOM     22  C   UNL     1      -0.019   1.526   0.010  0.00  0.00    +0.009 C 
ATOM     23  C   UNL     1       0.002  -0.004   0.002  0.00  0.00    +0.032 C 
ENDBRANCH   6  23
ENDBRANCH   5  21
ENDBRANCH   1   5
BRANCH   3  24
ATOM     24  C   UNL     1      -0.471  -1.546  -8.447  0.00  0.00    +0.139 C 
BRANCH  24  25
ATOM     25  C   UNL     1      -1.214  -2.421  -9.423  0.00  0.00    -0.030 A 
ATOM     26  C   UNL     1      -0.628  -2.768 -10.625  0.00  0.00    +0.005 A 
ATOM     27  C   UNL     1      -1.310  -3.571 -11.521  0.00  0.00    +0.002 A 
ATOM     28  C   UNL     1      -2.578  -4.026 -11.213  0.00  0.00    -0.064 A 
ATOM     29  C   UNL     1      -3.164  -3.680 -10.011  0.00  0.00    +0.002 A 
ATOM     30  C   UNL     1      -2.481  -2.881  -9.113  0.00  0.00    +0.005 A 
BRANCH  28  31
ATOM     31  C   UNL     1      -3.322  -4.901 -12.190  0.00  0.00    -0.043 C 
BRANCH  31  32
ATOM     32  N   UNL     1      -3.015  -6.311 -11.916  0.00  0.00    +0.382 N 
ATOM     33  C   UNL     1      -3.528  -6.673 -10.589  0.00  0.00    -0.078 C 
ATOM     34  C   UNL     1      -3.141  -8.118 -10.266  0.00  0.00    -0.016 C 
ATOM     35  C   UNL     1      -3.744  -9.050 -11.320  0.00  0.00    -0.018 C 
ATOM     36  C   UNL     1      -3.261  -8.617 -12.707  0.00  0.00    -0.016 C 
ATOM     37  C   UNL     1      -3.644  -7.154 -12.940  0.00  0.00    -0.078 C 
ATOM     38  C   UNL     1      -3.296 -10.488 -11.047  0.00  0.00    +0.007 C 
ATOM     39  H   UNL     1      -2.016  -6.447 -11.937  0.00  0.00    -0.081 HD
ENDBRANCH  31  32
ENDBRANCH  28  31
ENDBRANCH  24  25
ENDBRANCH   3  24
TORSDOF 7
