REMARK  Name = ZINC39684262
REMARK  8 active torsions:
REMARK  status: ('A' for Active; 'I' for Inactive)
REMARK    1  A    between atoms: C_1  and  C_2
REMARK    2  A    between atoms: C_7  and  C_11
REMARK    3  A    between atoms: C_11  and  C_12
REMARK    4  A    between atoms: C_12  and  N_13
REMARK    5  A    between atoms: C_14  and  C_16
REMARK    6  A    between atoms: C_27  and  C_29
REMARK    7  A    between atoms: C_32  and  C_36
REMARK    8  A    between atoms: N_33  and  C_35
REMARK                            x       y       z     vdW  Elec       q    Type
REMARK                         _______ _______ _______ _____ _____    ______ ____
ROOT
ATOM      1  C   UNL     1      -8.680   1.722  -6.216  0.00  0.00    +0.100 C 
ATOM      2  C   UNL     1      -8.192   2.852  -7.151  0.00  0.00    +0.121 C 
ATOM      3  N   UNL     1      -7.816   2.162  -8.407  0.00  0.00    -0.299 N 
ATOM      4  C   UNL     1      -8.858   1.122  -8.584  0.00  0.00    +0.115 C 
ATOM      5  C   UNL     1      -9.119   0.591  -7.161  0.00  0.00    -0.004 C 
ATOM      6  C   UNL     1     -10.604   0.292  -6.973  0.00  0.00    -0.010 C 
ATOM      7  C   UNL     1     -11.003  -0.876  -7.880  0.00  0.00    -0.082 C 
ATOM      8  N   UNL     1     -10.200  -2.057  -7.543  0.00  0.00    +0.379 N 
ATOM      9  C   UNL     1      -8.782  -1.792  -7.815  0.00  0.00    -0.082 C 
ATOM     10  C   UNL     1      -8.288  -0.663  -6.905  0.00  0.00    -0.010 C 
ATOM     11  C   UNL     1      -6.763   2.421  -9.208  0.00  0.00    +0.238 C 
ATOM     12  O   UNL     1      -6.588   1.763 -10.212  0.00  0.00    -0.273 OA
ATOM     13  H   UNL     1     -10.318  -2.275  -6.565  0.00  0.00    -0.086 HD
ATOM     14  H   UNL     1     -10.507  -2.841  -8.100  0.00  0.00    -0.086 HD
ENDROOT
BRANCH  11  15
ATOM     15  C   UNL     1      -5.804   3.530  -8.858  0.00  0.00    +0.183 C 
ATOM     16  C   UNL     1      -5.104   3.230  -7.550  0.00  0.00    +0.022 C 
ATOM     17  C   UNL     1      -3.816   3.153  -7.816  0.00  0.00    +0.017 C 
ATOM     18  N   UNL     1      -3.557   3.365  -9.156  0.00  0.00    -0.274 N 
ATOM     19  N   UNL     1      -4.713   3.602  -9.850  0.00  0.00    -0.225 NA
ATOM     20  C   UNL     1      -2.221   3.343  -9.755  0.00  0.00    +0.149 C 
ATOM     21  C   UNL     1      -2.755   2.868  -6.785  0.00  0.00    +0.061 C 
ATOM     22  H   UNL     1      -4.690   4.506 -10.297  0.00  0.00    +0.146 HD
ENDBRANCH  11  15
BRANCH   1  24
ATOM     23  N   UNL     1      -7.824   0.812  -4.082  0.00  0.00    -0.315 N 
ATOM     24  C   UNL     1      -7.557   1.256  -5.326  0.00  0.00    +0.218 C 
ATOM     25  O   UNL     1      -6.413   1.282  -5.729  0.00  0.00    -0.275 OA
ATOM     26  H   UNL     1      -8.739   0.791  -3.760  0.00  0.00    +0.149 HD
BRANCH  23  27
ATOM     27  C   UNL     1      -6.732   0.359  -3.216  0.00  0.00    +0.109 C 
BRANCH  27  28
ATOM     28  C   UNL     1      -7.303  -0.091  -1.869  0.00  0.00    +0.056 C 
BRANCH  28  35
ATOM     29  C   UNL     1      -2.527  -0.986   2.095  0.00  0.00    +0.046 C 
ATOM     30  C   UNL     1      -3.502  -0.068   1.403  0.00  0.00    -0.027 A 
ATOM     31  C   UNL     1      -3.469   1.288   1.648  0.00  0.00    +0.005 A 
ATOM     32  C   UNL     1      -4.361   2.143   1.017  0.00  0.00    +0.001 A 
ATOM     33  C   UNL     1      -5.289   1.655   0.141  0.00  0.00    +0.010 A 
ATOM     34  C   UNL     1      -5.340   0.285  -0.122  0.00  0.00    +0.003 A 
ATOM     35  C   UNL     1      -6.179  -0.556  -0.979  0.00  0.00    -0.021 A 
ATOM     36  C   UNL     1      -5.759  -1.821  -0.820  0.00  0.00    +0.087 A 
ATOM     37  N   UNL     1      -4.719  -1.859   0.069  0.00  0.00    -0.360 N 
ATOM     38  C   UNL     1      -4.434  -0.586   0.510  0.00  0.00    +0.050 A 
ATOM     39  H   UNL     1      -4.250  -2.662   0.344  0.00  0.00    +0.165 HD
ENDBRANCH  28  35
ENDBRANCH  27  28
ENDBRANCH  23  27
ENDBRANCH   1  24
TORSDOF 5
