REMARK  Name = ZINC05226227
REMARK  14 active torsions:
REMARK  status: ('A' for Active; 'I' for Inactive)
REMARK    1  A    between atoms: C_1  and  C_2
REMARK    2  A    between atoms: C_7  and  O_8
REMARK    3  A    between atoms: O_8  and  C_9
REMARK    4  A    between atoms: C_9  and  C_11
REMARK    5  A    between atoms: C_9  and  C_12
REMARK    6  A    between atoms: N_14  and  N_15
REMARK    7  A    between atoms: C_16  and  C_17
REMARK    8  A    between atoms: C_20  and  O_23
REMARK    9  A    between atoms: O_23  and  C_24
REMARK   10  A    between atoms: C_26  and  O_39
REMARK   11  A    between atoms: C_28  and  O_38
REMARK   12  A    between atoms: C_30  and  O_37
REMARK   13  A    between atoms: C_32  and  C_35
REMARK   14  A    between atoms: C_35  and  O_36
REMARK                            x       y       z     vdW  Elec       q    Type
REMARK                         _______ _______ _______ _____ _____    ______ ____
ROOT
ATOM      1  C   UNL     1       2.227   7.603   2.725  0.00  0.00    -0.005 A 
ATOM      2  C   UNL     1       0.985   7.769   3.345  0.00  0.00    +0.013 A 
ATOM      3  C   UNL     1       0.745   8.887   4.113  0.00  0.00    +0.046 A 
ATOM      4  C   UNL     1       1.730   9.856   4.261  0.00  0.00    +0.124 A 
ATOM      5  C   UNL     1       2.963   9.698   3.642  0.00  0.00    +0.046 A 
ATOM      6  C   UNL     1       3.215   8.580   2.878  0.00  0.00    +0.013 A 
ENDROOT
BRANCH   1   8
ATOM      7  N   UNL     1       1.572   5.500   1.768  0.00  0.00    -0.188 NA
ATOM      8  C   UNL     1       2.491   6.405   1.908  0.00  0.00    +0.138 C 
BRANCH   7  11
ATOM      9  C   UNL     1       0.869   3.420   0.846  0.00  0.00    +0.273 C 
ATOM     10  O   UNL     1      -0.208   3.560   1.387  0.00  0.00    -0.270 OA
ATOM     11  N   UNL     1       1.823   4.361   0.991  0.00  0.00    -0.204 N 
ATOM     12  H   UNL     1       2.684   4.249   0.559  0.00  0.00    +0.177 HD
BRANCH   9  13
ATOM     13  C   UNL     1       1.139   2.196   0.011  0.00  0.00    +0.257 C 
ATOM     14  C   UNL     1       1.464   2.618  -1.424  0.00  0.00    +0.062 C 
BRANCH  13  15
ATOM     15  O   UNL     1      -0.016   1.355   0.009  0.00  0.00    -0.480 OA
BRANCH  15  22
ATOM     16  C   UNL     1      -2.252  -0.357   0.224  0.00  0.00    +0.047 C 
ATOM     17  C   UNL     1      -0.877  -0.858  -0.135  0.00  0.00    -0.007 A 
ATOM     18  C   UNL     1      -0.672  -2.203  -0.373  0.00  0.00    +0.027 A 
ATOM     19  C   UNL     1       0.590  -2.664  -0.703  0.00  0.00    +0.041 A 
ATOM     20  C   UNL     1       1.650  -1.778  -0.793  0.00  0.00    +0.023 A 
ATOM     21  C   UNL     1       1.448  -0.432  -0.560  0.00  0.00    +0.047 A 
ATOM     22  C   UNL     1       0.184   0.031  -0.225  0.00  0.00    +0.125 A 
ATOM     23 CL   UNL     1       0.846  -4.354  -1.003  0.00  0.00    -0.084 Cl
ENDBRANCH  15  22
ENDBRANCH  13  15
ENDBRANCH   9  13
ENDBRANCH   7  11
ENDBRANCH   1   8
BRANCH   4  24
ATOM     24  O   UNL     1       1.486  10.960   5.014  0.00  0.00    -0.461 OA
BRANCH  24  25
ATOM     25  C   UNL     1       0.196  11.059   5.622  0.00  0.00    +0.339 C 
ATOM     26  C   UNL     1       0.150  12.295   6.524  0.00  0.00    +0.214 C 
ATOM     27  C   UNL     1      -1.252  12.428   7.124  0.00  0.00    +0.180 C 
ATOM     28  C   UNL     1      -2.278  12.498   5.988  0.00  0.00    +0.177 C 
ATOM     29  C   UNL     1      -2.138  11.253   5.108  0.00  0.00    +0.179 C 
ATOM     30  O   UNL     1      -0.802  11.174   4.607  0.00  0.00    -0.331 OA
BRANCH  28  31
ATOM     31  O   UNL     1      -3.596  12.549   6.537  0.00  0.00    -0.386 OA
ATOM     32  H   UNL     1      -3.756  13.314   7.107  0.00  0.00    +0.210 HD
ENDBRANCH  28  31
BRANCH  27  33
ATOM     33  O   UNL     1      -1.326  13.620   7.908  0.00  0.00    -0.386 OA
ATOM     34  H   UNL     1      -0.702  13.644   8.647  0.00  0.00    +0.210 HD
ENDBRANCH  27  33
BRANCH  26  35
ATOM     35  O   UNL     1       1.109  12.156   7.575  0.00  0.00    -0.383 OA
ATOM     36  H   UNL     1       2.020  12.062   7.266  0.00  0.00    +0.210 HD
ENDBRANCH  26  35
BRANCH  29  37
ATOM     37  C   UNL     1      -3.118  11.344   3.937  0.00  0.00    +0.190 C 
BRANCH  37  38
ATOM     38  O   UNL     1      -3.070  10.133   3.180  0.00  0.00    -0.392 OA
ATOM     39  H   UNL     1      -3.667  10.120   2.420  0.00  0.00    +0.210 HD
ENDBRANCH  37  38
ENDBRANCH  29  37
ENDBRANCH  24  25
ENDBRANCH   4  24
TORSDOF 12
