REMARK  Name = ZINC59423821
REMARK  11 active torsions:
REMARK  status: ('A' for Active; 'I' for Inactive)
REMARK    1  A    between atoms: C_1  and  C_2
REMARK    2  A    between atoms: C_3  and  C_31
REMARK    3  A    between atoms: C_4  and  C_30
REMARK    4  A    between atoms: C_5  and  S_10
REMARK    5  A    between atoms: C_6  and  C_9
REMARK    6  A    between atoms: C_7  and  C_8
REMARK    7  A    between atoms: S_10  and  N_13
REMARK    8  A    between atoms: N_13  and  C_14
REMARK    9  A    between atoms: C_16  and  N_21
REMARK   10  A    between atoms: C_22  and  C_24
REMARK   11  A    between atoms: C_28  and  C_29
REMARK                            x       y       z     vdW  Elec       q    Type
REMARK                         _______ _______ _______ _____ _____    ______ ____
ROOT
ATOM      1  C   UNL     1      -0.411  -6.114   2.113  0.00  0.00    +0.068 A 
ATOM      2  C   UNL     1      -1.441  -6.007   3.037  0.00  0.00    +0.049 A 
ATOM      3  C   UNL     1      -1.181  -6.193   4.387  0.00  0.00    +0.036 A 
ATOM      4  C   UNL     1       0.110  -6.486   4.811  0.00  0.00    +0.025 A 
ATOM      5  C   UNL     1       1.134  -6.591   3.889  0.00  0.00    +0.024 A 
ATOM      6  C   UNL     1       0.877  -6.412   2.543  0.00  0.00    +0.063 A 
ATOM      7 CL   UNL     1       2.166  -6.553   1.388  0.00  0.00    -0.082 Cl
ENDROOT
BRANCH   3   8
ATOM      8  N   UNL     1      -2.216  -6.085   5.321  0.00  0.00    -0.281 N 
ATOM      9  C   UNL     1      -1.963  -5.613   6.558  0.00  0.00    +0.253 C 
ATOM     10  O   UNL     1      -0.848  -5.218   6.841  0.00  0.00    -0.270 OA
ATOM     11  H   UNL     1      -3.118  -6.351   5.079  0.00  0.00    +0.155 HD
BRANCH   9  12
ATOM     12  C   UNL     1      -3.036  -5.575   7.567  0.00  0.00    +0.098 A 
ATOM     13  C   UNL     1      -4.420  -6.016   7.386  0.00  0.00    +0.170 A 
ATOM     14  N   UNL     1      -5.037  -5.814   8.512  0.00  0.00    -0.086 NA
ATOM     15  O   UNL     1      -4.124  -5.257   9.436  0.00  0.00    -0.359 OA
ATOM     16  C   UNL     1      -2.929  -5.127   8.852  0.00  0.00    +0.146 A 
ATOM     17  C   UNL     1      -1.683  -4.578   9.498  0.00  0.00    +0.090 C 
ENDBRANCH   9  12
ENDBRANCH   3   8
BRANCH   1  18
ATOM     18  N   UNL     1      -0.669  -5.927   0.752  0.00  0.00    -0.215 N 
ATOM     19  H   UNL     1      -0.213  -6.473   0.093  0.00  0.00    +0.174 HD
BRANCH  18  20
ATOM     20  S   UNL     1      -1.755  -4.775   0.266  0.00  0.00    +0.073 S 
ATOM     21  O   UNL     1      -2.908  -4.934   1.081  0.00  0.00    -0.150 OA
ATOM     22  O   UNL     1      -1.810  -4.843  -1.153  0.00  0.00    -0.150 OA
BRANCH  20  27
ATOM     23  C   UNL     1       0.612   0.600   1.649  0.00  0.00    +0.044 C 
ATOM     24  C   UNL     1       0.021  -0.743   1.304  0.00  0.00    -0.044 A 
ATOM     25  C   UNL     1      -0.982  -1.280   2.090  0.00  0.00    -0.043 A 
ATOM     26  C   UNL     1      -1.524  -2.511   1.773  0.00  0.00    -0.020 A 
ATOM     27  C   UNL     1      -1.064  -3.205   0.669  0.00  0.00    +0.115 A 
ATOM     28  C   UNL     1      -0.063  -2.668  -0.117  0.00  0.00    -0.020 A 
ATOM     29  C   UNL     1       0.476  -1.435   0.197  0.00  0.00    -0.043 A 
ATOM     30  C   UNL     1       1.565  -0.847  -0.663  0.00  0.00    +0.044 C 
ATOM     31  C   UNL     1       0.439  -3.425  -1.320  0.00  0.00    +0.046 C 
ATOM     32  C   UNL     1      -2.616  -3.097   2.631  0.00  0.00    +0.046 C 
ATOM     33  C   UNL     1      -1.483  -0.523   3.293  0.00  0.00    +0.044 C 
ENDBRANCH  20  27
ENDBRANCH  18  20
ENDBRANCH   1  18
TORSDOF 5
