REMARK  Name = ZINC39936334
REMARK  8 active torsions:
REMARK  status: ('A' for Active; 'I' for Inactive)
REMARK    1  A    between atoms: C_1  and  C_2
REMARK    2  A    between atoms: C_4  and  C_38
REMARK    3  A    between atoms: C_5  and  C_36
REMARK    4  A    between atoms: C_6  and  N_15
REMARK    5  A    between atoms: N_8  and  C_9
REMARK    6  A    between atoms: C_16  and  C_18
REMARK    7  A    between atoms: C_18  and  N_19
REMARK    8  A    between atoms: C_22  and  N_25
REMARK                            x       y       z     vdW  Elec       q    Type
REMARK                         _______ _______ _______ _____ _____    ______ ____
ROOT
ATOM      1  N   UNL     1       2.378  -2.038   1.321  0.00  0.00    -0.297 N 
ATOM      2  C   UNL     1       2.328  -2.977   2.287  0.00  0.00    +0.198 C 
ATOM      3  O   UNL     1       1.301  -3.590   2.485  0.00  0.00    -0.278 OA
ATOM      4  H   UNL     1       3.218  -1.599   1.114  0.00  0.00    +0.150 HD
ENDROOT
BRANCH   1   9
ATOM      5  C   UNL     1       0.417   1.708  -0.428  0.00  0.00    +0.029 C 
ATOM      6  C   UNL     1       0.152   0.205  -0.311  0.00  0.00    +0.083 C 
ATOM      7  C   UNL     1       0.871  -0.539  -1.413  0.00  0.00    -0.039 C 
ATOM      8  C   UNL     1       1.451  -1.622  -0.899  0.00  0.00    +0.065 C 
ATOM      9  C   UNL     1       1.164  -1.682   0.583  0.00  0.00    +0.186 C 
ATOM     10  N   UNL     1       0.716  -0.318   0.955  0.00  0.00    -0.271 NA
ATOM     11  C   UNL     1       0.922  -0.123  -2.860  0.00  0.00    +0.042 C 
BRANCH  10  12
ATOM     12  C   UNL     1      -0.309  -0.367   2.007  0.00  0.00    +0.059 C 
ATOM     13  C   UNL     1      -1.036   0.978   2.073  0.00  0.00    +0.019 C 
ATOM     14  C   UNL     1      -2.103   0.927   3.168  0.00  0.00    +0.002 C 
ATOM     15  C   UNL     1      -1.438   0.641   4.516  0.00  0.00    +0.000 C 
ATOM     16  C   UNL     1      -0.710  -0.704   4.450  0.00  0.00    +0.002 C 
ATOM     17  C   UNL     1       0.357  -0.653   3.355  0.00  0.00    +0.019 C 
ENDBRANCH  10  12
BRANCH   8  18
ATOM     18  C   UNL     1       2.224  -2.577  -1.635  0.00  0.00    +0.098 C 
ATOM     19  N   UNL     1       2.837  -3.335  -2.218  0.00  0.00    -0.191 NA
ENDBRANCH   8  18
ENDBRANCH   1   9
BRANCH   2  20
ATOM     20  C   UNL     1       3.550  -3.264   3.122  0.00  0.00    +0.019 C 
BRANCH  20  21
ATOM     21  N   UNL     1       3.239  -4.319   4.097  0.00  0.00    +0.386 N 
ATOM     22  C   UNL     1       2.222  -3.831   5.036  0.00  0.00    -0.076 C 
ATOM     23  C   UNL     1       1.837  -4.952   6.004  0.00  0.00    +0.006 C 
ATOM     24  C   UNL     1       3.079  -5.398   6.780  0.00  0.00    +0.089 C 
ATOM     25  C   UNL     1       4.160  -5.835   5.787  0.00  0.00    +0.006 C 
ATOM     26  C   UNL     1       4.459  -4.681   4.828  0.00  0.00    -0.076 C 
ATOM     27  H   UNL     1       2.885  -5.130   3.612  0.00  0.00    -0.081 HD
BRANCH  24  28
ATOM     28  N   UNL     1       2.732  -6.523   7.653  0.00  0.00    -0.289 N 
ATOM     29  C   UNL     1       2.845  -6.541   9.042  0.00  0.00    +0.070 A 
ATOM     30  C   UNL     1       3.273  -5.609   9.974  0.00  0.00    +0.028 A 
ATOM     31  C   UNL     1       3.269  -5.928  11.318  0.00  0.00    +0.002 A 
ATOM     32  C   UNL     1       2.838  -7.175  11.737  0.00  0.00    +0.002 A 
ATOM     33  C   UNL     1       2.410  -8.111  10.816  0.00  0.00    +0.028 A 
ATOM     34  C   UNL     1       2.410  -7.799   9.465  0.00  0.00    +0.067 A 
ATOM     35  N   UNL     1       2.047  -8.505   8.321  0.00  0.00    -0.306 N 
ATOM     36  H   UNL     1       1.705  -9.413   8.298  0.00  0.00    +0.170 HD
ATOM     37  C   UNL     1       2.246  -7.712   7.251  0.00  0.00    +0.328 A 
ATOM     38  O   UNL     1       2.024  -8.024   6.096  0.00  0.00    -0.247 OA
ENDBRANCH  24  28
ENDBRANCH  20  21
ENDBRANCH   2  20
TORSDOF 6
