REMARK  Name = ZINC16532031
REMARK  17 active torsions:
REMARK  status: ('A' for Active; 'I' for Inactive)
REMARK    1  A    between atoms: C_1  and  C_2
REMARK    2  A    between atoms: C_2  and  N_73
REMARK    3  A    between atoms: C_3  and  C_4
REMARK    4  A    between atoms: C_3  and  N_73
REMARK    5  A    between atoms: C_5  and  C_6
REMARK    6  A    between atoms: C_5  and  N_73
REMARK    7  A    between atoms: C_6  and  C_7
REMARK    8  A    between atoms: C_7  and  C_8
REMARK    9  A    between atoms: C_8  and  C_10
REMARK   10  A    between atoms: C_8  and  N_11
REMARK   11  A    between atoms: C_12  and  C_14
REMARK   12  A    between atoms: C_16  and  C_27
REMARK   13  A    between atoms: N_17  and  C_20
REMARK   14  A    between atoms: C_18  and  C_19
REMARK   15  A    between atoms: C_23  and  C_26
REMARK   16  A    between atoms: C_30  and  O_33
REMARK   17  A    between atoms: O_33  and  C_34
REMARK                            x       y       z     vdW  Elec       q    Type
REMARK                         _______ _______ _______ _____ _____    ______ ____
ROOT
ATOM      1  C   UNL     1      -3.258   2.853   0.490  0.00  0.00    +0.058 A 
ATOM      2  C   UNL     1      -2.871   3.597  -0.655  0.00  0.00    +0.041 A 
ATOM      3  C   UNL     1      -1.784   2.981  -1.186  0.00  0.00    +0.055 A 
ATOM      4  N   UNL     1      -1.490   1.878  -0.419  0.00  0.00    -0.312 N 
ATOM      5  C   UNL     1      -2.379   1.798   0.602  0.00  0.00    +0.033 A 
ATOM      6  C   UNL     1      -2.401   0.737   1.673  0.00  0.00    +0.064 C 
ENDROOT
BRANCH   4   7
ATOM      7  C   UNL     1      -0.436   0.984  -0.652  0.00  0.00    +0.047 A 
ATOM      8  C   UNL     1       0.878   1.402  -0.493  0.00  0.00    +0.026 A 
ATOM      9  C   UNL     1       1.915   0.520  -0.729  0.00  0.00    +0.005 A 
ATOM     10  C   UNL     1       1.645  -0.778  -1.122  0.00  0.00    -0.050 A 
ATOM     11  C   UNL     1       0.336  -1.197  -1.281  0.00  0.00    +0.005 A 
ATOM     12  C   UNL     1      -0.705  -0.320  -1.047  0.00  0.00    +0.026 A 
ATOM     13  C   UNL     1       2.778  -1.737  -1.378  0.00  0.00    +0.044 C 
ENDBRANCH   4   7
BRANCH   3  14
ATOM     14  C   UNL     1      -1.044   3.419  -2.389  0.00  0.00    -0.001 A 
ATOM     15  C   UNL     1      -1.141   4.741  -2.827  0.00  0.00    +0.013 A 
ATOM     16  C   UNL     1      -0.446   5.146  -3.947  0.00  0.00    +0.046 A 
ATOM     17  C   UNL     1       0.341   4.240  -4.644  0.00  0.00    +0.120 A 
ATOM     18  C   UNL     1       0.436   2.923  -4.214  0.00  0.00    +0.046 A 
ATOM     19  C   UNL     1      -0.252   2.511  -3.093  0.00  0.00    +0.013 A 
BRANCH  17  20
ATOM     20  O   UNL     1       1.020   4.642  -5.750  0.00  0.00    -0.495 OA
ATOM     21  C   UNL     1       0.878   6.011  -6.137  0.00  0.00    +0.277 C 
ENDBRANCH  17  20
ENDBRANCH   3  14
BRANCH   1  23
ATOM     22  N   UNL     1      -5.167   4.225   1.155  0.00  0.00    -0.309 N 
ATOM     23  C   UNL     1      -4.386   3.152   1.389  0.00  0.00    +0.246 C 
ATOM     24  O   UNL     1      -4.613   2.430   2.341  0.00  0.00    -0.270 OA
ATOM     25  H   UNL     1      -4.987   4.801   0.396  0.00  0.00    +0.149 HD
BRANCH  22  26
ATOM     26  C   UNL     1      -6.290   4.522   2.049  0.00  0.00    +0.070 C 
ATOM     27  C   UNL     1      -7.516   3.719   1.612  0.00  0.00    +0.028 C 
BRANCH  26  28
ATOM     28  C   UNL     1      -6.610   6.017   1.985  0.00  0.00    +0.020 C 
BRANCH  28  29
ATOM     29  C   UNL     1      -5.429   6.816   2.539  0.00  0.00    -0.017 C 
BRANCH  29  30
ATOM     30  C   UNL     1      -5.750   8.311   2.475  0.00  0.00    -0.079 C 
BRANCH  30  31
ATOM     31  N   UNL     1      -4.609   9.068   3.033  0.00  0.00    +0.379 N 
ATOM     32  H   UNL     1      -4.374   8.684   3.956  0.00  0.00    -0.082 HD
BRANCH  31  34
ATOM     33  C   UNL     1      -3.727   9.549   0.774  0.00  0.00    -0.017 C 
ATOM     34  C   UNL     1      -3.434   8.937   2.145  0.00  0.00    -0.082 C 
ENDBRANCH  31  34
BRANCH  31  35
ATOM     35  C   UNL     1      -4.973  10.492   3.183  0.00  0.00    -0.082 C 
ATOM     36  C   UNL     1      -3.932  11.175   4.072  0.00  0.00    -0.017 C 
ENDBRANCH  31  35
ENDBRANCH  30  31
ENDBRANCH  29  30
ENDBRANCH  28  29
ENDBRANCH  26  28
ENDBRANCH  22  26
ENDBRANCH   1  23
TORSDOF 11
