REMARK  Name = ZINC03339534
REMARK  10 active torsions:
REMARK  status: ('A' for Active; 'I' for Inactive)
REMARK    1  A    between atoms: C_1  and  C_2
REMARK    2  A    between atoms: C_2  and  C_4
REMARK    3  A    between atoms: C_2  and  N_46
REMARK    4  A    between atoms: N_6  and  C_7
REMARK    5  A    between atoms: C_10  and  S_13
REMARK    6  A    between atoms: S_13  and  N_16
REMARK    7  A    between atoms: C_17  and  C_18
REMARK    8  A    between atoms: C_17  and  N_46
REMARK    9  A    between atoms: C_21  and  S_24
REMARK   10  A    between atoms: S_24  and  N_27
REMARK                            x       y       z     vdW  Elec       q    Type
REMARK                         _______ _______ _______ _____ _____    ______ ____
ROOT
ATOM      1  C   UNL     1      -0.179  -4.673  -1.319  0.00  0.00    -0.004 C 
ATOM      2  C   UNL     1       1.248  -4.137  -1.452  0.00  0.00    +0.014 C 
ENDROOT
BRANCH   2   3
ATOM      3  C   UNL     1       1.834  -4.590  -2.765  0.00  0.00    +0.203 C 
ATOM      4  O   UNL     1       2.197  -3.770  -3.582  0.00  0.00    -0.277 OA
ATOM      5  N   UNL     1       1.955  -5.905  -3.030  0.00  0.00    -0.287 N 
ATOM      6  H   UNL     1       1.728  -6.560  -2.352  0.00  0.00    +0.155 HD
BRANCH   5   7
ATOM      7  C   UNL     1       2.409  -6.327  -4.285  0.00  0.00    +0.033 A 
ATOM      8  C   UNL     1       1.905  -7.490  -4.852  0.00  0.00    +0.025 A 
ATOM      9  C   UNL     1       2.351  -7.901  -6.093  0.00  0.00    +0.030 A 
ATOM     10  C   UNL     1       3.306  -7.161  -6.766  0.00  0.00    +0.105 A 
ATOM     11  C   UNL     1       3.813  -6.005  -6.202  0.00  0.00    +0.030 A 
ATOM     12  C   UNL     1       3.367  -5.586  -4.964  0.00  0.00    +0.025 A 
BRANCH  10  13
ATOM     13  S   UNL     1       3.876  -7.691  -8.347  0.00  0.00    +0.056 S 
ATOM     14  O   UNL     1       2.850  -8.506  -8.896  0.00  0.00    -0.153 OA
ATOM     15  O   UNL     1       4.369  -6.535  -9.010  0.00  0.00    -0.153 OA
BRANCH  13  16
ATOM     16  N   UNL     1       5.179  -8.680  -8.090  0.00  0.00    -0.204 NA
ATOM     17  H   UNL     1       5.481  -8.861  -7.186  0.00  0.00    +0.144 HD
ATOM     18  H   UNL     1       5.641  -9.080  -8.844  0.00  0.00    +0.144 HD
ENDBRANCH  13  16
ENDBRANCH  10  13
ENDBRANCH   5   7
ENDBRANCH   2   3
BRANCH   2  19
ATOM     19  N   UNL     1       1.224  -2.662  -1.416  0.00  0.00    +0.389 N 
ATOM     20  H   UNL     1       0.372  -2.325  -1.880  0.00  0.00    -0.084 HD
ATOM     21  H   UNL     1       2.049  -2.298  -1.907  0.00  0.00    -0.084 HD
BRANCH  19  22
ATOM     22  C   UNL     1       1.239  -2.184  -0.020  0.00  0.00    -0.046 C 
BRANCH  22  23
ATOM     23  C   UNL     1       1.215  -0.678  -0.014  0.00  0.00    -0.064 A 
ATOM     24  C   UNL     1       0.007  -0.006   0.009  0.00  0.00    +0.003 A 
ATOM     25  C   UNL     1      -0.015   1.376   0.015  0.00  0.00    +0.029 A 
ATOM     26  C   UNL     1       1.170   2.087  -0.001  0.00  0.00    +0.105 A 
ATOM     27  C   UNL     1       2.378   1.415  -0.025  0.00  0.00    +0.029 A 
ATOM     28  C   UNL     1       2.401   0.033  -0.031  0.00  0.00    +0.003 A 
BRANCH  26  29
ATOM     29  S   UNL     1       1.142   3.848   0.006  0.00  0.00    +0.056 S 
ATOM     30  O   UNL     1       2.371   4.277  -0.563  0.00  0.00    -0.153 OA
ATOM     31  O   UNL     1      -0.119   4.237  -0.523  0.00  0.00    -0.153 OA
BRANCH  29  32
ATOM     32  N   UNL     1       1.159   4.332   1.590  0.00  0.00    -0.204 NA
ATOM     33  H   UNL     1       1.181   3.670   2.299  0.00  0.00    +0.144 HD
ATOM     34  H   UNL     1       1.147   5.277   1.809  0.00  0.00    +0.144 HD
ENDBRANCH  29  32
ENDBRANCH  26  29
ENDBRANCH  22  23
ENDBRANCH  19  22
ENDBRANCH   2  19
TORSDOF 9
