REMARK  Name = ZINC42484233
REMARK  8 active torsions:
REMARK  status: ('A' for Active; 'I' for Inactive)
REMARK    1  A    between atoms: C_1  and  C_2
REMARK    2  A    between atoms: C_2  and  C_4
REMARK    3  A    between atoms: C_2  and  N_16
REMARK    4  A    between atoms: C_6  and  C_10
REMARK    5  A    between atoms: N_16  and  C_17
REMARK    6  A    between atoms: N_16  and  C_18
REMARK    7  A    between atoms: N_24  and  C_27
REMARK    8  A    between atoms: C_27  and  C_28
REMARK                            x       y       z     vdW  Elec       q    Type
REMARK                         _______ _______ _______ _____ _____    ______ ____
ROOT
ATOM      1  C   UNL     1       0.653  -2.080   1.804  0.00  0.00    -0.066 C 
ATOM      2  C   UNL     1       1.460  -3.029   2.671  0.00  0.00    -0.006 C 
ATOM      3  C   UNL     1       0.995  -4.473   2.471  0.00  0.00    +0.094 C 
ATOM      4  C   UNL     1       1.712  -5.047   1.267  0.00  0.00    +0.216 C 
ATOM      5  O   UNL     1       2.572  -5.888   1.419  0.00  0.00    -0.276 OA
ATOM      6  N   UNL     1       1.400  -4.629   0.039  0.00  0.00    -0.297 N 
ATOM      7  C   UNL     1       0.354  -3.613  -0.160  0.00  0.00    +0.106 C 
ATOM      8  C   UNL     1       0.890  -2.262   0.316  0.00  0.00    +0.004 C 
ENDROOT
BRANCH   1   9
ATOM      9  N   UNL     1       1.002  -0.700   2.169  0.00  0.00    +0.385 N 
ATOM     10  C   UNL     1       2.446  -0.497   1.991  0.00  0.00    -0.095 C 
ATOM     11  H   UNL     1       0.497  -0.058   1.577  0.00  0.00    -0.081 HD
BRANCH   9  13
ATOM     12  C   UNL     1       0.905   1.007   3.922  0.00  0.00    -0.007 C 
ATOM     13  C   UNL     1       0.643  -0.459   3.573  0.00  0.00    -0.020 C 
BRANCH  13  14
ATOM     14  C   UNL     1      -0.817  -0.771   3.778  0.00  0.00    +0.050 A 
ATOM     15  C   UNL     1      -1.406  -1.156   4.983  0.00  0.00    +0.051 A 
ATOM     16  C   UNL     1      -2.740  -1.345   4.756  0.00  0.00    +0.066 A 
ATOM     17  N   UNL     1      -2.968  -1.082   3.438  0.00  0.00    -0.277 N 
ATOM     18  H   UNL     1      -3.825  -1.132   2.985  0.00  0.00    +0.189 HD
ATOM     19  N   UNL     1      -1.746  -0.721   2.857  0.00  0.00    -0.180 NA
BRANCH  16  20
ATOM     20  C   UNL     1      -3.749  -1.759   5.755  0.00  0.00    -0.000 A 
ATOM     21  C   UNL     1      -3.371  -1.991   7.078  0.00  0.00    +0.010 A 
ATOM     22  C   UNL     1      -4.317  -2.377   8.005  0.00  0.00    +0.001 A 
ATOM     23  C   UNL     1      -5.638  -2.534   7.626  0.00  0.00    +0.000 A 
ATOM     24  C   UNL     1      -6.019  -2.307   6.315  0.00  0.00    +0.001 A 
ATOM     25  C   UNL     1      -5.084  -1.914   5.380  0.00  0.00    +0.010 A 
ENDBRANCH  16  20
ENDBRANCH  13  14
ENDBRANCH   9  13
ENDBRANCH   1   9
BRANCH   6  26
ATOM     26  C   UNL     1       2.105  -5.184  -1.119  0.00  0.00    +0.144 C 
BRANCH  26  27
ATOM     27  C   UNL     1       3.395  -4.434  -1.330  0.00  0.00    -0.008 A 
ATOM     28  C   UNL     1       4.580  -4.947  -0.838  0.00  0.00    +0.056 A 
ATOM     29  C   UNL     1       5.767  -4.259  -1.030  0.00  0.00    +0.167 A 
ATOM     30  C   UNL     1       5.763  -3.050  -1.721  0.00  0.00    +0.168 A 
ATOM     31  C   UNL     1       4.572  -2.541  -2.213  0.00  0.00    +0.070 A 
ATOM     32  C   UNL     1       3.391  -3.235  -2.021  0.00  0.00    +0.049 A 
ATOM     33 CL   UNL     1       1.900  -2.599  -2.643  0.00  0.00    -0.083 Cl
ATOM     34  O   UNL     1       7.041  -2.575  -1.777  0.00  0.00    -0.453 OA
ATOM     35  C   UNL     1       7.764  -3.297  -0.763  0.00  0.00    +0.466 C 
ATOM     36  O   UNL     1       7.048  -4.542  -0.653  0.00  0.00    -0.453 OA
ENDBRANCH  26  27
ENDBRANCH   6  26
TORSDOF 6
