REMARK  Name = ZINC13062474
REMARK  5 active torsions:
REMARK  status: ('A' for Active; 'I' for Inactive)
REMARK    1  A    between atoms: C_4  and  C_7
REMARK    2  A    between atoms: C_16  and  S_18
REMARK    3  A    between atoms: S_18  and  C_19
REMARK    4  A    between atoms: C_19  and  C_20
REMARK    5  A    between atoms: C_25  and  C_26
REMARK                            x       y       z     vdW  Elec       q    Type
REMARK                         _______ _______ _______ _____ _____    ______ ____
ROOT
ATOM      1  C   UNL     1       5.869   2.710  -0.039  0.00  0.00    +0.004 A 
ATOM      2  C   UNL     1       6.570   1.552  -0.051  0.00  0.00    +0.056 A 
ATOM      3  S   UNL     1       5.302   0.300  -0.046  0.00  0.00    -0.076 S 
ATOM      4  C   UNL     1       3.871   1.350  -0.028  0.00  0.00    +0.117 A 
ATOM      5  C   UNL     1       4.411   2.648  -0.026  0.00  0.00    +0.080 A 
ATOM      6  C   UNL     1       3.462   3.716  -0.011  0.00  0.00    +0.261 A 
ATOM      7  O   UNL     1       3.839   4.876  -0.008  0.00  0.00    -0.267 OA
ATOM      8  N   UNL     1       2.148   3.427   0.000  0.00  0.00    -0.301 N 
ATOM      9  H   UNL     1       1.502   4.150   0.010  0.00  0.00    +0.171 HD
ATOM     10  C   UNL     1       1.708   2.135  -0.003  0.00  0.00    +0.170 A 
ATOM     11  N   UNL     1       2.562   1.131  -0.011  0.00  0.00    -0.216 NA
ENDROOT
BRANCH   1  15
ATOM     12  C   UNL     1       7.876   6.457  -0.039  0.00  0.00    +0.000 A 
ATOM     13  C   UNL     1       8.239   5.481   0.872  0.00  0.00    +0.001 A 
ATOM     14  C   UNL     1       7.591   4.263   0.877  0.00  0.00    +0.008 A 
ATOM     15  C   UNL     1       6.569   4.016  -0.039  0.00  0.00    -0.017 A 
ATOM     16  C   UNL     1       6.212   5.002  -0.959  0.00  0.00    +0.008 A 
ATOM     17  C   UNL     1       6.862   6.218  -0.950  0.00  0.00    +0.001 A 
ENDBRANCH   1  15
BRANCH  10  18
ATOM     18  S   UNL     1      -0.022   1.806   0.012  0.00  0.00    -0.083 S 
BRANCH  18  19
ATOM     19  C   UNL     1       0.002  -0.004   0.002  0.00  0.00    +0.113 C 
BRANCH  19  20
ATOM     20  C   UNL     1      -1.412  -0.526   0.013  0.00  0.00    -0.026 A 
ATOM     21  C   UNL     1      -2.047  -0.777   1.215  0.00  0.00    +0.005 A 
ATOM     22  C   UNL     1      -3.345  -1.251   1.225  0.00  0.00    +0.000 A 
ATOM     23  C   UNL     1      -4.005  -1.483   0.032  0.00  0.00    +0.001 A 
ATOM     24  C   UNL     1      -3.368  -1.237  -1.169  0.00  0.00    +0.012 A 
ATOM     25  C   UNL     1      -2.071  -0.758  -1.179  0.00  0.00    +0.059 A 
BRANCH  25  26
ATOM     26  C   UNL     1      -1.377  -0.491  -2.490  0.00  0.00    +0.418 C 
ATOM     27  F   UNL     1      -2.240  -0.800  -3.546  0.00  0.00    -0.166 F 
ATOM     28  F   UNL     1      -1.018   0.860  -2.560  0.00  0.00    -0.166 F 
ATOM     29  F   UNL     1      -0.228  -1.284  -2.579  0.00  0.00    -0.166 F 
ENDBRANCH  25  26
ENDBRANCH  19  20
ENDBRANCH  18  19
ENDBRANCH  10  18
TORSDOF 5
