REMARK  Name = ZINC06161648
REMARK  6 active torsions:
REMARK  status: ('A' for Active; 'I' for Inactive)
REMARK    1  A    between atoms: C_4  and  C_7
REMARK    2  A    between atoms: C_7  and  N_65
REMARK    3  A    between atoms: C_10  and  N_13
REMARK    4  A    between atoms: N_13  and  S_14
REMARK    5  A    between atoms: S_14  and  C_17
REMARK    6  A    between atoms: C_20  and  N_24
REMARK                            x       y       z     vdW  Elec       q    Type
REMARK                         _______ _______ _______ _____ _____    ______ ____
ROOT
ATOM      1  S   UNL     1       2.787  -6.156  -0.061  0.00  0.00    +0.059 S 
ATOM      2  O   UNL     1       2.370  -6.697   1.185  0.00  0.00    -0.153 OA
ATOM      3  O   UNL     1       2.346  -6.681  -1.305  0.00  0.00    -0.153 OA
ENDROOT
BRANCH   1   4
ATOM      4  C   UNL     1       2.339  -4.452  -0.046  0.00  0.00    +0.107 A 
ATOM      5  C   UNL     1       2.152  -3.777  -1.238  0.00  0.00    +0.030 A 
ATOM      6  C   UNL     1       1.800  -2.442  -1.230  0.00  0.00    +0.027 A 
ATOM      7  C   UNL     1       1.635  -1.776  -0.024  0.00  0.00    +0.062 A 
ATOM      8  C   UNL     1       1.829  -2.455   1.173  0.00  0.00    +0.065 A 
ATOM      9  C   UNL     1       2.175  -3.793   1.158  0.00  0.00    +0.050 A 
ATOM     10 CL   UNL     1       1.631  -1.625   2.685  0.00  0.00    -0.082 Cl
BRANCH   7  11
ATOM     11  N   UNL     1       1.278  -0.420  -0.012  0.00  0.00    -0.209 N 
ATOM     12  C   UNL     1       2.183   0.569  -0.016  0.00  0.00    +0.227 C 
ATOM     13  O   UNL     1       3.386   0.421  -0.029  0.00  0.00    -0.275 OA
ATOM     14  C   UNL     1       1.462   1.902  -0.002  0.00  0.00    +0.113 C 
ATOM     15  C   UNL     1      -0.018   1.500   0.010  0.00  0.00    +0.056 C 
ATOM     16  C   UNL     1       0.002  -0.004   0.002  0.00  0.00    +0.233 C 
ATOM     17  O   UNL     1      -0.974  -0.723   0.008  0.00  0.00    -0.274 OA
ATOM     18  C   UNL     1      -0.723   2.042   1.261  0.00  0.00    +0.016 C 
ATOM     19  C   UNL     1      -1.434   3.327   0.762  0.00  0.00    +0.001 C 
ATOM     20  C   UNL     1      -1.902   2.933  -0.661  0.00  0.00    +0.001 C 
ATOM     21  C   UNL     1      -0.752   2.059  -1.210  0.00  0.00    +0.016 C 
ENDBRANCH   7  11
ENDBRANCH   1   4
BRANCH   1  22
ATOM     22  N   UNL     1       4.442  -6.227  -0.077  0.00  0.00    -0.187 NA
ATOM     23  H   UNL     1       4.904  -6.598  -0.845  0.00  0.00    +0.148 HD
BRANCH  22  26
ATOM     24  C   UNL     1       7.280  -6.038   2.426  0.00  0.00    -0.077 C 
ATOM     25  C   UNL     1       6.453  -6.598   1.267  0.00  0.00    +0.002 C 
ATOM     26  C   UNL     1       5.208  -5.730   1.069  0.00  0.00    +0.073 C 
ATOM     27  C   UNL     1       5.639  -4.284   0.807  0.00  0.00    +0.002 C 
ATOM     28  C   UNL     1       6.489  -3.791   1.980  0.00  0.00    -0.077 C 
ATOM     29  N   UNL     1       7.684  -4.653   2.102  0.00  0.00    +0.382 N 
ATOM     30  H   UNL     1       8.187  -4.654   1.207  0.00  0.00    -0.081 HD
BRANCH  29  31
ATOM     31  C   UNL     1       8.579  -4.129   3.155  0.00  0.00    -0.043 C 
BRANCH  31  35
ATOM     32  C   UNL     1      10.190  -0.392   1.856  0.00  0.00    +0.000 A 
ATOM     33  C   UNL     1       9.015  -0.423   2.584  0.00  0.00    +0.000 A 
ATOM     34  C   UNL     1       8.494  -1.632   3.004  0.00  0.00    +0.002 A 
ATOM     35  C   UNL     1       9.147  -2.811   2.696  0.00  0.00    -0.064 A 
ATOM     36  C   UNL     1      10.325  -2.780   1.974  0.00  0.00    +0.002 A 
ATOM     37  C   UNL     1      10.844  -1.571   1.549  0.00  0.00    +0.000 A 
ENDBRANCH  31  35
ENDBRANCH  29  31
ENDBRANCH  22  26
ENDBRANCH   1  22
TORSDOF 6
