REMARK  Name = ZINC00709702
REMARK  10 active torsions:
REMARK  status: ('A' for Active; 'I' for Inactive)
REMARK    1  A    between atoms: C_1  and  O_2
REMARK    2  A    between atoms: O_2  and  C_3
REMARK    3  A    between atoms: C_6  and  O_37
REMARK    4  A    between atoms: C_7  and  C_9
REMARK    5  A    between atoms: C_14  and  C_19
REMARK    6  A    between atoms: C_22  and  O_27
REMARK    7  A    between atoms: C_23  and  O_25
REMARK    8  A    between atoms: O_25  and  C_26
REMARK    9  A    between atoms: O_27  and  C_28
REMARK   10  A    between atoms: O_37  and  C_38
REMARK                            x       y       z     vdW  Elec       q    Type
REMARK                         _______ _______ _______ _____ _____    ______ ____
ROOT
ATOM      1  C   UNL     1       2.283   0.469   3.593  0.00  0.00    +0.140 C 
ATOM      2  C   UNL     1       1.534   0.870   2.344  0.00  0.00    +0.037 C 
ATOM      3  C   UNL     1       0.212   1.082   2.251  0.00  0.00    +0.017 C 
ATOM      4  C   UNL     1      -0.406   1.522   0.933  0.00  0.00    +0.059 C 
ATOM      5  C   UNL     1       0.368   0.908  -0.233  0.00  0.00    +0.032 C 
ATOM      6  C   UNL     1       1.818   1.396  -0.139  0.00  0.00    +0.088 C 
ATOM      7  C   UNL     1       2.362   1.022   1.206  0.00  0.00    +0.163 C 
ATOM      8  O   UNL     1       3.559   0.841   1.325  0.00  0.00    -0.292 OA
ATOM      9  N   UNL     1      -0.671   0.948   3.272  0.00  0.00    -0.316 N 
ATOM     10  C   UNL     1      -0.489   1.466   4.550  0.00  0.00    +0.052 A 
ATOM     11  C   UNL     1      -1.345   2.407   5.094  0.00  0.00    +0.025 A 
ATOM     12  C   UNL     1      -1.171   2.802   6.410  0.00  0.00    +0.002 A 
ATOM     13  C   UNL     1      -0.151   2.262   7.171  0.00  0.00    +0.002 A 
ATOM     14  C   UNL     1       0.718   1.336   6.622  0.00  0.00    +0.025 A 
ATOM     15  C   UNL     1       0.557   0.951   5.301  0.00  0.00    +0.049 A 
ATOM     16  N   UNL     1       1.435   0.056   4.691  0.00  0.00    -0.331 N 
ATOM     17  H   UNL     1      -1.489   0.455   3.099  0.00  0.00    +0.152 HD
ATOM     18  H   UNL     1       1.478  -0.860   5.008  0.00  0.00    +0.147 HD
ENDROOT
BRANCH   1  23
ATOM     19  C   UNL     1       3.610   3.985   3.992  0.00  0.00    +0.121 A 
ATOM     20  C   UNL     1       4.654   3.788   4.884  0.00  0.00    +0.049 A 
ATOM     21  C   UNL     1       4.929   2.519   5.356  0.00  0.00    +0.049 A 
ATOM     22  C   UNL     1       4.161   1.442   4.938  0.00  0.00    +0.126 A 
ATOM     23  C   UNL     1       3.117   1.639   4.047  0.00  0.00    +0.022 A 
ATOM     24  C   UNL     1       2.845   2.907   3.571  0.00  0.00    +0.055 A 
BRANCH  19  26
ATOM     25  C   UNL     1       4.170   6.296   3.999  0.00  0.00    +0.277 C 
ATOM     26  O   UNL     1       3.339   5.234   3.527  0.00  0.00    -0.495 OA
ENDBRANCH  19  26
BRANCH  22  27
ATOM     27  O   UNL     1       4.431   0.193   5.403  0.00  0.00    -0.495 OA
ATOM     28  C   UNL     1       5.521   0.064   6.318  0.00  0.00    +0.277 C 
ENDBRANCH  22  27
ENDBRANCH   1  23
BRANCH   5  29
ATOM     29  C   UNL     1      -0.237   1.354  -1.540  0.00  0.00    -0.040 A 
ATOM     30  C   UNL     1      -0.307   2.701  -1.844  0.00  0.00    +0.008 A 
ATOM     31  C   UNL     1      -0.861   3.115  -3.041  0.00  0.00    +0.049 A 
ATOM     32  C   UNL     1      -1.348   2.179  -3.939  0.00  0.00    +0.161 A 
ATOM     33  C   UNL     1      -1.278   0.823  -3.633  0.00  0.00    +0.162 A 
ATOM     34  C   UNL     1      -0.717   0.415  -2.434  0.00  0.00    +0.053 A 
BRANCH  33  35
ATOM     35  O   UNL     1      -1.754  -0.100  -4.511  0.00  0.00    -0.491 OA
ATOM     36  C   UNL     1      -1.649  -1.473  -4.131  0.00  0.00    +0.277 C 
ENDBRANCH  33  35
BRANCH  32  37
ATOM     37  O   UNL     1      -1.893   2.584  -5.117  0.00  0.00    -0.491 OA
ATOM     38  C   UNL     1      -1.931   3.991  -5.364  0.00  0.00    +0.277 C 
ENDBRANCH  32  37
ENDBRANCH   5  29
TORSDOF 6
