REMARK  Name = ZINC59261215
REMARK  12 active torsions:
REMARK  status: ('A' for Active; 'I' for Inactive)
REMARK    1  A    between atoms: C_1  and  C_2
REMARK    2  A    between atoms: C_2  and  C_4
REMARK    3  A    between atoms: C_2  and  S_20
REMARK    4  A    between atoms: N_6  and  N_7
REMARK    5  A    between atoms: C_8  and  C_9
REMARK    6  A    between atoms: C_8  and  C_10
REMARK    7  A    between atoms: S_20  and  C_21
REMARK    8  A    between atoms: C_24  and  C_29
REMARK    9  A    between atoms: N_25  and  C_26
REMARK   10  A    between atoms: C_26  and  C_27
REMARK   11  A    between atoms: C_29  and  N_30
REMARK   12  A    between atoms: N_30  and  C_31
REMARK                            x       y       z     vdW  Elec       q    Type
REMARK                         _______ _______ _______ _____ _____    ______ ____
ROOT
ATOM      1  C   UNL     1      -0.019   1.526   0.010  0.00  0.00    +0.029 C 
ATOM      2  C   UNL     1       0.002  -0.004   0.002  0.00  0.00    +0.139 C 
ENDROOT
BRANCH   2   3
ATOM      3  C   UNL     1       0.707  -0.490  -1.238  0.00  0.00    +0.245 C 
ATOM      4  O   UNL     1       1.865  -0.849  -1.176  0.00  0.00    -0.273 OA
ATOM      5  N   UNL     1       0.053  -0.526  -2.415  0.00  0.00    -0.206 N 
ATOM      6  H   UNL     1      -0.873  -0.239  -2.465  0.00  0.00    +0.177 HD
BRANCH   5   7
ATOM      7  N   UNL     1       0.708  -0.978  -3.568  0.00  0.00    -0.189 NA
ATOM      8  C   UNL     1       0.086  -1.012  -4.686  0.00  0.00    +0.040 C 
ATOM      9  C   UNL     1      -1.351  -0.566  -4.763  0.00  0.00    +0.063 C 
BRANCH   8  10
ATOM     10  C   UNL     1       0.792  -1.498  -5.926  0.00  0.00    +0.011 C 
ATOM     11  C   UNL     1       0.806  -0.384  -6.975  0.00  0.00    +0.016 C 
ATOM     12  C   UNL     1       1.522  -0.877  -8.234  0.00  0.00    -0.010 C 
ATOM     13  C   UNL     1       2.960  -1.266  -7.883  0.00  0.00    +0.007 C 
ATOM     14  C   UNL     1       2.946  -2.380  -6.835  0.00  0.00    -0.010 C 
ATOM     15  C   UNL     1       2.230  -1.887  -5.576  0.00  0.00    +0.016 C 
ATOM     16  C   UNL     1       2.210  -3.599  -7.395  0.00  0.00    +0.007 C 
ATOM     17  C   UNL     1       0.772  -3.210  -7.746  0.00  0.00    -0.010 C 
ATOM     18  C   UNL     1       0.786  -2.096  -8.794  0.00  0.00    +0.007 C 
ATOM     19  C   UNL     1       0.056  -2.717  -6.487  0.00  0.00    +0.016 C 
ENDBRANCH   8  10
ENDBRANCH   5   7
ENDBRANCH   2   3
BRANCH   2  20
ATOM     20  S   UNL     1       0.879  -0.605   1.472  0.00  0.00    -0.073 S 
BRANCH  20  21
ATOM     21  C   UNL     1      -0.136  -0.087   2.816  0.00  0.00    +0.193 A 
ATOM     22  N   UNL     1      -1.266   0.575   2.730  0.00  0.00    -0.122 NA
ATOM     23  N   UNL     1      -1.738   0.787   3.907  0.00  0.00    -0.132 NA
ATOM     24  C   UNL     1      -0.945   0.276   4.805  0.00  0.00    +0.152 A 
ATOM     25  N   UNL     1       0.102  -0.303   4.143  0.00  0.00    -0.301 N 
BRANCH  25  26
ATOM     26  C   UNL     1       1.242  -1.008   4.734  0.00  0.00    +0.152 C 
BRANCH  26  27
ATOM     27  C   UNL     1       2.352  -0.026   5.008  0.00  0.00    -0.013 C 
ATOM     28  C   UNL     1       2.856   0.073   6.213  0.00  0.00    +0.005 C 
ENDBRANCH  26  27
ENDBRANCH  25  26
BRANCH  24  29
ATOM     29  C   UNL     1      -1.146   0.313   6.298  0.00  0.00    +0.178 C 
BRANCH  29  30
ATOM     30  N   UNL     1      -1.905  -0.868   6.718  0.00  0.00    -0.337 N 
ATOM     31  H   UNL     1      -2.191  -1.520   6.059  0.00  0.00    +0.147 HD
BRANCH  30  32
ATOM     32  C   UNL     1      -2.216  -1.055   8.067  0.00  0.00    +0.028 A 
ATOM     33  C   UNL     1      -1.812  -0.120   9.011  0.00  0.00    +0.024 A 
ATOM     34  C   UNL     1      -2.122  -0.307  10.344  0.00  0.00    +0.022 A 
ATOM     35  C   UNL     1      -2.834  -1.426  10.739  0.00  0.00    +0.041 A 
ATOM     36  C   UNL     1      -3.237  -2.360   9.801  0.00  0.00    +0.022 A 
ATOM     37  C   UNL     1      -2.935  -2.175   8.466  0.00  0.00    +0.024 A 
ATOM     38 CL   UNL     1      -3.221  -1.659  12.416  0.00  0.00    -0.084 Cl
ENDBRANCH  30  32
ENDBRANCH  29  30
ENDBRANCH  24  29
ENDBRANCH  20  21
ENDBRANCH   2  20
TORSDOF 10
