REMARK  Name = ZINC32952346
REMARK  11 active torsions:
REMARK  status: ('A' for Active; 'I' for Inactive)
REMARK    1  A    between atoms: C_1  and  C_2
REMARK    2  A    between atoms: C_2  and  C_3
REMARK    3  A    between atoms: C_7  and  C_28
REMARK    4  A    between atoms: C_8  and  N_9
REMARK    5  A    between atoms: C_10  and  N_27
REMARK    6  A    between atoms: C_11  and  C_15
REMARK    7  A    between atoms: N_17  and  C_18
REMARK    8  A    between atoms: C_18  and  C_19
REMARK    9  A    between atoms: C_22  and  O_25
REMARK   10  A    between atoms: O_25  and  C_26
REMARK   11  A    between atoms: C_28  and  C_29
REMARK                            x       y       z     vdW  Elec       q    Type
REMARK                         _______ _______ _______ _____ _____    ______ ____
ROOT
ATOM      1  N   UNL     1      -0.016   1.346   0.009  0.00  0.00    -0.285 N 
ATOM      2  C   UNL     1       1.146   2.033   0.002  0.00  0.00    +0.121 A 
ATOM      3  C   UNL     1       2.315   1.312  -0.013  0.00  0.00    +0.114 A 
ATOM      4  S   UNL     1       1.699  -0.364  -0.016  0.00  0.00    -0.055 S 
ATOM      5  C   UNL     1       0.002  -0.004   0.002  0.00  0.00    +0.132 A 
ATOM      6  S   UNL     1      -1.321  -1.091   0.009  0.00  0.00    -0.024 S 
ENDROOT
BRANCH   1  12
ATOM      7  C   UNL     1      -1.847   2.385  -1.178  0.00  0.00    -0.023 A 
ATOM      8  C   UNL     1      -3.054   3.057  -1.165  0.00  0.00    +0.005 A 
ATOM      9  C   UNL     1      -3.650   3.388   0.038  0.00  0.00    +0.001 A 
ATOM     10  C   UNL     1      -3.042   3.044   1.231  0.00  0.00    +0.005 A 
ATOM     11  C   UNL     1      -1.838   2.368   1.225  0.00  0.00    -0.023 A 
ATOM     12  C   UNL     1      -1.238   2.033   0.019  0.00  0.00    +0.056 A 
BRANCH   7  14
ATOM     13  C   UNL     1      -1.584   0.602  -2.881  0.00  0.00    +0.009 C 
ATOM     14  C   UNL     1      -1.196   2.029  -2.489  0.00  0.00    +0.034 C 
ENDBRANCH   7  14
BRANCH  11  15
ATOM     15  C   UNL     1      -1.177   1.993   2.527  0.00  0.00    +0.034 C 
ATOM     16  C   UNL     1      -0.155   3.067   2.906  0.00  0.00    +0.009 C 
ENDBRANCH  11  15
ENDBRANCH   1  12
BRANCH   3  17
ATOM     17  C   UNL     1       3.649   1.773  -0.024  0.00  0.00    +0.254 C 
ATOM     18  O   UNL     1       3.880   2.969  -0.020  0.00  0.00    -0.270 OA
ATOM     19  N   UNL     1       4.667   0.890  -0.038  0.00  0.00    -0.307 N 
ATOM     20  H   UNL     1       4.458  -0.190  -0.042  0.00  0.00    +0.149 HD
BRANCH  19  21
ATOM     21  C   UNL     1       6.052   1.368  -0.049  0.00  0.00    +0.139 C 
BRANCH  21  22
ATOM     22  C   UNL     1       6.990   0.190  -0.064  0.00  0.00    -0.030 A 
ATOM     23  C   UNL     1       7.436  -0.353   1.127  0.00  0.00    +0.009 A 
ATOM     24  C   UNL     1       8.293  -1.437   1.116  0.00  0.00    +0.046 A 
ATOM     25  C   UNL     1       8.714  -1.974  -0.092  0.00  0.00    +0.120 A 
ATOM     26  C   UNL     1       8.269  -1.425  -1.286  0.00  0.00    +0.046 A 
ATOM     27  C   UNL     1       7.409  -0.344  -1.269  0.00  0.00    +0.009 A 
BRANCH  25  28
ATOM     28  O   UNL     1       9.560  -3.038  -0.106  0.00  0.00    -0.495 OA
ATOM     29  C   UNL     1       9.977  -3.551   1.161  0.00  0.00    +0.277 C 
ENDBRANCH  25  28
ENDBRANCH  21  22
ENDBRANCH  19  21
ENDBRANCH   3  17
BRANCH   2  30
ATOM     30  N   UNL     1       1.160   3.411   0.009  0.00  0.00    -0.343 N 
ATOM     31  H   UNL     1       2.118   3.951   0.003  0.00  0.00    +0.144 HD
ATOM     32  H   UNL     1       0.213   3.970   0.021  0.00  0.00    +0.144 HD
ENDBRANCH   2  30
TORSDOF 8
