REMARK  Name = ZINC40797283
REMARK  8 active torsions:
REMARK  status: ('A' for Active; 'I' for Inactive)
REMARK    1  A    between atoms: C_1  and  C_2
REMARK    2  A    between atoms: C_2  and  N_3
REMARK    3  A    between atoms: C_11  and  C_14
REMARK    4  A    between atoms: C_11  and  C_15
REMARK    5  A    between atoms: N_17  and  C_18
REMARK    6  A    between atoms: C_19  and  C_27
REMARK    7  A    between atoms: N_29  and  C_30
REMARK    8  A    between atoms: C_30  and  C_31
REMARK                            x       y       z     vdW  Elec       q    Type
REMARK                         _______ _______ _______ _____ _____    ______ ____
ROOT
ATOM      1  C   UNL     1      -0.082  -1.944   4.474  0.00  0.00    +0.270 C 
ATOM      2  O   UNL     1      -1.289  -1.857   4.391  0.00  0.00    -0.271 OA
ATOM      3  N   UNL     1       0.473  -2.791   5.364  0.00  0.00    -0.276 N 
ATOM      4  H   UNL     1       1.438  -2.860   5.430  0.00  0.00    +0.155 HD
ENDROOT
BRANCH   1  13
ATOM      5  N   UNL     1       0.711  -0.489   1.189  0.00  0.00    -0.265 N 
ATOM      6  C   UNL     1       2.096  -0.701   1.151  0.00  0.00    +0.078 A 
ATOM      7  C   UNL     1       2.849  -0.246   0.080  0.00  0.00    +0.027 A 
ATOM      8  C   UNL     1       4.216  -0.452   0.064  0.00  0.00    +0.002 A 
ATOM      9  C   UNL     1       4.833  -1.109   1.113  0.00  0.00    +0.004 A 
ATOM     10  C   UNL     1       4.086  -1.569   2.182  0.00  0.00    +0.047 A 
ATOM     11  C   UNL     1       2.716  -1.373   2.202  0.00  0.00    +0.144 A 
ATOM     12  O   UNL     1       1.967  -1.849   3.233  0.00  0.00    -0.465 OA
ATOM     13  C   UNL     1       0.797  -1.106   3.582  0.00  0.00    +0.258 C 
ATOM     14  C   UNL     1       0.038  -0.732   2.334  0.00  0.00    +0.273 C 
ATOM     15  O   UNL     1      -1.172  -0.655   2.357  0.00  0.00    -0.270 OA
ATOM     16  C   UNL     1       1.206   0.169   4.323  0.00  0.00    +0.076 C 
BRANCH   5  18
ATOM     17  C   UNL     1      -0.019   1.526   0.010  0.00  0.00    +0.025 C 
ATOM     18  C   UNL     1       0.002  -0.004   0.002  0.00  0.00    +0.110 C 
ENDBRANCH   5  18
ENDBRANCH   1  13
BRANCH   3  19
ATOM     19  C   UNL     1      -0.336  -3.562   6.185  0.00  0.00    +0.085 A 
ATOM     20  C   UNL     1       0.055  -4.473   7.153  0.00  0.00    +0.069 A 
ATOM     21  C   UNL     1      -0.997  -5.159   7.883  0.00  0.00    -0.023 A 
ATOM     22  C   UNL     1      -2.246  -4.808   7.511  0.00  0.00    -0.004 A 
ATOM     23  S   UNL     1      -2.014  -3.600   6.239  0.00  0.00    -0.077 S 
ATOM     24  C   UNL     1      -3.533  -5.333   8.069  0.00  0.00    +0.043 C 
ATOM     25  C   UNL     1      -3.225  -6.609   8.867  0.00  0.00    +0.005 C 
ATOM     26  C   UNL     1      -2.040  -6.339   9.798  0.00  0.00    +0.005 C 
ATOM     27  C   UNL     1      -0.757  -6.188   8.978  0.00  0.00    +0.037 C 
BRANCH  20  28
ATOM     28  C   UNL     1       1.472  -4.735   7.428  0.00  0.00    +0.247 C 
ATOM     29  O   UNL     1       2.061  -4.077   8.264  0.00  0.00    -0.270 OA
ATOM     30  N   UNL     1       2.121  -5.705   6.754  0.00  0.00    -0.308 N 
ATOM     31  H   UNL     1       1.651  -6.230   6.087  0.00  0.00    +0.149 HD
BRANCH  30  32
ATOM     32  C   UNL     1       3.536  -5.967   7.028  0.00  0.00    +0.131 C 
BRANCH  32  33
ATOM     33  C   UNL     1       4.019  -7.091   6.149  0.00  0.00    -0.016 C 
ATOM     34  C   UNL     1       5.062  -6.916   5.376  0.00  0.00    +0.005 C 
ENDBRANCH  32  33
ENDBRANCH  30  32
ENDBRANCH  20  28
ENDBRANCH   3  19
TORSDOF 6
