REMARK  Name = ZINC06182948
REMARK  11 active torsions:
REMARK  status: ('A' for Active; 'I' for Inactive)
REMARK    1  A    between atoms: C_1  and  C_2
REMARK    2  A    between atoms: C_2  and  C_3
REMARK    3  A    between atoms: C_4  and  C_23
REMARK    4  A    between atoms: N_9  and  C_10
REMARK    5  A    between atoms: C_10  and  C_11
REMARK    6  A    between atoms: C_11  and  N_12
REMARK    7  A    between atoms: N_12  and  C_13
REMARK    8  A    between atoms: C_16  and  C_18
REMARK    9  A    between atoms: C_23  and  C_25
REMARK   10  A    between atoms: C_23  and  S_26
REMARK   11  A    between atoms: S_26  and  C_29
REMARK                            x       y       z     vdW  Elec       q    Type
REMARK                         _______ _______ _______ _____ _____    ______ ____
ROOT
ATOM      1  C   UNL     1      -1.931  -5.384  -1.133  0.00  0.00    +0.044 A 
ATOM      2  C   UNL     1      -3.033  -5.996  -0.714  0.00  0.00    +0.064 A 
ATOM      3  N   UNL     1      -3.017  -6.002   0.673  0.00  0.00    -0.308 N 
ATOM      4  H   UNL     1      -3.697  -6.383   1.249  0.00  0.00    +0.170 HD
ATOM      5  C   UNL     1      -1.887  -5.390   1.079  0.00  0.00    +0.327 A 
ATOM      6  O   UNL     1      -1.542  -5.220   2.235  0.00  0.00    -0.247 OA
ATOM      7  N   UNL     1      -1.206  -4.997  -0.015  0.00  0.00    -0.295 N 
ENDROOT
BRANCH   1   9
ATOM      8  C   UNL     1      -1.992  -3.757  -3.003  0.00  0.00    +0.010 C 
ATOM      9  C   UNL     1      -1.537  -5.151  -2.569  0.00  0.00    +0.052 C 
ENDBRANCH   1   9
BRANCH   2  10
ATOM     10  C   UNL     1      -4.111  -6.580  -1.591  0.00  0.00    +0.181 C 
ATOM     11  C   UNL     1      -4.153  -8.098  -1.404  0.00  0.00    +0.039 C 
BRANCH  10  12
ATOM     12  S   UNL     1      -5.715  -5.869  -1.131  0.00  0.00    +0.005 S 
ATOM     13  O   UNL     1      -6.039  -6.217   0.208  0.00  0.00    -0.169 OA
ATOM     14  O   UNL     1      -5.796  -4.520  -1.569  0.00  0.00    -0.169 OA
BRANCH  12  15
ATOM     15  C   UNL     1      -6.892  -6.734  -2.117  0.00  0.00    +0.089 A 
ATOM     16  C   UNL     1      -7.240  -6.247  -3.363  0.00  0.00    +0.027 A 
ATOM     17  C   UNL     1      -8.160  -6.928  -4.138  0.00  0.00    +0.002 A 
ATOM     18  C   UNL     1      -8.739  -8.090  -3.663  0.00  0.00    +0.000 A 
ATOM     19  C   UNL     1      -8.395  -8.574  -2.415  0.00  0.00    +0.002 A 
ATOM     20  C   UNL     1      -7.471  -7.896  -1.642  0.00  0.00    +0.027 A 
ENDBRANCH  12  15
ENDBRANCH  10  12
ENDBRANCH   2  10
BRANCH   7  21
ATOM     21  C   UNL     1       0.077  -4.290  -0.023  0.00  0.00    +0.145 C 
BRANCH  21  22
ATOM     22  C   UNL     1      -0.173  -2.780  -0.012  0.00  0.00    +0.124 C 
BRANCH  22  23
ATOM     23  N   UNL     1       1.111  -2.073  -0.020  0.00  0.00    -0.328 N 
ATOM     24  H   UNL     1       1.941  -2.575  -0.031  0.00  0.00    +0.148 HD
BRANCH  23  25
ATOM     25  C   UNL     1       1.138  -0.683  -0.013  0.00  0.00    +0.115 A 
ATOM     26  C   UNL     1       2.361  -0.017  -0.021  0.00  0.00    +0.079 A 
ATOM     27  C   UNL     1       2.373   1.367  -0.013  0.00  0.00    +0.037 A 
ATOM     28  C   UNL     1       1.159   2.040   0.002  0.00  0.00    +0.072 A 
ATOM     29  C   UNL     1      -0.016   1.316   0.009  0.00  0.00    +0.096 A 
ATOM     30 CL   UNL     1       3.850  -0.910  -0.039  0.00  0.00    -0.080 Cl
ATOM     31  N   UNL     1      -0.066  -0.044   0.002  0.00  0.00    -0.348 N 
ATOM     32  H   UNL     1      -0.956  -0.556   0.008  0.00  0.00    +0.167 HD
BRANCH  28  33
ATOM     33  C   UNL     1       1.124   3.547   0.010  0.00  0.00    +0.419 C 
ATOM     34  F   UNL     1      -0.205   3.982   0.025  0.00  0.00    -0.166 F 
ATOM     35  F   UNL     1       1.783   4.022   1.149  0.00  0.00    -0.166 F 
ATOM     36  F   UNL     1       1.762   4.034  -1.136  0.00  0.00    -0.166 F 
ENDBRANCH  28  33
ENDBRANCH  23  25
ENDBRANCH  22  23
ENDBRANCH  21  22
ENDBRANCH   7  21
TORSDOF 9
