REMARK  Name = ZINC36847224
REMARK  10 active torsions:
REMARK  status: ('A' for Active; 'I' for Inactive)
REMARK    1  A    between atoms: C_4  and  S_7
REMARK    2  A    between atoms: S_7  and  C_8
REMARK    3  A    between atoms: C_8  and  C_9
REMARK    4  A    between atoms: C_9  and  N_10
REMARK    5  A    between atoms: N_10  and  C_11
REMARK    6  A    between atoms: C_11  and  N_13
REMARK    7  A    between atoms: N_13  and  C_14
REMARK    8  A    between atoms: C_14  and  C_15
REMARK    9  A    between atoms: C_15  and  S_16
REMARK   10  A    between atoms: S_16  and  N_19
REMARK                            x       y       z     vdW  Elec       q    Type
REMARK                         _______ _______ _______ _____ _____    ______ ____
ROOT
ATOM      1  C   UNL     1       5.311  -9.534  -0.114  0.00  0.00    +0.204 C 
ENDROOT
BRANCH   1   2
ATOM      2  S   UNL     1       6.590 -10.820  -0.096  0.00  0.00    +0.033 S 
ATOM      3  O   UNL     1       7.304 -10.818  -1.324  0.00  0.00    -0.158 OA
ATOM      4  O   UNL     1       7.283 -10.803   1.145  0.00  0.00    -0.158 OA
BRANCH   2   5
ATOM      5  N   UNL     1       5.756 -12.251  -0.095  0.00  0.00    -0.178 NA
ATOM      6  C   UNL     1       5.363 -12.886   1.171  0.00  0.00    +0.128 C 
ATOM      7  C   UNL     1       3.846 -13.116   1.153  0.00  0.00    +0.123 C 
ATOM      8  N   UNL     1       3.486 -13.773  -0.111  0.00  0.00    -0.314 N 
ATOM      9  C   UNL     1       3.879 -13.137  -1.377  0.00  0.00    +0.123 C 
ATOM     10  C   UNL     1       5.390 -12.904  -1.359  0.00  0.00    +0.128 C 
ATOM     11  C   UNL     1       2.785 -14.973  -0.111  0.00  0.00    +0.099 A 
ATOM     12  C   UNL     1       2.532 -15.623   1.094  0.00  0.00    +0.042 A 
ATOM     13  C   UNL     1       1.834 -16.817   1.080  0.00  0.00    +0.005 A 
ATOM     14  C   UNL     1       1.411 -17.323  -0.142  0.00  0.00    +0.018 A 
ATOM     15  C   UNL     1       1.698 -16.626  -1.299  0.00  0.00    +0.084 A 
ATOM     16  N   UNL     1       2.361 -15.486  -1.255  0.00  0.00    -0.350 N 
ATOM     17  H   UNL     1       2.545 -15.014  -2.082  0.00  0.00    +0.166 HD
ENDBRANCH   2   5
ENDBRANCH   1   2
BRANCH   1  18
ATOM     18  C   UNL     1       5.973  -8.155  -0.116  0.00  0.00    +0.127 C 
BRANCH  18  19
ATOM     19  N   UNL     1       4.940  -7.117  -0.131  0.00  0.00    -0.325 N 
ATOM     20  H   UNL     1       4.003  -7.366  -0.138  0.00  0.00    +0.148 HD
BRANCH  19  21
ATOM     21  C   UNL     1       5.292  -5.816  -0.136  0.00  0.00    +0.130 C 
ATOM     22  S   UNL     1       6.947  -5.377  -0.124  0.00  0.00    -0.019 S 
BRANCH  21  23
ATOM     23  N   UNL     1       4.341  -4.861  -0.149  0.00  0.00    -0.326 N 
ATOM     24  H   UNL     1       3.404  -5.109  -0.156  0.00  0.00    +0.148 HD
BRANCH  23  25
ATOM     25  C   UNL     1       4.724  -3.447  -0.154  0.00  0.00    +0.114 C 
BRANCH  25  26
ATOM     26  C   UNL     1       3.465  -2.578  -0.170  0.00  0.00    +0.093 C 
BRANCH  26  27
ATOM     27  S   UNL     1       3.939  -0.827  -0.176  0.00  0.00    -0.124 S 
BRANCH  27  31
ATOM     28  C   UNL     1      -0.017   1.379  -0.225  0.00  0.00    +0.000 A 
ATOM     29  C   UNL     1       1.169   2.090  -0.217  0.00  0.00    +0.001 A 
ATOM     30  C   UNL     1       2.377   1.421  -0.203  0.00  0.00    +0.015 A 
ATOM     31  C   UNL     1       2.400   0.031  -0.195  0.00  0.00    +0.008 A 
ATOM     32  C   UNL     1       1.206  -0.680  -0.201  0.00  0.00    +0.015 A 
ATOM     33  C   UNL     1       0.002  -0.004  -0.217  0.00  0.00    +0.001 A 
ENDBRANCH  27  31
ENDBRANCH  26  27
ENDBRANCH  25  26
ENDBRANCH  23  25
ENDBRANCH  21  23
ENDBRANCH  19  21
ENDBRANCH  18  19
ENDBRANCH   1  18
TORSDOF 10
