REMARK  Name = ZINC45591197
REMARK  9 active torsions:
REMARK  status: ('A' for Active; 'I' for Inactive)
REMARK    1  A    between atoms: C_1  and  C_2
REMARK    2  A    between atoms: C_2  and  C_4
REMARK    3  A    between atoms: C_2  and  O_25
REMARK    4  A    between atoms: N_6  and  N_7
REMARK    5  A    between atoms: C_8  and  C_10
REMARK    6  A    between atoms: C_10  and  N_11
REMARK    7  A    between atoms: C_12  and  C_14
REMARK    8  A    between atoms: C_14  and  C_15
REMARK    9  A    between atoms: O_25  and  C_26
REMARK                            x       y       z     vdW  Elec       q    Type
REMARK                         _______ _______ _______ _____ _____    ______ ____
ROOT
ATOM      1  N   UNL     1      -3.674  -0.347  -0.761  0.00  0.00    -0.233 N 
ATOM      2  C   UNL     1      -4.514  -0.088  -1.783  0.00  0.00    +0.246 C 
ATOM      3  O   UNL     1      -4.087   0.391  -2.812  0.00  0.00    -0.273 OA
ATOM      4  H   UNL     1      -4.016  -0.730   0.062  0.00  0.00    +0.173 HD
ENDROOT
BRANCH   1   7
ATOM      5  C   UNL     1      -1.469  -0.319   0.136  0.00  0.00    +0.270 C 
ATOM      6  O   UNL     1      -1.896  -0.799   1.164  0.00  0.00    -0.270 OA
ATOM      7  N   UNL     1      -2.308  -0.061  -0.887  0.00  0.00    -0.231 N 
ATOM      8  H   UNL     1      -1.967   0.323  -1.710  0.00  0.00    +0.173 HD
BRANCH   5  10
ATOM      9  C   UNL     1       0.194   1.500  -0.138  0.00  0.00    +0.062 C 
ATOM     10  C   UNL     1       0.000  -0.012   0.000  0.00  0.00    +0.257 C 
BRANCH  10  11
ATOM     11  O   UNL     1       0.693  -0.477   1.160  0.00  0.00    -0.480 OA
BRANCH  11  12
ATOM     12  C   UNL     1       2.014  -0.764   1.016  0.00  0.00    +0.123 A 
ATOM     13  C   UNL     1       2.721  -1.331   2.067  0.00  0.00    +0.046 A 
ATOM     14  C   UNL     1       4.063  -1.621   1.919  0.00  0.00    +0.005 A 
ATOM     15  C   UNL     1       4.703  -1.348   0.724  0.00  0.00    +0.015 A 
ATOM     16  C   UNL     1       4.001  -0.782  -0.326  0.00  0.00    +0.021 A 
ATOM     17  C   UNL     1       2.656  -0.496  -0.184  0.00  0.00    +0.061 A 
ATOM     18 BR   UNL     1       4.880  -0.409  -1.958  0.00  0.00    -0.050 Br
ENDBRANCH  11  12
ENDBRANCH  10  11
ENDBRANCH   5  10
ENDBRANCH   1   7
BRANCH   2  19
ATOM     19  C   UNL     1      -5.983  -0.396  -1.647  0.00  0.00    +0.201 C 
BRANCH  19  20
ATOM     20  N   UNL     1      -6.675  -0.027  -2.885  0.00  0.00    -0.306 N 
ATOM     21  C   UNL     1      -8.005  -0.214  -2.994  0.00  0.00    +0.218 C 
ATOM     22  O   UNL     1      -8.629  -0.687  -2.068  0.00  0.00    -0.275 OA
ATOM     23  H   UNL     1      -6.176   0.351  -3.625  0.00  0.00    +0.149 HD
BRANCH  21  24
ATOM     24  C   UNL     1      -8.717   0.165  -4.267  0.00  0.00    +0.131 C 
BRANCH  24  25
ATOM     25  C   UNL     1     -10.187  -0.142  -4.131  0.00  0.00    -0.031 A 
ATOM     26  C   UNL     1     -10.682  -1.326  -4.585  0.00  0.00    +0.005 A 
ATOM     27  C   UNL     1     -12.038  -1.628  -4.468  0.00  0.00    +0.001 A 
ATOM     28  C   UNL     1     -12.905  -0.747  -3.898  0.00  0.00    +0.008 A 
ATOM     29  C   UNL     1     -12.430   0.485  -3.418  0.00  0.00    -0.018 A 
ATOM     30  C   UNL     1     -11.050   0.789  -3.531  0.00  0.00    -0.014 A 
ATOM     31  C   UNL     1     -10.574   2.019  -3.046  0.00  0.00    +0.009 A 
ATOM     32  C   UNL     1     -11.441   2.897  -2.470  0.00  0.00    +0.001 A 
ATOM     33  C   UNL     1     -12.796   2.595  -2.354  0.00  0.00    +0.001 A 
ATOM     34  C   UNL     1     -13.296   1.419  -2.824  0.00  0.00    +0.008 A 
ENDBRANCH  24  25
ENDBRANCH  21  24
ENDBRANCH  19  20
ENDBRANCH   2  19
TORSDOF 8
