REMARK  Name = ZINC39362739
REMARK  8 active torsions:
REMARK  status: ('A' for Active; 'I' for Inactive)
REMARK    1  A    between atoms: C_1  and  C_2
REMARK    2  A    between atoms: C_7  and  N_8
REMARK    3  A    between atoms: C_9  and  C_11
REMARK    4  A    between atoms: C_11  and  S_12
REMARK    5  A    between atoms: S_12  and  C_13
REMARK    6  A    between atoms: C_16  and  C_26
REMARK    7  A    between atoms: N_18  and  C_19
REMARK    8  A    between atoms: C_26  and  C_27
REMARK                            x       y       z     vdW  Elec       q    Type
REMARK                         _______ _______ _______ _____ _____    ______ ____
ROOT
ATOM      1  C   UNL     1      -0.371  -0.118   7.688  0.00  0.00    +0.180 C 
ATOM      2  N   UNL     1      -0.395   1.172   7.661  0.00  0.00    -0.162 NA
ATOM      3  N   UNL     1      -0.517   1.710   8.948  0.00  0.00    -0.246 N 
ATOM      4  C   UNL     1      -0.573   0.561   9.869  0.00  0.00    +0.187 C 
ATOM      5  N   UNL     1      -0.478  -0.610   8.981  0.00  0.00    -0.258 N 
ATOM      6  H   UNL     1      -0.556   2.649   9.185  0.00  0.00    +0.170 HD
ENDROOT
BRANCH   5   7
ATOM      7  C   UNL     1      -0.491  -1.954   9.366  0.00  0.00    +0.038 A 
ATOM      8  C   UNL     1       0.427  -2.420  10.299  0.00  0.00    +0.026 A 
ATOM      9  C   UNL     1       0.412  -3.748  10.678  0.00  0.00    +0.040 A 
ATOM     10  C   UNL     1      -0.517  -4.615  10.128  0.00  0.00    +0.124 A 
ATOM     11  C   UNL     1      -1.433  -4.154   9.198  0.00  0.00    +0.040 A 
ATOM     12  C   UNL     1      -1.425  -2.825   8.820  0.00  0.00    +0.026 A 
ATOM     13  F   UNL     1      -0.529  -5.914  10.499  0.00  0.00    -0.205 F 
ENDBRANCH   5   7
BRANCH   1  14
ATOM     14  S   UNL     1      -0.227  -1.133   6.255  0.00  0.00    -0.079 S 
BRANCH  14  15
ATOM     15  C   UNL     1      -0.124   0.053   4.886  0.00  0.00    +0.173 C 
BRANCH  15  17
ATOM     16  N   UNL     1       0.096  -0.014   2.423  0.00  0.00    -0.285 N 
ATOM     17  C   UNL     1       0.004  -0.694   3.583  0.00  0.00    +0.227 C 
ATOM     18  O   UNL     1       0.024  -1.906   3.578  0.00  0.00    -0.275 OA
ATOM     19  H   UNL     1       0.142   0.955   2.431  0.00  0.00    +0.155 HD
BRANCH  16  26
ATOM     20  C   UNL     1      -1.165   1.178   0.168  0.00  0.00    +0.045 C 
ATOM     21  C   UNL     1      -0.478  -0.160   0.082  0.00  0.00    -0.029 A 
ATOM     22  C   UNL     1      -0.442  -0.843  -1.119  0.00  0.00    +0.005 A 
ATOM     23  C   UNL     1       0.189  -2.071  -1.199  0.00  0.00    +0.000 A 
ATOM     24  C   UNL     1       0.787  -2.619  -0.078  0.00  0.00    +0.002 A 
ATOM     25  C   UNL     1       0.755  -1.941   1.124  0.00  0.00    +0.023 A 
ATOM     26  C   UNL     1       0.126  -0.705   1.207  0.00  0.00    +0.036 A 
ENDBRANCH  16  26
ENDBRANCH  15  17
ENDBRANCH  14  15
ENDBRANCH   1  14
BRANCH   4  27
ATOM     27  C   UNL     1      -1.899   0.548  10.631  0.00  0.00    +0.097 C 
BRANCH  27  28
ATOM     28  C   UNL     1      -2.017   1.805  11.456  0.00  0.00    +0.029 A 
ATOM     29  N   UNL     1      -1.449   1.867  12.699  0.00  0.00    -0.311 N 
ATOM     30  C   UNL     1      -1.548   2.984  13.442  0.00  0.00    +0.327 A 
ATOM     31  O   UNL     1      -1.036   3.018  14.544  0.00  0.00    -0.247 OA
ATOM     32  N   UNL     1      -2.206   4.065  12.983  0.00  0.00    -0.275 N 
ATOM     33  C   UNL     1      -2.780   4.043  11.763  0.00  0.00    +0.254 A 
ATOM     34  O   UNL     1      -3.375   5.021  11.347  0.00  0.00    -0.268 OA
ATOM     35  C   UNL     1      -2.679   2.876  10.968  0.00  0.00    +0.091 A 
ATOM     36  H   UNL     1      -2.268   4.862  13.532  0.00  0.00    +0.173 HD
ATOM     37  H   UNL     1      -0.971   1.099  13.047  0.00  0.00    +0.170 HD
ENDBRANCH  27  28
ENDBRANCH   4  27
TORSDOF 7
