REMARK  Name = ZINC09776302
REMARK  14 active torsions:
REMARK  status: ('A' for Active; 'I' for Inactive)
REMARK    1  A    between atoms: C_1  and  C_2
REMARK    2  A    between atoms: C_2  and  N_81
REMARK    3  A    between atoms: C_3  and  C_4
REMARK    4  A    between atoms: C_3  and  N_81
REMARK    5  A    between atoms: C_5  and  C_6
REMARK    6  A    between atoms: C_5  and  N_81
REMARK    7  A    between atoms: C_6  and  N_7
REMARK    8  A    between atoms: C_8  and  C_10
REMARK    9  A    between atoms: C_10  and  N_11
REMARK   10  A    between atoms: C_12  and  C_14
REMARK   11  A    between atoms: N_24  and  C_35
REMARK   12  A    between atoms: C_25  and  C_27
REMARK   13  A    between atoms: C_30  and  O_33
REMARK   14  A    between atoms: O_33  and  C_34
REMARK                            x       y       z     vdW  Elec       q    Type
REMARK                         _______ _______ _______ _____ _____    ______ ____
ROOT
ATOM      1  C   UNL     1      -8.132   3.614   1.284  0.00  0.00    +0.130 C 
ATOM      2  C   UNL     1      -8.287   2.224   0.728  0.00  0.00    -0.021 A 
ATOM      3  C   UNL     1      -9.452   1.513   0.924  0.00  0.00    +0.005 A 
ATOM      4  C   UNL     1      -9.563   0.220   0.442  0.00  0.00    +0.000 A 
ATOM      5  C   UNL     1      -8.509  -0.368  -0.236  0.00  0.00    +0.001 A 
ATOM      6  C   UNL     1      -7.340   0.337  -0.445  0.00  0.00    +0.013 A 
ATOM      7  C   UNL     1      -7.231   1.644   0.022  0.00  0.00    +0.041 A 
ATOM      8  C   UNL     1      -5.997   2.430  -0.193  0.00  0.00    +0.248 C 
ATOM      9  O   UNL     1      -4.982   1.886  -0.581  0.00  0.00    -0.270 OA
ATOM     10  N   UNL     1      -6.009   3.756   0.046  0.00  0.00    -0.286 N 
ATOM     11  C   UNL     1      -7.253   4.453   0.365  0.00  0.00    +0.123 C 
ENDROOT
BRANCH  11  12
ATOM     12  C   UNL     1      -8.005   4.733  -0.911  0.00  0.00    -0.026 A 
ATOM     13  C   UNL     1      -8.038   3.784  -1.915  0.00  0.00    +0.009 A 
ATOM     14  C   UNL     1      -8.731   4.036  -3.084  0.00  0.00    +0.046 A 
ATOM     15  C   UNL     1      -9.383   5.249  -3.253  0.00  0.00    +0.120 A 
ATOM     16  C   UNL     1      -9.343   6.202  -2.247  0.00  0.00    +0.046 A 
ATOM     17  C   UNL     1      -8.654   5.943  -1.078  0.00  0.00    +0.009 A 
BRANCH  15  18
ATOM     18  O   UNL     1     -10.060   5.502  -4.404  0.00  0.00    -0.495 OA
ATOM     19  C   UNL     1     -10.059   4.475  -5.397  0.00  0.00    +0.277 C 
ENDBRANCH  15  18
ENDBRANCH  11  12
BRANCH  10  20
ATOM     20  C   UNL     1      -4.754   4.509  -0.009  0.00  0.00    +0.077 C 
ATOM     21  C   UNL     1      -4.144   4.383  -1.407  0.00  0.00    +0.022 C 
ATOM     22  C   UNL     1      -2.833   5.170  -1.464  0.00  0.00    +0.002 C 
ATOM     23  C   UNL     1      -1.856   4.609  -0.429  0.00  0.00    +0.000 C 
ATOM     24  C   UNL     1      -2.466   4.735   0.969  0.00  0.00    +0.002 C 
ATOM     25  C   UNL     1      -3.777   3.948   1.026  0.00  0.00    +0.022 C 
ENDBRANCH  10  20
BRANCH   1  27
ATOM     26  N   UNL     1      -8.095   2.856   3.638  0.00  0.00    -0.306 N 
ATOM     27  C   UNL     1      -7.492   3.539   2.646  0.00  0.00    +0.223 C 
ATOM     28  O   UNL     1      -6.432   4.094   2.849  0.00  0.00    -0.275 OA
ATOM     29  H   UNL     1      -8.943   2.412   3.475  0.00  0.00    +0.149 HD
BRANCH  26  30
ATOM     30  C   UNL     1      -7.472   2.783   4.962  0.00  0.00    +0.200 C 
BRANCH  30  32
ATOM     31  N   UNL     1      -7.967   1.764   7.161  0.00  0.00    -0.316 N 
ATOM     32  C   UNL     1      -8.343   1.967   5.882  0.00  0.00    +0.230 C 
ATOM     33  O   UNL     1      -9.381   1.492   5.473  0.00  0.00    -0.274 OA
ATOM     34  H   UNL     1      -7.137   2.143   7.488  0.00  0.00    +0.149 HD
BRANCH  31  35
ATOM     35  C   UNL     1      -8.813   0.970   8.055  0.00  0.00    +0.086 C 
BRANCH  35  36
ATOM     36  C   UNL     1      -8.163   0.894   9.438  0.00  0.00    -0.060 C 
BRANCH  36  37
ATOM     37  N   UNL     1      -9.038   0.109  10.334  0.00  0.00    +0.380 N 
ATOM     38  H   UNL     1      -9.989   0.493  10.291  0.00  0.00    -0.082 HD
BRANCH  37  40
ATOM     39  C   UNL     1      -7.663  -1.905   9.925  0.00  0.00    -0.017 C 
ATOM     40  C   UNL     1      -9.069  -1.303   9.899  0.00  0.00    -0.082 C 
ENDBRANCH  37  40
BRANCH  37  41
ATOM     41  C   UNL     1      -8.546   0.198  11.725  0.00  0.00    -0.082 C 
ATOM     42  C   UNL     1      -9.644  -0.300  12.667  0.00  0.00    -0.017 C 
ENDBRANCH  37  41
ENDBRANCH  36  37
ENDBRANCH  35  36
ENDBRANCH  31  35
ENDBRANCH  30  32
ENDBRANCH  26  30
ENDBRANCH   1  27
TORSDOF 11
