REMARK  Name = ZINC34864645
REMARK  8 active torsions:
REMARK  status: ('A' for Active; 'I' for Inactive)
REMARK    1  A    between atoms: C_4  and  C_7
REMARK    2  A    between atoms: C_7  and  C_8
REMARK    3  A    between atoms: C_8  and  C_9
REMARK    4  A    between atoms: C_9  and  N_10
REMARK    5  A    between atoms: N_10  and  C_11
REMARK    6  A    between atoms: N_10  and  C_25
REMARK    7  A    between atoms: C_11  and  C_12
REMARK    8  A    between atoms: C_25  and  C_26
REMARK                            x       y       z     vdW  Elec       q    Type
REMARK                         _______ _______ _______ _____ _____    ______ ____
ROOT
ATOM      1  N   UNL     1       6.020  -1.851   2.752  0.00  0.00    -0.288 NA
ENDROOT
BRANCH   1   2
ATOM      2  C   UNL     1       5.280  -1.725   1.489  0.00  0.00    +0.085 C 
BRANCH   2   3
ATOM      3  C   UNL     1       3.826  -1.350   1.785  0.00  0.00    +0.020 C 
BRANCH   3   4
ATOM      4  C   UNL     1       3.027  -1.336   0.480  0.00  0.00    +0.036 C 
BRANCH   4   8
ATOM      5  C   UNL     1      -1.031  -0.289   1.304  0.00  0.00    +0.000 A 
ATOM      6  C   UNL     1      -0.107   0.699   1.020  0.00  0.00    +0.000 A 
ATOM      7  C   UNL     1       1.207   0.360   0.753  0.00  0.00    +0.003 A 
ATOM      8  C   UNL     1       1.595  -0.967   0.772  0.00  0.00    -0.047 A 
ATOM      9  C   UNL     1       0.671  -1.954   1.057  0.00  0.00    +0.003 A 
ATOM     10  C   UNL     1      -0.642  -1.615   1.322  0.00  0.00    +0.000 A 
ENDBRANCH   4   8
ENDBRANCH   3   4
ENDBRANCH   2   3
ENDBRANCH   1   2
BRANCH   1  11
ATOM     11  C   UNL     1       7.295  -2.551   2.547  0.00  0.00    +0.159 C 
BRANCH  11  12
ATOM     12  C   UNL     1       7.025  -3.979   2.145  0.00  0.00    +0.125 A 
ATOM     13  N   UNL     1       8.087  -4.795   1.914  0.00  0.00    -0.309 N 
ATOM     14  H   UNL     1       8.988  -4.450   2.011  0.00  0.00    +0.170 HD
ATOM     15  C   UNL     1       7.898  -6.085   1.551  0.00  0.00    +0.259 A 
ATOM     16  O   UNL     1       8.840  -6.827   1.342  0.00  0.00    -0.267 OA
ATOM     17  C   UNL     1       6.512  -6.555   1.419  0.00  0.00    +0.065 A 
ATOM     18  C   UNL     1       6.209  -7.865   1.051  0.00  0.00    +0.017 A 
ATOM     19  C   UNL     1       4.902  -8.252   0.944  0.00  0.00    +0.021 A 
ATOM     20  C   UNL     1       3.872  -7.354   1.197  0.00  0.00    +0.043 A 
ATOM     21  C   UNL     1       4.145  -6.053   1.562  0.00  0.00    +0.048 A 
ATOM     22  C   UNL     1       5.472  -5.635   1.680  0.00  0.00    +0.080 A 
ATOM     23  N   UNL     1       5.790  -4.367   2.042  0.00  0.00    -0.232 NA
ATOM     24 CL   UNL     1       2.223  -7.876   1.051  0.00  0.00    -0.083 Cl
ENDBRANCH  11  12
ENDBRANCH   1  11
BRANCH   1  25
ATOM     25  C   UNL     1       6.235  -0.536   3.370  0.00  0.00    +0.156 C 
BRANCH  25  26
ATOM     26  C   UNL     1       6.629  -0.717   4.813  0.00  0.00    +0.111 C 
ATOM     27  N   UNL     1       6.624  -1.908   5.326  0.00  0.00    -0.263 NA
ATOM     28  C   UNL     1       7.021  -2.074   6.718  0.00  0.00    +0.147 C 
ATOM     29  C   UNL     1       7.427  -3.477   7.063  0.00  0.00    +0.020 C 
ATOM     30  C   UNL     1       8.171  -3.659   8.161  0.00  0.00    +0.039 C 
ATOM     31  C   UNL     1       8.551  -2.500   8.990  0.00  0.00    +0.016 C 
ATOM     32  C   UNL     1       8.581  -1.278   8.450  0.00  0.00    -0.010 C 
ATOM     33  C   UNL     1       8.217  -1.153   6.998  0.00  0.00    +0.126 C 
ATOM     34  C   UNL     1       7.809   0.247   6.628  0.00  0.00    +0.227 C 
ATOM     35  O   UNL     1       8.198   1.208   7.257  0.00  0.00    -0.275 OA
ATOM     36  N   UNL     1       6.992   0.384   5.556  0.00  0.00    -0.273 N 
ATOM     37 CL   UNL     1       8.688  -5.256   8.608  0.00  0.00    -0.084 Cl
ATOM     38  H   UNL     1       6.658   1.262   5.313  0.00  0.00    +0.156 HD
ENDBRANCH  25  26
ENDBRANCH   1  25
TORSDOF 8
