REMARK  Name = ZINC39684191
REMARK  9 active torsions:
REMARK  status: ('A' for Active; 'I' for Inactive)
REMARK    1  A    between atoms: C_1  and  C_2
REMARK    2  A    between atoms: C_7  and  C_11
REMARK    3  A    between atoms: C_11  and  C_12
REMARK    4  A    between atoms: C_12  and  N_13
REMARK    5  A    between atoms: C_14  and  C_16
REMARK    6  A    between atoms: C_27  and  C_29
REMARK    7  A    between atoms: C_30  and  C_41
REMARK    8  A    between atoms: C_33  and  C_35
REMARK    9  A    between atoms: C_37  and  C_40
REMARK                            x       y       z     vdW  Elec       q    Type
REMARK                         _______ _______ _______ _____ _____    ______ ____
ROOT
ATOM      1  C   UNL     1      -8.762   1.729  -6.664  0.00  0.00    +0.100 C 
ATOM      2  C   UNL     1      -9.873   2.136  -5.671  0.00  0.00    +0.121 C 
ATOM      3  N   UNL     1     -11.126   1.635  -6.284  0.00  0.00    -0.296 N 
ATOM      4  C   UNL     1     -10.754   0.319  -6.857  0.00  0.00    +0.115 C 
ATOM      5  C   UNL     1      -9.344   0.535  -7.440  0.00  0.00    -0.004 C 
ATOM      6  C   UNL     1      -8.486  -0.707  -7.220  0.00  0.00    -0.010 C 
ATOM      7  C   UNL     1      -9.051  -1.865  -8.048  0.00  0.00    -0.082 C 
ATOM      8  N   UNL     1      -9.058  -1.496  -9.469  0.00  0.00    +0.379 N 
ATOM      9  C   UNL     1      -9.959  -0.357  -9.686  0.00  0.00    -0.082 C 
ATOM     10  C   UNL     1      -9.432   0.864  -8.928  0.00  0.00    -0.010 C 
ATOM     11  C   UNL     1     -12.330   2.239  -6.314  0.00  0.00    +0.247 C 
ATOM     12  O   UNL     1     -13.293   1.655  -6.778  0.00  0.00    -0.270 OA
ATOM     13  H   UNL     1      -8.124  -1.243  -9.754  0.00  0.00    -0.086 HD
ATOM     14  H   UNL     1      -9.373  -2.282 -10.018  0.00  0.00    -0.086 HD
ENDROOT
BRANCH  11  15
ATOM     15  C   UNL     1     -12.476   3.550  -5.806  0.00  0.00    +0.072 C 
ATOM     16  C   UNL     1     -12.108   4.692  -6.419  0.00  0.00    +0.047 C 
ATOM     17  N   UNL     1     -12.395   5.774  -5.647  0.00  0.00    -0.269 N 
ATOM     18  O   UNL     1     -12.994   5.369  -4.431  0.00  0.00    -0.260 OA
ATOM     19  C   UNL     1     -13.081   3.937  -4.475  0.00  0.00    +0.237 C 
ATOM     20  C   UNL     1     -11.463   4.760  -7.780  0.00  0.00    +0.066 C 
ATOM     21  H   UNL     1     -12.213   6.694  -5.895  0.00  0.00    +0.194 HD
BRANCH  19  22
ATOM     22  C   UNL     1     -12.289   3.332  -3.344  0.00  0.00    +0.120 A 
ATOM     23  C   UNL     1     -11.677   4.039  -2.294  0.00  0.00    +0.073 A 
ATOM     24  C   UNL     1     -11.068   3.148  -1.488  0.00  0.00    +0.135 A 
ATOM     25  O   UNL     1     -11.276   1.922  -1.993  0.00  0.00    -0.360 OA
ATOM     26  N   UNL     1     -12.057   2.062  -3.166  0.00  0.00    -0.080 NA
ATOM     27  C   UNL     1     -10.290   3.471  -0.239  0.00  0.00    +0.089 C 
ENDBRANCH  19  22
ENDBRANCH  11  15
BRANCH   1  29
ATOM     28  N   UNL     1      -6.320   1.355  -6.536  0.00  0.00    -0.315 N 
ATOM     29  C   UNL     1      -7.519   1.315  -5.920  0.00  0.00    +0.218 C 
ATOM     30  O   UNL     1      -7.596   0.945  -4.768  0.00  0.00    -0.275 OA
ATOM     31  H   UNL     1      -6.258   1.651  -7.457  0.00  0.00    +0.149 HD
BRANCH  28  32
ATOM     32  C   UNL     1      -5.111   0.953  -5.812  0.00  0.00    +0.109 C 
BRANCH  32  33
ATOM     33  C   UNL     1      -3.897   1.092  -6.732  0.00  0.00    +0.056 C 
BRANCH  33  40
ATOM     34  C   UNL     1       1.013  -1.632  -3.941  0.00  0.00    +0.046 C 
ATOM     35  C   UNL     1      -0.247  -1.728  -4.761  0.00  0.00    -0.027 A 
ATOM     36  C   UNL     1      -0.690  -2.954  -5.207  0.00  0.00    +0.005 A 
ATOM     37  C   UNL     1      -1.849  -3.055  -5.964  0.00  0.00    +0.001 A 
ATOM     38  C   UNL     1      -2.571  -1.938  -6.281  0.00  0.00    +0.010 A 
ATOM     39  C   UNL     1      -2.140  -0.686  -5.839  0.00  0.00    +0.003 A 
ATOM     40  C   UNL     1      -2.653   0.678  -5.988  0.00  0.00    -0.021 A 
ATOM     41  C   UNL     1      -1.805   1.489  -5.337  0.00  0.00    +0.087 A 
ATOM     42  N   UNL     1      -0.791   0.756  -4.783  0.00  0.00    -0.360 N 
ATOM     43  C   UNL     1      -0.969  -0.579  -5.067  0.00  0.00    +0.050 A 
ATOM     44  H   UNL     1      -0.058   1.123  -4.264  0.00  0.00    +0.165 HD
ENDBRANCH  33  40
ENDBRANCH  32  33
ENDBRANCH  28  32
ENDBRANCH   1  29
TORSDOF 6
