REMARK  Name = ZINC62825489
REMARK  4 active torsions:
REMARK  status: ('A' for Active; 'I' for Inactive)
REMARK    1  A    between atoms: C_5  and  N_10
REMARK    2  A    between atoms: C_6  and  C_7
REMARK    3  A    between atoms: N_13  and  C_14
REMARK    4  A    between atoms: C_14  and  C_15
REMARK                            x       y       z     vdW  Elec       q    Type
REMARK                         _______ _______ _______ _____ _____    ______ ____
ROOT
ATOM      1  C   UNL     1       0.190   1.372   0.776  0.00  0.00    +0.032 A 
ATOM      2  C   UNL     1       1.162   2.094   0.117  0.00  0.00    +0.020 A 
ATOM      3  C   UNL     1       2.158   1.441  -0.594  0.00  0.00    +0.032 A 
ATOM      4  C   UNL     1       2.188   0.062  -0.650  0.00  0.00    +0.041 A 
ATOM      5  C   UNL     1       1.217  -0.683   0.008  0.00  0.00    +0.063 A 
ATOM      6  C   UNL     1       0.207  -0.026   0.729  0.00  0.00    +0.086 A 
ATOM      7 BR   UNL     1       3.552  -0.814  -1.623  0.00  0.00    -0.048 Br
ATOM      8 BR   UNL     1       1.137   3.983   0.182  0.00  0.00    -0.050 Br
ENDROOT
BRANCH   5   9
ATOM      9  N   UNL     1       1.245  -2.074  -0.048  0.00  0.00    -0.268 N 
ATOM     10  C   UNL     1       2.408  -2.732   0.125  0.00  0.00    +0.304 C 
ATOM     11  O   UNL     1       3.422  -2.115   0.391  0.00  0.00    -0.253 OA
ATOM     12  N   UNL     1       2.448  -4.074   0.005  0.00  0.00    -0.299 N 
ATOM     13  H   UNL     1       0.427  -2.569  -0.212  0.00  0.00    +0.156 HD
ATOM     14  H   UNL     1       1.639  -4.566  -0.207  0.00  0.00    +0.150 HD
BRANCH  12  15
ATOM     15  C   UNL     1       3.712  -4.789   0.193  0.00  0.00    +0.109 C 
BRANCH  15  16
ATOM     16  C   UNL     1       3.483  -6.290   0.002  0.00  0.00    +0.006 C 
ATOM     17  C   UNL     1       3.719  -7.200   1.209  0.00  0.00    +0.005 C 
ATOM     18  C   UNL     1       4.710  -7.203   0.043  0.00  0.00    +0.005 C 
ENDBRANCH  15  16
ENDBRANCH  12  15
ENDBRANCH   5   9
BRANCH   6  19
ATOM     19  C   UNL     1      -0.827  -0.803   1.430  0.00  0.00    +0.388 C 
ATOM     20  O   UNL     1      -1.764  -0.229   1.968  0.00  0.00    -0.241 OA
ATOM     21  O   UNL     1      -0.750  -2.023   1.476  0.00  0.00    -0.241 OA
ENDBRANCH   6  19
TORSDOF 4
