REMARK  Name = ZINC22611701
REMARK  6 active torsions:
REMARK  status: ('A' for Active; 'I' for Inactive)
REMARK    1  A    between atoms: C_5  and  C_7
REMARK    2  A    between atoms: N_8  and  N_9
REMARK    3  A    between atoms: C_10  and  S_12
REMARK    4  A    between atoms: S_12  and  C_13
REMARK    5  A    between atoms: N_18  and  C_21
REMARK    6  A    between atoms: C_24  and  C_27
REMARK                            x       y       z     vdW  Elec       q    Type
REMARK                         _______ _______ _______ _____ _____    ______ ____
ROOT
ATOM      1  S   UNL     1       3.905  -6.282  -0.212  0.00  0.00    -0.078 S 
ENDROOT
BRANCH   1   2
ATOM      2  C   UNL     1       5.565  -7.012  -0.168  0.00  0.00    +0.149 C 
ATOM      3  C   UNL     1       5.481  -8.550  -0.095  0.00  0.00    +0.120 C 
ATOM      4  C   UNL     1       6.155  -8.880   1.218  0.00  0.00    +0.228 C 
ATOM      5  O   UNL     1       6.307  -9.995   1.669  0.00  0.00    -0.275 OA
ATOM      6  N   UNL     1       6.559  -7.746   1.804  0.00  0.00    -0.209 N 
ATOM      7  C   UNL     1       6.281  -6.631   1.109  0.00  0.00    +0.240 C 
ATOM      8  O   UNL     1       6.556  -5.501   1.450  0.00  0.00    -0.274 OA
BRANCH   6   9
ATOM      9  C   UNL     1       7.219  -7.723   3.035  0.00  0.00    +0.044 A 
ATOM     10  C   UNL     1       8.501  -8.250   3.145  0.00  0.00    +0.025 A 
ATOM     11  C   UNL     1       9.155  -8.230   4.356  0.00  0.00    +0.017 A 
ATOM     12  C   UNL     1       8.527  -7.679   5.478  0.00  0.00    +0.063 A 
ATOM     13  C   UNL     1       7.237  -7.150   5.363  0.00  0.00    +0.017 A 
ATOM     14  C   UNL     1       6.593  -7.169   4.147  0.00  0.00    +0.025 A 
BRANCH  12  15
ATOM     15  C   UNL     1       9.222  -7.656   6.776  0.00  0.00    +0.387 C 
ATOM     16  O   UNL     1      10.349  -8.119   6.875  0.00  0.00    -0.241 OA
ATOM     17  O   UNL     1       8.671  -7.173   7.756  0.00  0.00    -0.241 OA
ENDBRANCH  12  15
ENDBRANCH   6   9
ENDBRANCH   1   2
BRANCH   1  19
ATOM     18  N   UNL     1       3.145  -3.676  -0.446  0.00  0.00    -0.217 N 
ATOM     19  C   UNL     1       4.203  -4.554  -0.379  0.00  0.00    +0.146 C 
ATOM     20  N   UNL     1       5.427  -4.106  -0.439  0.00  0.00    -0.380 N 
ATOM     21  H   UNL     1       2.235  -4.009  -0.401  0.00  0.00    +0.176 HD
ATOM     22  H   UNL     1       6.173  -4.724  -0.392  0.00  0.00    +0.158 HD
ATOM     23  H   UNL     1       5.591  -3.154  -0.531  0.00  0.00    +0.158 HD
BRANCH  18  25
ATOM     24  C   UNL     1       2.384  -1.474  -0.641  0.00  0.00    +0.139 C 
ATOM     25  N   UNL     1       3.382  -2.301  -0.578  0.00  0.00    -0.188 NA
BRANCH  24  30
ATOM     26  C   UNL     1       1.803   2.218  -0.980  0.00  0.00    +0.001 A 
ATOM     27  C   UNL     1       3.102   2.690  -1.043  0.00  0.00    +0.001 A 
ATOM     28  C   UNL     1       4.169   1.812  -0.976  0.00  0.00    +0.020 A 
ATOM     29  C   UNL     1       3.943   0.456  -0.845  0.00  0.00    +0.050 A 
ATOM     30  C   UNL     1       2.634  -0.027  -0.780  0.00  0.00    +0.013 A 
ATOM     31  C   UNL     1       1.562   0.866  -0.849  0.00  0.00    +0.011 A 
ATOM     32 CL   UNL     1       5.283  -0.645  -0.762  0.00  0.00    -0.083 Cl
ENDBRANCH  24  30
ENDBRANCH  18  25
ENDBRANCH   1  19
TORSDOF 6
