REMARK  Name = ZINC01190298
REMARK  9 active torsions:
REMARK  status: ('A' for Active; 'I' for Inactive)
REMARK    1  A    between atoms: C_1  and  C_2
REMARK    2  A    between atoms: C_5  and  N_9
REMARK    3  A    between atoms: C_10  and  C_12
REMARK    4  A    between atoms: C_13  and  C_30
REMARK    5  A    between atoms: C_18  and  C_20
REMARK    6  A    between atoms: C_22  and  O_28
REMARK    7  A    between atoms: C_25  and  O_26
REMARK    8  A    between atoms: O_26  and  C_27
REMARK    9  A    between atoms: O_28  and  C_29
REMARK                            x       y       z     vdW  Elec       q    Type
REMARK                         _______ _______ _______ _____ _____    ______ ____
ROOT
ATOM      1  C   UNL     1      -2.975   4.238  -0.190  0.00  0.00    +0.056 C 
ATOM      2  C   UNL     1      -3.508   5.476  -0.114  0.00  0.00    +0.017 C 
ATOM      3  N   UNL     1      -4.840   5.657   0.124  0.00  0.00    -0.300 N 
ATOM      4  C   UNL     1      -5.705   4.652   0.305  0.00  0.00    +0.135 C 
ATOM      5  S   UNL     1      -7.351   5.018   0.601  0.00  0.00    -0.019 S 
ATOM      6  N   UNL     1      -5.323   3.360   0.262  0.00  0.00    -0.315 N 
ATOM      7  C   UNL     1      -3.904   3.058   0.007  0.00  0.00    +0.143 C 
ATOM      8  C   UNL     1      -2.618   6.679  -0.297  0.00  0.00    +0.061 C 
ATOM      9  H   UNL     1      -5.257   6.674   0.175  0.00  0.00    +0.154 HD
ATOM     10  H   UNL     1      -6.041   2.541   0.413  0.00  0.00    +0.149 HD
ENDROOT
BRANCH   7  11
ATOM     11  C   UNL     1      -3.828   2.195  -1.226  0.00  0.00    +0.022 A 
ATOM     12  C   UNL     1      -4.540   2.543  -2.358  0.00  0.00    +0.055 A 
ATOM     13  C   UNL     1      -4.470   1.750  -3.493  0.00  0.00    +0.121 A 
ATOM     14  C   UNL     1      -3.683   0.607  -3.492  0.00  0.00    +0.049 A 
ATOM     15  C   UNL     1      -2.971   0.260  -2.362  0.00  0.00    +0.049 A 
ATOM     16  C   UNL     1      -3.038   1.056  -1.228  0.00  0.00    +0.126 A 
BRANCH  16  17
ATOM     17  O   UNL     1      -2.332   0.716  -0.116  0.00  0.00    -0.495 OA
ATOM     18  C   UNL     1      -1.486  -0.432  -0.210  0.00  0.00    +0.277 C 
ENDBRANCH  16  17
BRANCH  13  19
ATOM     19  O   UNL     1      -5.171   2.092  -4.606  0.00  0.00    -0.495 OA
ATOM     20  C   UNL     1      -5.052   1.229  -5.739  0.00  0.00    +0.277 C 
ENDBRANCH  13  19
ENDBRANCH   7  11
BRANCH   1  22
ATOM     21  N   UNL     1      -1.127   4.090  -1.704  0.00  0.00    -0.282 N 
ATOM     22  C   UNL     1      -1.594   4.050  -0.440  0.00  0.00    +0.248 C 
ATOM     23  O   UNL     1      -0.829   3.850   0.486  0.00  0.00    -0.270 OA
ATOM     24  H   UNL     1      -1.797   4.371  -2.530  0.00  0.00    +0.155 HD
BRANCH  21  29
ATOM     25  C   UNL     1       4.301   2.830  -2.769  0.00  0.00    +0.045 C 
ATOM     26  C   UNL     1       2.859   3.164  -2.486  0.00  0.00    -0.032 A 
ATOM     27  C   UNL     1       2.522   3.837  -1.326  0.00  0.00    +0.006 A 
ATOM     28  C   UNL     1       1.201   4.145  -1.063  0.00  0.00    +0.023 A 
ATOM     29  C   UNL     1       0.211   3.776  -1.965  0.00  0.00    +0.035 A 
ATOM     30  C   UNL     1       0.552   3.100  -3.129  0.00  0.00    +0.043 A 
ATOM     31  C   UNL     1       1.876   2.795  -3.386  0.00  0.00    +0.046 A 
ATOM     32 CL   UNL     1       2.304   1.950  -4.841  0.00  0.00    -0.083 Cl
ENDBRANCH  21  29
ENDBRANCH   1  22
TORSDOF 5
