REMARK  Name = ZINC39344975
REMARK  10 active torsions:
REMARK  status: ('A' for Active; 'I' for Inactive)
REMARK    1  A    between atoms: C_1  and  O_2
REMARK    2  A    between atoms: O_2  and  C_3
REMARK    3  A    between atoms: C_3  and  C_5
REMARK    4  A    between atoms: C_7  and  N_34
REMARK    5  A    between atoms: C_11  and  N_27
REMARK    6  A    between atoms: N_15  and  C_16
REMARK    7  A    between atoms: C_16  and  C_17
REMARK    8  A    between atoms: C_17  and  C_18
REMARK    9  A    between atoms: N_27  and  C_28
REMARK   10  A    between atoms: C_35  and  C_37
REMARK                            x       y       z     vdW  Elec       q    Type
REMARK                         _______ _______ _______ _____ _____    ______ ____
ROOT
ATOM      1  C   UNL     1       0.616  -1.847  -1.137  0.00  0.00    +0.208 C 
ATOM      2  C   UNL     1       1.768  -2.386  -0.272  0.00  0.00    +0.138 C 
ATOM      3  C   UNL     1       2.530  -3.309  -1.194  0.00  0.00    +0.015 A 
ATOM      4  C   UNL     1       3.659  -4.078  -0.983  0.00  0.00    +0.033 A 
ATOM      5  C   UNL     1       4.147  -4.845  -2.040  0.00  0.00    +0.044 A 
ATOM      6  C   UNL     1       3.481  -4.805  -3.256  0.00  0.00    +0.107 A 
ATOM      7  N   UNL     1       2.409  -4.059  -3.418  0.00  0.00    -0.348 N 
ATOM      8  C   UNL     1       1.909  -3.311  -2.434  0.00  0.00    +0.105 A 
ATOM      9  N   UNL     1       0.791  -2.477  -2.449  0.00  0.00    -0.301 N 
ATOM     10  H   UNL     1       1.967  -4.054  -4.281  0.00  0.00    +0.167 HD
ENDROOT
BRANCH   2  11
ATOM     11  N   UNL     1       1.241  -3.126   0.877  0.00  0.00    -0.306 N 
ATOM     12  C   UNL     1       1.981  -3.248   1.997  0.00  0.00    +0.219 C 
ATOM     13  O   UNL     1       3.083  -2.744   2.053  0.00  0.00    -0.275 OA
ATOM     14  H   UNL     1       0.360  -3.529   0.832  0.00  0.00    +0.149 HD
BRANCH  12  15
ATOM     15  C   UNL     1       1.439  -4.009   3.179  0.00  0.00    +0.103 C 
ATOM     16  C   UNL     1       2.483  -4.050   4.322  0.00  0.00    +0.043 C 
ATOM     17  C   UNL     1       2.338  -5.503   4.842  0.00  0.00    +0.160 C 
ATOM     18  O   UNL     1       2.102  -6.269   3.640  0.00  0.00    -0.379 OA
ATOM     19  C   UNL     1       1.218  -5.489   2.812  0.00  0.00    +0.172 C 
ENDBRANCH  12  15
ENDBRANCH   2  11
BRANCH   1  20
ATOM     20  C   UNL     1       0.712  -0.348  -1.260  0.00  0.00    +0.330 C 
ATOM     21  O   UNL     1       1.347   0.145  -2.163  0.00  0.00    -0.249 OA
BRANCH  20  23
ATOM     22  C   UNL     1       0.226   1.852  -0.545  0.00  0.00    +0.280 C 
ATOM     23  O   UNL     1       0.093   0.440  -0.367  0.00  0.00    -0.467 OA
ENDBRANCH  20  23
ENDBRANCH   1  20
BRANCH   5  24
ATOM     24  N   UNL     1       5.287  -5.641  -1.877  0.00  0.00    -0.340 N 
ATOM     25  H   UNL     1       5.746  -5.662  -1.022  0.00  0.00    +0.146 HD
BRANCH  24  26
ATOM     26  C   UNL     1       5.788  -6.442  -2.997  0.00  0.00    +0.075 C 
ATOM     27  C   UNL     1       5.051  -7.784  -3.038  0.00  0.00    +0.050 C 
ATOM     28  C   UNL     1       5.634  -8.644  -4.161  0.00  0.00    +0.161 C 
ATOM     29  O   UNL     1       7.036  -8.821  -3.945  0.00  0.00    -0.380 OA
ATOM     30  C   UNL     1       7.784  -7.603  -3.944  0.00  0.00    +0.161 C 
ATOM     31  C   UNL     1       7.287  -6.701  -2.812  0.00  0.00    +0.050 C 
ENDBRANCH  24  26
ENDBRANCH   5  24
BRANCH   9  32
ATOM     32  C   UNL     1      -0.082  -2.260  -3.605  0.00  0.00    +0.112 C 
BRANCH  32  33
ATOM     33  C   UNL     1      -1.177  -3.328  -3.624  0.00  0.00    +0.056 C 
BRANCH  33  34
ATOM     34  C   UNL     1      -2.063  -3.118  -4.825  0.00  0.00    -0.021 A 
ATOM     35  C   UNL     1      -1.824  -3.618  -6.181  0.00  0.00    +0.003 A 
ATOM     36  C   UNL     1      -0.812  -4.375  -6.772  0.00  0.00    +0.010 A 
ATOM     37  C   UNL     1      -0.883  -4.684  -8.101  0.00  0.00    +0.001 A 
ATOM     38  C   UNL     1      -1.954  -4.249  -8.870  0.00  0.00    +0.002 A 
ATOM     39  C   UNL     1      -2.964  -3.500  -8.307  0.00  0.00    +0.026 A 
ATOM     40  C   UNL     1      -2.913  -3.175  -6.955  0.00  0.00    +0.047 A 
ATOM     41  N   UNL     1      -3.742  -2.462  -6.119  0.00  0.00    -0.360 N 
ATOM     42  C   UNL     1      -3.223  -2.443  -4.854  0.00  0.00    +0.087 A 
ATOM     43  H   UNL     1      -4.573  -2.038  -6.387  0.00  0.00    +0.165 HD
ENDBRANCH  33  34
ENDBRANCH  32  33
ENDBRANCH   9  32
TORSDOF 9
