REMARK  Name = ZINC22965782
REMARK  12 active torsions:
REMARK  status: ('A' for Active; 'I' for Inactive)
REMARK    1  A    between atoms: C_1  and  C_2
REMARK    2  A    between atoms: C_2  and  N_3
REMARK    3  A    between atoms: C_6  and  C_19
REMARK    4  A    between atoms: C_7  and  N_18
REMARK    5  A    between atoms: N_8  and  C_11
REMARK    6  A    between atoms: C_11  and  C_12
REMARK    7  A    between atoms: C_19  and  C_21
REMARK    8  A    between atoms: C_21  and  N_22
REMARK    9  A    between atoms: N_22  and  C_23
REMARK   10  A    between atoms: N_22  and  C_24
REMARK   11  A    between atoms: C_24  and  C_25
REMARK   12  A    between atoms: C_30  and  C_31
REMARK                            x       y       z     vdW  Elec       q    Type
REMARK                         _______ _______ _______ _____ _____    ______ ____
ROOT
ATOM      1  N   UNL     1      -7.141   4.135  -2.169  0.00  0.00    -0.260 N 
ATOM      2  C   UNL     1      -6.165   3.246  -1.888  0.00  0.00    +0.269 A 
ATOM      3  O   UNL     1      -6.127   2.688  -0.807  0.00  0.00    -0.267 OA
ATOM      4  C   UNL     1      -5.149   2.971  -2.911  0.00  0.00    +0.118 A 
ATOM      5  C   UNL     1      -5.254   3.644  -4.140  0.00  0.00    +0.116 A 
ATOM      6  N   UNL     1      -6.285   4.521  -4.327  0.00  0.00    -0.277 N 
ATOM      7  C   UNL     1      -7.190   4.748  -3.363  0.00  0.00    +0.334 A 
ATOM      8  O   UNL     1      -8.088   5.539  -3.578  0.00  0.00    -0.246 OA
ENDROOT
BRANCH   5   9
ATOM      9  N   UNL     1      -4.345   3.425  -5.128  0.00  0.00    -0.344 N 
ATOM     10  H   UNL     1      -4.436   3.957  -6.087  0.00  0.00    +0.144 HD
ATOM     11  H   UNL     1      -3.519   2.716  -4.969  0.00  0.00    +0.144 HD
ENDBRANCH   5   9
BRANCH   1  13
ATOM     12  C   UNL     1      -9.336   3.463  -1.327  0.00  0.00    +0.027 C 
ATOM     13  C   UNL     1      -8.162   4.430  -1.161  0.00  0.00    +0.126 C 
ENDBRANCH   1  13
BRANCH   4  14
ATOM     14  C   UNL     1      -4.102   2.055  -2.669  0.00  0.00    +0.155 C 
ATOM     15  O   UNL     1      -3.338   1.756  -3.565  0.00  0.00    -0.294 OA
BRANCH  14  16
ATOM     16  C   UNL     1      -3.933   1.448  -1.300  0.00  0.00    +0.002 C 
BRANCH  16  17
ATOM     17  N   UNL     1      -2.782   0.535  -1.309  0.00  0.00    +0.385 N 
ATOM     18  C   UNL     1      -3.035  -0.624  -2.176  0.00  0.00    -0.095 C 
ATOM     19  H   UNL     1      -1.920   1.082  -1.718  0.00  0.00    -0.081 HD
BRANCH  17  20
ATOM     20  C   UNL     1      -2.440   0.107   0.054  0.00  0.00    -0.042 C 
BRANCH  20  21
ATOM     21  C   UNL     1      -1.121  -0.622   0.036  0.00  0.00    -0.052 A 
ATOM     22  C   UNL     1      -1.095  -2.004   0.055  0.00  0.00    +0.002 A 
ATOM     23  C   UNL     1       0.115  -2.672   0.037  0.00  0.00    +0.000 A 
ATOM     24  C   UNL     1       1.299  -1.959   0.001  0.00  0.00    +0.001 A 
ATOM     25  C   UNL     1       1.272  -0.577  -0.023  0.00  0.00    +0.012 A 
ATOM     26  C   UNL     1       0.062   0.092   0.000  0.00  0.00    +0.056 A 
BRANCH  26  27
ATOM     27  C   UNL     1       0.033   1.598  -0.021  0.00  0.00    +0.418 C 
ATOM     28  F   UNL     1       1.343   2.089  -0.056  0.00  0.00    -0.166 F 
ATOM     29  F   UNL     1      -0.660   2.036  -1.154  0.00  0.00    -0.166 F 
ATOM     30  F   UNL     1      -0.610   2.068   1.129  0.00  0.00    -0.166 F 
ENDBRANCH  26  27
ENDBRANCH  20  21
ENDBRANCH  17  20
ENDBRANCH  16  17
ENDBRANCH  14  16
ENDBRANCH   4  14
BRANCH   6  31
ATOM     31  C   UNL     1      -6.403   5.228  -5.604  0.00  0.00    +0.163 C 
BRANCH  31  32
ATOM     32  C   UNL     1      -7.249   4.416  -6.551  0.00  0.00    -0.028 A 
ATOM     33  C   UNL     1      -6.655   3.490  -7.388  0.00  0.00    +0.005 A 
ATOM     34  C   UNL     1      -7.432   2.742  -8.253  0.00  0.00    +0.000 A 
ATOM     35  C   UNL     1      -8.801   2.927  -8.288  0.00  0.00    +0.000 A 
ATOM     36  C   UNL     1      -9.395   3.856  -7.454  0.00  0.00    +0.000 A 
ATOM     37  C   UNL     1      -8.619   4.601  -6.586  0.00  0.00    +0.005 A 
ENDBRANCH  31  32
ENDBRANCH   6  31
TORSDOF 10
