REMARK  Name = ZINC36610337
REMARK  17 active torsions:
REMARK  status: ('A' for Active; 'I' for Inactive)
REMARK    1  A    between atoms: C_1  and  C_2
REMARK    2  A    between atoms: C_2  and  C_4
REMARK    3  A    between atoms: C_2  and  C_10
REMARK    4  A    between atoms: C_10  and  C_12
REMARK    5  A    between atoms: C_10  and  N_23
REMARK    6  A    between atoms: N_14  and  C_15
REMARK    7  A    between atoms: C_15  and  C_16
REMARK    8  A    between atoms: C_15  and  C_17
REMARK    9  A    between atoms: C_15  and  C_18
REMARK   10  A    between atoms: C_18  and  C_19
REMARK   11  A    between atoms: C_19  and  C_20
REMARK   12  A    between atoms: C_19  and  C_21
REMARK   13  A    between atoms: C_19  and  C_22
REMARK   14  A    between atoms: N_23  and  C_24
REMARK   15  A    between atoms: C_30  and  C_32
REMARK   16  A    between atoms: C_36  and  O_39
REMARK   17  A    between atoms: C_37  and  O_38
REMARK                            x       y       z     vdW  Elec       q    Type
REMARK                         _______ _______ _______ _____ _____    ______ ____
ROOT
ATOM      1  C   UNL     1       1.774  -2.829  -1.897  0.00  0.00    +0.174 C 
ENDROOT
BRANCH   1   2
ATOM      2  C   UNL     1       1.736  -4.205  -1.281  0.00  0.00    +0.235 C 
ATOM      3  O   UNL     1       1.498  -5.172  -1.972  0.00  0.00    -0.274 OA
ATOM      4  N   UNL     1       1.968  -4.359   0.038  0.00  0.00    -0.309 N 
ATOM      5  H   UNL     1       2.109  -3.582   0.600  0.00  0.00    +0.149 HD
BRANCH   4   6
ATOM      6  C   UNL     1       2.006  -5.702   0.622  0.00  0.00    +0.030 C 
ATOM      7  C   UNL     1       0.595  -6.292   0.638  0.00  0.00    +0.031 C 
ATOM      8  C   UNL     1       2.923  -6.596  -0.215  0.00  0.00    +0.031 C 
BRANCH   6   9
ATOM      9  C   UNL     1       2.541  -5.620   2.053  0.00  0.00    +0.031 C 
BRANCH   9  10
ATOM     10  C   UNL     1       3.655  -4.574   2.123  0.00  0.00    -0.036 C 
ATOM     11  C   UNL     1       3.055  -3.214   2.485  0.00  0.00    +0.010 C 
ATOM     12  C   UNL     1       4.673  -4.983   3.189  0.00  0.00    +0.010 C 
ATOM     13  C   UNL     1       4.351  -4.479   0.763  0.00  0.00    +0.010 C 
ENDBRANCH   9  10
ENDBRANCH   6   9
ENDBRANCH   4   6
ENDBRANCH   1   2
BRANCH   1  14
ATOM     14  N   UNL     1       1.664  -2.943  -3.353  0.00  0.00    -0.255 N 
ATOM     15  C   UNL     1       2.574  -2.343  -4.146  0.00  0.00    +0.255 C 
ATOM     16  O   UNL     1       3.513  -1.749  -3.653  0.00  0.00    -0.269 OA
BRANCH  14  17
ATOM     17  C   UNL     1       0.616  -3.675  -3.920  0.00  0.00    +0.037 A 
ATOM     18  C   UNL     1       0.870  -4.897  -4.529  0.00  0.00    +0.023 A 
ATOM     19  C   UNL     1      -0.168  -5.616  -5.088  0.00  0.00    +0.002 A 
ATOM     20  C   UNL     1      -1.458  -5.122  -5.042  0.00  0.00    +0.000 A 
ATOM     21  C   UNL     1      -1.714  -3.905  -4.437  0.00  0.00    +0.002 A 
ATOM     22  C   UNL     1      -0.682  -3.183  -3.870  0.00  0.00    +0.023 A 
ENDBRANCH  14  17
BRANCH  15  23
ATOM     23  C   UNL     1       2.429  -2.407  -5.613  0.00  0.00    +0.082 A 
ATOM     24  C   UNL     1       1.212  -2.792  -6.183  0.00  0.00    +0.017 A 
ATOM     25  C   UNL     1       1.081  -2.851  -7.553  0.00  0.00    +0.005 A 
ATOM     26  C   UNL     1       2.151  -2.530  -8.373  0.00  0.00    +0.049 A 
ATOM     27  C   UNL     1       3.362  -2.146  -7.824  0.00  0.00    +0.159 A 
ATOM     28  C   UNL     1       3.509  -2.076  -6.441  0.00  0.00    +0.171 A 
BRANCH  28  29
ATOM     29  O   UNL     1       4.693  -1.695  -5.899  0.00  0.00    -0.503 OA
ATOM     30  H   UNL     1       5.302  -2.427  -5.731  0.00  0.00    +0.292 HD
ENDBRANCH  28  29
BRANCH  27  31
ATOM     31  O   UNL     1       4.408  -1.832  -8.635  0.00  0.00    -0.503 OA
ATOM     32  H   UNL     1       4.448  -0.898  -8.881  0.00  0.00    +0.292 HD
ENDBRANCH  27  31
ENDBRANCH  15  23
ENDBRANCH   1  14
BRANCH   1  34
ATOM     33  C   UNL     1       0.521  -0.681  -2.135  0.00  0.00    +0.015 C 
ATOM     34  C   UNL     1       0.607  -1.998  -1.360  0.00  0.00    +0.046 C 
BRANCH  34  35
ATOM     35  C   UNL     1       0.828  -1.707   0.102  0.00  0.00    -0.042 A 
ATOM     36  C   UNL     1       1.958  -1.023   0.508  0.00  0.00    +0.004 A 
ATOM     37  C   UNL     1       2.161  -0.757   1.849  0.00  0.00    +0.000 A 
ATOM     38  C   UNL     1       1.232  -1.173   2.784  0.00  0.00    +0.000 A 
ATOM     39  C   UNL     1       0.101  -1.857   2.378  0.00  0.00    +0.000 A 
ATOM     40  C   UNL     1      -0.103  -2.119   1.037  0.00  0.00    +0.004 A 
ENDBRANCH  34  35
ENDBRANCH   1  34
TORSDOF 11
