REMARK  Name = ZINC12918818
REMARK  15 active torsions:
REMARK  status: ('A' for Active; 'I' for Inactive)
REMARK    1  A    between atoms: C_1  and  C_2
REMARK    2  A    between atoms: C_2  and  O_3
REMARK    3  A    between atoms: O_3  and  C_4
REMARK    4  A    between atoms: C_4  and  C_6
REMARK    5  A    between atoms: C_7  and  C_23
REMARK    6  A    between atoms: C_10  and  N_11
REMARK    7  A    between atoms: C_12  and  C_14
REMARK    8  A    between atoms: C_14  and  N_59
REMARK    9  A    between atoms: C_15  and  C_16
REMARK   10  A    between atoms: C_15  and  N_59
REMARK   11  A    between atoms: C_16  and  C_17
REMARK   12  A    between atoms: C_16  and  C_18
REMARK   13  A    between atoms: C_19  and  C_20
REMARK   14  A    between atoms: C_19  and  N_59
REMARK   15  A    between atoms: C_26  and  C_29
REMARK                            x       y       z     vdW  Elec       q    Type
REMARK                         _______ _______ _______ _____ _____    ______ ____
ROOT
ATOM      1  C   UNL     1      -2.880  -0.493  -2.602  0.00  0.00    +0.095 A 
ATOM      2  C   UNL     1      -3.557  -1.770  -2.729  0.00  0.00    +0.005 A 
ATOM      3  C   UNL     1      -2.924  -2.852  -2.209  0.00  0.00    +0.056 A 
ATOM      4  S   UNL     1      -1.417  -2.167  -1.553  0.00  0.00    -0.080 S 
ATOM      5  C   UNL     1      -1.649  -0.501  -1.959  0.00  0.00    +0.086 A 
ENDROOT
BRANCH   2   6
ATOM      6  C   UNL     1      -4.877  -1.887  -3.395  0.00  0.00    -0.017 A 
ATOM      7  C   UNL     1      -5.922  -1.040  -3.030  0.00  0.00    +0.009 A 
ATOM      8  C   UNL     1      -7.146  -1.150  -3.658  0.00  0.00    +0.004 A 
ATOM      9  C   UNL     1      -7.340  -2.106  -4.639  0.00  0.00    -0.050 A 
ATOM     10  C   UNL     1      -6.308  -2.953  -5.001  0.00  0.00    +0.004 A 
ATOM     11  C   UNL     1      -5.078  -2.848  -4.385  0.00  0.00    +0.009 A 
ATOM     12  C   UNL     1      -8.682  -2.225  -5.316  0.00  0.00    +0.044 C 
ENDBRANCH   2   6
BRANCH   5  13
ATOM     13  N   UNL     1      -0.805   0.569  -1.708  0.00  0.00    -0.281 N 
ATOM     14  C   UNL     1       0.362   0.371  -1.065  0.00  0.00    +0.201 C 
ATOM     15  O   UNL     1       0.674  -0.745  -0.706  0.00  0.00    -0.278 OA
ATOM     16  H   UNL     1      -1.055   1.462  -1.996  0.00  0.00    +0.155 HD
BRANCH  14  17
ATOM     17  C   UNL     1       1.283   1.534  -0.798  0.00  0.00    +0.020 C 
BRANCH  17  18
ATOM     18  N   UNL     1       2.493   1.036  -0.111  0.00  0.00    +0.391 N 
ATOM     19  H   UNL     1       2.882   0.252  -0.647  0.00  0.00    -0.080 HD
BRANCH  18  20
ATOM     20  C   UNL     1       3.505   2.110  -0.028  0.00  0.00    -0.075 C 
BRANCH  20  21
ATOM     21  C   UNL     1       4.891   1.469   0.055  0.00  0.00    -0.034 C 
ATOM     22  C   UNL     1       5.191   0.732  -1.252  0.00  0.00    +0.005 C 
ATOM     23  C   UNL     1       5.943   2.557   0.281  0.00  0.00    +0.005 C 
ENDBRANCH  20  21
ENDBRANCH  18  20
BRANCH  18  24
ATOM     24  C   UNL     1       2.145   0.563   1.246  0.00  0.00    +0.019 C 
BRANCH  24  25
ATOM     25  C   UNL     1       3.166  -0.458   1.676  0.00  0.00    +0.194 C 
ATOM     26  O   UNL     1       4.006  -0.844   0.891  0.00  0.00    -0.278 OA
ATOM     27  N   UNL     1       3.147  -0.942   2.934  0.00  0.00    -0.331 N 
ATOM     28  H   UNL     1       2.475  -0.633   3.562  0.00  0.00    +0.145 HD
ATOM     29  H   UNL     1       3.804  -1.599   3.211  0.00  0.00    +0.145 HD
ENDBRANCH  24  25
ENDBRANCH  18  24
ENDBRANCH  17  18
ENDBRANCH  14  17
ENDBRANCH   5  13
BRANCH   1  30
ATOM     30  C   UNL     1      -3.466   0.742  -3.124  0.00  0.00    +0.342 C 
ATOM     31  O   UNL     1      -3.228   1.093  -4.264  0.00  0.00    -0.245 OA
BRANCH  30  32
ATOM     32  O   UNL     1      -4.268   1.491  -2.341  0.00  0.00    -0.461 OA
BRANCH  32  34
ATOM     33  C   UNL     1      -5.693   3.415  -1.894  0.00  0.00    +0.048 C 
ATOM     34  C   UNL     1      -4.814   2.703  -2.925  0.00  0.00    +0.229 C 
ENDBRANCH  32  34
ENDBRANCH  30  32
ENDBRANCH   1  30
TORSDOF 11
