REMARK  Name = ZINC63411404
REMARK  3 active torsions:
REMARK  status: ('A' for Active; 'I' for Inactive)
REMARK    1  A    between atoms: C_4  and  N_7
REMARK    2  A    between atoms: N_9  and  C_24
REMARK    3  A    between atoms: C_13  and  C_14
REMARK                            x       y       z     vdW  Elec       q    Type
REMARK                         _______ _______ _______ _____ _____    ______ ____
ROOT
ATOM      1  N   UNL     1       3.218  -1.565  -0.592  0.00  0.00    -0.225 NA
ATOM      2  C   UNL     1       3.638  -2.056   0.551  0.00  0.00    +0.169 C 
ATOM      3  N   UNL     1       2.960  -2.137   1.748  0.00  0.00    -0.243 N 
ATOM      4  C   UNL     1       3.534  -2.665   2.816  0.00  0.00    +0.259 C 
ATOM      5  O   UNL     1       2.951  -2.745   3.880  0.00  0.00    -0.269 OA
ATOM      6  C   UNL     1       4.925  -3.156   2.651  0.00  0.00    +0.078 C 
ATOM      7  C   UNL     1       5.762  -3.747   3.579  0.00  0.00    +0.026 C 
ATOM      8  S   UNL     1       5.223  -2.785   0.929  0.00  0.00    -0.049 S 
ENDROOT
BRANCH   7   9
ATOM      9  C   UNL     1       7.048  -4.138   3.209  0.00  0.00    -0.018 C 
ATOM     10  C   UNL     1       8.011  -4.748   4.015  0.00  0.00    +0.003 A 
ATOM     11  C   UNL     1       8.009  -5.144   5.370  0.00  0.00    +0.010 A 
ATOM     12  C   UNL     1       9.113  -5.728   5.902  0.00  0.00    +0.001 A 
ATOM     13  C   UNL     1      10.263  -5.952   5.140  0.00  0.00    +0.002 A 
ATOM     14  C   UNL     1      10.336  -5.598   3.835  0.00  0.00    +0.026 A 
ATOM     15  C   UNL     1       9.220  -4.982   3.207  0.00  0.00    +0.043 A 
ATOM     16  N   UNL     1       9.042  -4.552   1.976  0.00  0.00    -0.380 N 
ATOM     17  C   UNL     1       7.691  -3.997   1.847  0.00  0.00    +0.149 C 
ATOM     18  H   UNL     1       9.699  -4.599   1.264  0.00  0.00    +0.160 HD
ENDBRANCH   7   9
BRANCH   1  22
ATOM     19  C   UNL     1       0.533   1.581  -0.632  0.00  0.00    +0.000 A 
ATOM     20  C   UNL     1       1.538   1.546   0.319  0.00  0.00    +0.002 A 
ATOM     21  C   UNL     1       2.437   0.500   0.338  0.00  0.00    +0.028 A 
ATOM     22  C   UNL     1       2.330  -0.526  -0.605  0.00  0.00    +0.067 A 
ATOM     23  C   UNL     1       1.312  -0.483  -1.561  0.00  0.00    +0.028 A 
ATOM     24  C   UNL     1       0.421   0.569  -1.569  0.00  0.00    +0.002 A 
ENDBRANCH   1  22
BRANCH   3  25
ATOM     25  C   UNL     1       1.588  -1.632   1.839  0.00  0.00    +0.084 C 
ATOM     26  C   UNL     1       0.871  -2.264   3.049  0.00  0.00    +0.023 C 
ATOM     27  C   UNL     1      -0.582  -2.483   2.559  0.00  0.00    +0.002 C 
ATOM     28  C   UNL     1      -0.384  -2.916   1.085  0.00  0.00    +0.002 C 
ATOM     29  C   UNL     1       0.790  -2.046   0.590  0.00  0.00    +0.023 C 
ENDBRANCH   3  25
TORSDOF 3
