REMARK  Name = ZINC38762516
REMARK  9 active torsions:
REMARK  status: ('A' for Active; 'I' for Inactive)
REMARK    1  A    between atoms: C_1  and  C_2
REMARK    2  A    between atoms: C_4  and  C_8
REMARK    3  A    between atoms: C_8  and  O_9
REMARK    4  A    between atoms: O_9  and  C_10
REMARK    5  A    between atoms: C_10  and  C_12
REMARK    6  A    between atoms: C_12  and  C_14
REMARK    7  A    between atoms: C_12  and  N_24
REMARK    8  A    between atoms: C_14  and  C_15
REMARK    9  A    between atoms: C_25  and  C_27
REMARK                            x       y       z     vdW  Elec       q    Type
REMARK                         _______ _______ _______ _____ _____    ______ ____
ROOT
ATOM      1  C   UNL     1      -0.500  -2.062  -4.884  0.00  0.00    +0.186 C 
ENDROOT
BRANCH   1   2
ATOM      2  N   UNL     1      -0.631  -3.013  -5.991  0.00  0.00    -0.298 N 
ATOM      3  C   UNL     1      -1.845  -3.486  -6.334  0.00  0.00    +0.246 C 
ATOM      4  O   UNL     1      -2.833  -3.123  -5.724  0.00  0.00    -0.270 OA
ATOM      5  H   UNL     1       0.157  -3.302  -6.477  0.00  0.00    +0.150 HD
BRANCH   3   6
ATOM      6  C   UNL     1      -1.977  -4.445  -7.450  0.00  0.00    +0.055 A 
ATOM      7  C   UNL     1      -0.844  -4.868  -8.148  0.00  0.00    +0.014 A 
ATOM      8  C   UNL     1      -0.974  -5.764  -9.188  0.00  0.00    +0.001 A 
ATOM      9  C   UNL     1      -2.223  -6.244  -9.542  0.00  0.00    +0.001 A 
ATOM     10  C   UNL     1      -3.349  -5.830  -8.856  0.00  0.00    +0.021 A 
ATOM     11  C   UNL     1      -3.234  -4.937  -7.808  0.00  0.00    +0.053 A 
ATOM     12 CL   UNL     1      -4.649  -4.424  -6.942  0.00  0.00    -0.083 Cl
ENDBRANCH   3   6
ENDBRANCH   1   2
BRANCH   1  13
ATOM     13  C   UNL     1      -1.016  -2.692  -3.617  0.00  0.00    +0.328 C 
ATOM     14  O   UNL     1      -1.762  -3.641  -3.674  0.00  0.00    -0.249 OA
BRANCH  13  15
ATOM     15  O   UNL     1      -0.647  -2.200  -2.424  0.00  0.00    -0.459 OA
BRANCH  15  16
ATOM     16  C   UNL     1      -1.175  -2.847  -1.264  0.00  0.00    +0.288 C 
BRANCH  16  20
ATOM     17  C   UNL     1      -0.018   1.503   0.010  0.00  0.00    +0.085 C 
ATOM     18  C   UNL     1       0.002  -0.004   0.002  0.00  0.00    +0.100 C 
ATOM     19  N   UNL     1      -1.054  -0.741   0.003  0.00  0.00    -0.344 N 
ATOM     20  C   UNL     1      -0.646  -2.151  -0.007  0.00  0.00    +0.280 C 
ATOM     21  O   UNL     1       0.790  -2.128  -0.015  0.00  0.00    -0.245 OA
ATOM     22  N   UNL     1       1.142  -0.754  -0.013  0.00  0.00    -0.252 N 
ATOM     23  H   UNL     1       2.047  -0.404  -0.020  0.00  0.00    +0.195 HD
ATOM     24  H   UNL     1      -1.968  -0.417   0.010  0.00  0.00    +0.163 HD
ENDBRANCH  16  20
ENDBRANCH  15  16
ENDBRANCH  13  15
ENDBRANCH   1  13
BRANCH   1  25
ATOM     25  C   UNL     1      -1.313  -0.803  -5.195  0.00  0.00    +0.071 C 
BRANCH  25  26
ATOM     26  C   UNL     1      -0.720  -0.105  -6.392  0.00  0.00    -0.020 A 
ATOM     27  C   UNL     1      -1.001  -0.399  -7.800  0.00  0.00    +0.003 A 
ATOM     28  C   UNL     1      -1.821  -1.320  -8.454  0.00  0.00    +0.010 A 
ATOM     29  C   UNL     1      -1.863  -1.342  -9.819  0.00  0.00    +0.001 A 
ATOM     30  C   UNL     1      -1.096  -0.455 -10.562  0.00  0.00    +0.002 A 
ATOM     31  C   UNL     1      -0.280   0.462  -9.937  0.00  0.00    +0.026 A 
ATOM     32  C   UNL     1      -0.222   0.502  -8.548  0.00  0.00    +0.047 A 
ATOM     33  N   UNL     1       0.475   1.279  -7.650  0.00  0.00    -0.360 N 
ATOM     34  C   UNL     1       0.162   0.907  -6.371  0.00  0.00    +0.087 A 
ATOM     35  H   UNL     1       1.093   1.987  -7.888  0.00  0.00    +0.165 HD
ENDBRANCH  25  26
ENDBRANCH   1  25
TORSDOF 8
