REMARK  Name = ZINC51096684
REMARK  6 active torsions:
REMARK  status: ('A' for Active; 'I' for Inactive)
REMARK    1  A    between atoms: C_1  and  C_2
REMARK    2  A    between atoms: C_4  and  C_20
REMARK    3  A    between atoms: C_6  and  N_8
REMARK    4  A    between atoms: C_9  and  C_11
REMARK    5  A    between atoms: C_13  and  N_18
REMARK    6  A    between atoms: N_18  and  N_19
REMARK                            x       y       z     vdW  Elec       q    Type
REMARK                         _______ _______ _______ _____ _____    ______ ____
ROOT
ATOM      1  N   UNL     1       0.052  -2.797   2.392  0.00  0.00    -0.281 N 
ATOM      2  C   UNL     1       0.150  -2.134   3.561  0.00  0.00    +0.248 C 
ATOM      3  O   UNL     1       0.134  -0.919   3.574  0.00  0.00    -0.270 OA
ATOM      4  H   UNL     1      -0.012  -3.765   2.387  0.00  0.00    +0.155 HD
ENDROOT
BRANCH   1  10
ATOM      5  C   UNL     1      -1.513  -2.364  -2.248  0.00  0.00    +0.044 C 
ATOM      6  C   UNL     1      -0.707  -1.857  -1.080  0.00  0.00    -0.048 A 
ATOM      7  C   UNL     1       0.025  -0.690  -1.201  0.00  0.00    +0.006 A 
ATOM      8  C   UNL     1       0.766  -0.221  -0.132  0.00  0.00    -0.048 A 
ATOM      9  C   UNL     1       0.777  -0.917   1.061  0.00  0.00    +0.026 A 
ATOM     10  C   UNL     1       0.043  -2.089   1.186  0.00  0.00    +0.034 A 
ATOM     11  C   UNL     1      -0.704  -2.555   0.112  0.00  0.00    +0.026 A 
ATOM     12  C   UNL     1       1.563   1.051  -0.268  0.00  0.00    +0.044 C 
ENDBRANCH   1  10
BRANCH   2  13
ATOM     13  C   UNL     1       0.278  -2.887   4.831  0.00  0.00    +0.043 A 
ATOM     14  C   UNL     1       0.375  -2.219   6.053  0.00  0.00    +0.057 A 
ATOM     15  C   UNL     1       0.493  -2.965   7.220  0.00  0.00    +0.134 A 
ATOM     16  N   UNL     1       0.514  -4.288   7.178  0.00  0.00    -0.220 NA
ATOM     17  C   UNL     1       0.424  -4.952   6.041  0.00  0.00    +0.132 A 
ATOM     18  C   UNL     1       0.299  -4.286   4.837  0.00  0.00    +0.053 A 
ATOM     19 CL   UNL     1       0.458  -6.688   6.059  0.00  0.00    -0.062 Cl
BRANCH  15  20
ATOM     20  N   UNL     1       0.591  -2.315   8.445  0.00  0.00    -0.267 N 
ATOM     21  H   UNL     1       0.576  -1.345   8.482  0.00  0.00    +0.167 HD
BRANCH  20  22
ATOM     22  N   UNL     1       0.707  -3.040   9.596  0.00  0.00    -0.255 NA
ATOM     23  H   UNL     1       1.499  -3.664   9.553  0.00  0.00    +0.140 HD
ATOM     24  H   UNL     1       0.768  -2.434  10.401  0.00  0.00    +0.140 HD
ENDBRANCH  20  22
ENDBRANCH  15  20
ENDBRANCH   2  13
TORSDOF 4
