REMARK  Name = ZINC09462469
REMARK  13 active torsions:
REMARK  status: ('A' for Active; 'I' for Inactive)
REMARK    1  A    between atoms: C_1  and  C_2
REMARK    2  A    between atoms: C_2  and  C_3
REMARK    3  A    between atoms: C_2  and  C_4
REMARK    4  A    between atoms: C_2  and  C_5
REMARK    5  A    between atoms: C_8  and  C_11
REMARK    6  A    between atoms: C_13  and  C_23
REMARK    7  A    between atoms: C_14  and  O_22
REMARK    8  A    between atoms: N_17  and  C_18
REMARK    9  A    between atoms: C_18  and  C_19
REMARK   10  A    between atoms: C_19  and  N_66
REMARK   11  A    between atoms: C_20  and  N_66
REMARK   12  A    between atoms: C_21  and  N_66
REMARK   13  A    between atoms: C_23  and  C_25
REMARK                            x       y       z     vdW  Elec       q    Type
REMARK                         _______ _______ _______ _____ _____    ______ ____
ROOT
ATOM      1  C   UNL     1       0.131  -3.025  -0.055  0.00  0.00    +0.144 C 
ATOM      2  C   UNL     1      -1.143  -2.214  -0.051  0.00  0.00    +0.071 C 
ATOM      3  C   UNL     1      -2.168  -3.096  -0.122  0.00  0.00    +0.188 C 
ATOM      4  C   UNL     1      -1.623  -4.468  -0.184  0.00  0.00    +0.282 C 
ATOM      5  O   UNL     1      -2.291  -5.481  -0.257  0.00  0.00    -0.267 OA
ATOM      6  N   UNL     1      -0.279  -4.431  -0.141  0.00  0.00    -0.285 N 
ENDROOT
BRANCH   1  10
ATOM      7  C   UNL     1       2.526  -1.980  -3.434  0.00  0.00    -0.042 A 
ATOM      8  C   UNL     1       2.889  -1.551  -2.171  0.00  0.00    +0.004 A 
ATOM      9  C   UNL     1       2.114  -1.889  -1.077  0.00  0.00    +0.006 A 
ATOM     10  C   UNL     1       0.976  -2.656  -1.247  0.00  0.00    -0.022 A 
ATOM     11  C   UNL     1       0.617  -3.090  -2.509  0.00  0.00    +0.006 A 
ATOM     12  C   UNL     1       1.389  -2.748  -3.603  0.00  0.00    +0.004 A 
BRANCH   7  14
ATOM     13  C   UNL     1       4.786  -2.162  -4.440  0.00  0.00    +0.015 C 
ATOM     14  C   UNL     1       3.371  -1.610  -4.626  0.00  0.00    -0.013 C 
ATOM     15  C   UNL     1       2.753  -2.206  -5.893  0.00  0.00    +0.015 C 
ATOM     16  C   UNL     1       3.431  -0.087  -4.756  0.00  0.00    +0.015 C 
ENDBRANCH   7  14
ENDBRANCH   1  10
BRANCH   3  17
ATOM     17  O   UNL     1      -3.481  -2.772  -0.138  0.00  0.00    -0.502 OA
ATOM     18  H   UNL     1      -4.030  -3.606  -0.195  0.00  0.00    +0.292 HD
ENDBRANCH   3  17
BRANCH   2  19
ATOM     19  C   UNL     1      -1.250  -0.753   0.023  0.00  0.00    +0.195 C 
ATOM     20  O   UNL     1      -1.699  -0.128  -0.919  0.00  0.00    -0.287 OA
BRANCH  19  21
ATOM     21  C   UNL     1      -0.813  -0.042   1.240  0.00  0.00    +0.026 A 
ATOM     22  C   UNL     1      -0.369  -0.763   2.353  0.00  0.00    +0.015 A 
ATOM     23  C   UNL     1       0.036  -0.096   3.487  0.00  0.00    +0.050 A 
ATOM     24  C   UNL     1       0.006   1.293   3.532  0.00  0.00    +0.162 A 
ATOM     25  C   UNL     1      -0.434   2.018   2.426  0.00  0.00    +0.163 A 
ATOM     26  C   UNL     1      -0.844   1.355   1.285  0.00  0.00    +0.061 A 
ATOM     27  O   UNL     1      -0.463   3.379   2.452  0.00  0.00    -0.485 OA
ATOM     28  C   UNL     1      -0.399   3.999   3.741  0.00  0.00    +0.270 C 
ATOM     29  C   UNL     1       0.719   3.322   4.545  0.00  0.00    +0.270 C 
ATOM     30  O   UNL     1       0.406   1.930   4.665  0.00  0.00    -0.485 OA
ENDBRANCH  19  21
ENDBRANCH   2  19
BRANCH   6  31
ATOM     31  C   UNL     1       0.617  -5.590  -0.175  0.00  0.00    +0.090 C 
BRANCH  31  32
ATOM     32  C   UNL     1       0.884  -6.069   1.254  0.00  0.00    -0.060 C 
BRANCH  32  35
ATOM     33  C   UNL     1       2.251  -7.574   2.570  0.00  0.00    -0.097 C 
ATOM     34  C   UNL     1       1.130  -8.383   0.582  0.00  0.00    -0.097 C 
ATOM     35  N   UNL     1       1.805  -7.224   1.204  0.00  0.00    +0.377 N 
ATOM     36  H   UNL     1       2.625  -6.973   0.639  0.00  0.00    -0.083 HD
ENDBRANCH  32  35
ENDBRANCH  31  32
ENDBRANCH   6  31
TORSDOF 8
