REMARK  Name = ZINC38509849
REMARK  13 active torsions:
REMARK  status: ('A' for Active; 'I' for Inactive)
REMARK    1  A    between atoms: C_1  and  C_2
REMARK    2  A    between atoms: C_2  and  C_3
REMARK    3  A    between atoms: C_3  and  C_4
REMARK    4  A    between atoms: C_4  and  N_5
REMARK    5  A    between atoms: C_6  and  N_33
REMARK    6  A    between atoms: C_8  and  N_15
REMARK    7  A    between atoms: N_15  and  C_16
REMARK    8  A    between atoms: C_16  and  C_17
REMARK    9  A    between atoms: C_17  and  C_18
REMARK   10  A    between atoms: C_18  and  C_19
REMARK   11  A    between atoms: C_18  and  C_20
REMARK   12  A    between atoms: C_21  and  C_23
REMARK   13  A    between atoms: C_23  and  C_24
REMARK                            x       y       z     vdW  Elec       q    Type
REMARK                         _______ _______ _______ _____ _____    ______ ____
ROOT
ATOM      1  N   UNL     1       1.671  -0.782  -4.911  0.00  0.00    -0.290 N 
ATOM      2  C   UNL     1       2.201   0.092  -4.032  0.00  0.00    +0.221 C 
ATOM      3  O   UNL     1       2.875  -0.310  -3.108  0.00  0.00    -0.275 OA
ENDROOT
BRANCH   1   6
ATOM      4  N   UNL     1       1.942  -2.884  -7.036  0.00  0.00    -0.298 N 
ATOM      5  C   UNL     1       2.692  -2.829  -5.779  0.00  0.00    +0.047 C 
ATOM      6  C   UNL     1       1.810  -2.223  -4.685  0.00  0.00    +0.165 C 
ATOM      7  C   UNL     1       0.451  -2.874  -4.726  0.00  0.00    +0.241 C 
ATOM      8  O   UNL     1      -0.166  -3.054  -3.698  0.00  0.00    -0.273 OA
ATOM      9  N   UNL     1      -0.077  -3.255  -5.903  0.00  0.00    -0.239 N 
ATOM     10  C   UNL     1       0.624  -3.141  -7.043  0.00  0.00    +0.307 C 
ATOM     11  O   UNL     1       0.052  -3.277  -8.107  0.00  0.00    -0.252 OA
ATOM     12  H   UNL     1      -0.978  -3.614  -5.929  0.00  0.00    +0.159 HD
BRANCH   5  13
ATOM     13  N   UNL     1       3.889  -1.998  -5.960  0.00  0.00    +0.392 N 
ATOM     14  H   UNL     1       3.614  -1.065  -6.228  0.00  0.00    -0.087 HD
ATOM     15  H   UNL     1       4.406  -1.959  -5.094  0.00  0.00    -0.087 HD
ATOM     16  H   UNL     1       4.471  -2.397  -6.681  0.00  0.00    -0.087 HD
ENDBRANCH   5  13
BRANCH   4  17
ATOM     17  C   UNL     1       2.639  -2.650  -8.303  0.00  0.00    +0.107 C 
BRANCH  17  18
ATOM     18  C   UNL     1       2.558  -1.165  -8.663  0.00  0.00    +0.019 C 
BRANCH  18  20
ATOM     19  C   UNL     1       3.314   0.588 -10.275  0.00  0.00    +0.004 C 
ATOM     20  C   UNL     1       3.395  -0.897  -9.915  0.00  0.00    -0.002 C 
ENDBRANCH  18  20
ENDBRANCH  17  18
ENDBRANCH   4  17
ENDBRANCH   1   6
BRANCH   1  21
ATOM     21  C   UNL     1       0.955  -0.291  -6.091  0.00  0.00    +0.109 C 
BRANCH  21  22
ATOM     22  C   UNL     1      -0.512  -0.045  -5.732  0.00  0.00    +0.022 C 
BRANCH  22  23
ATOM     23  C   UNL     1      -1.248   0.515  -6.951  0.00  0.00    -0.016 C 
ATOM     24  C   UNL     1      -1.314  -0.555  -8.043  0.00  0.00    +0.007 C 
ATOM     25  C   UNL     1      -2.667   0.920  -6.548  0.00  0.00    +0.007 C 
ENDBRANCH  22  23
ENDBRANCH  21  22
ENDBRANCH   1  21
BRANCH   2  26
ATOM     26  C   UNL     1       1.957   1.570  -4.199  0.00  0.00    +0.133 C 
BRANCH  26  27
ATOM     27  C   UNL     1       2.654   2.322  -3.095  0.00  0.00    -0.014 A 
ATOM     28  C   UNL     1       4.054   2.753  -3.083  0.00  0.00    +0.003 A 
ATOM     29  C   UNL     1       5.114   2.633  -3.983  0.00  0.00    +0.010 A 
ATOM     30  C   UNL     1       6.335   3.159  -3.667  0.00  0.00    +0.001 A 
ATOM     31  C   UNL     1       6.531   3.810  -2.458  0.00  0.00    +0.002 A 
ATOM     32  C   UNL     1       5.498   3.939  -1.554  0.00  0.00    +0.026 A 
ATOM     33  C   UNL     1       4.247   3.413  -1.855  0.00  0.00    +0.047 A 
ATOM     34  N   UNL     1       3.046   3.378  -1.183  0.00  0.00    -0.360 N 
ATOM     35  C   UNL     1       2.108   2.730  -1.939  0.00  0.00    +0.087 A 
ATOM     36  H   UNL     1       2.888   3.760  -0.305  0.00  0.00    +0.165 HD
ENDBRANCH  26  27
ENDBRANCH   2  26
TORSDOF 10
