REMARK  Name = ZINC08740820
REMARK  9 active torsions:
REMARK  status: ('A' for Active; 'I' for Inactive)
REMARK    1  A    between atoms: C_1  and  C_2
REMARK    2  A    between atoms: C_3  and  C_27
REMARK    3  A    between atoms: C_4  and  C_22
REMARK    4  A    between atoms: C_6  and  C_20
REMARK    5  A    between atoms: C_7  and  S_9
REMARK    6  A    between atoms: S_9  and  C_10
REMARK    7  A    between atoms: C_10  and  C_11
REMARK    8  A    between atoms: C_11  and  C_13
REMARK    9  A    between atoms: N_29  and  C_30
REMARK                            x       y       z     vdW  Elec       q    Type
REMARK                         _______ _______ _______ _____ _____    ______ ____
ROOT
ATOM      1  C   UNL     1       1.601  -4.506   0.693  0.00  0.00    +0.061 C 
ATOM      2  C   UNL     1       0.193  -4.123   0.318  0.00  0.00    +0.015 C 
ATOM      3  C   UNL     1      -0.774  -5.054   0.340  0.00  0.00    +0.047 C 
ATOM      4  C   UNL     1      -2.192  -4.729  -0.033  0.00  0.00    +0.134 C 
ATOM      5  C   UNL     1      -2.420  -3.244  -0.021  0.00  0.00    +0.072 C 
ATOM      6  C   UNL     1      -1.378  -2.370  -0.034  0.00  0.00    +0.080 C 
ATOM      7  N   UNL     1      -0.080  -2.831  -0.041  0.00  0.00    -0.312 N 
ATOM      8  H   UNL     1       0.738  -2.157  -0.335  0.00  0.00    +0.152 HD
ENDROOT
BRANCH   4   9
ATOM      9  C   UNL     1      -2.477  -5.267  -1.412  0.00  0.00    +0.118 A 
ATOM     10  C   UNL     1      -3.421  -6.172  -1.724  0.00  0.00    +0.045 A 
ATOM     11  C   UNL     1      -3.339  -6.386  -3.119  0.00  0.00    +0.041 A 
ATOM     12  C   UNL     1      -2.349  -5.599  -3.576  0.00  0.00    +0.195 A 
ATOM     13  O   UNL     1      -1.834  -4.919  -2.539  0.00  0.00    -0.467 OA
ENDBRANCH   4   9
BRANCH   3  14
ATOM     14  C   UNL     1      -0.448  -6.376   0.726  0.00  0.00    +0.247 C 
ATOM     15  O   UNL     1       0.697  -6.657   1.032  0.00  0.00    -0.270 OA
ATOM     16  N   UNL     1      -1.405  -7.325   0.755  0.00  0.00    -0.279 N 
ATOM     17  H   UNL     1      -2.454  -7.053   0.567  0.00  0.00    +0.155 HD
BRANCH  16  18
ATOM     18  C   UNL     1      -1.064  -8.655   1.023  0.00  0.00    +0.069 A 
ATOM     19  C   UNL     1       0.220  -9.112   0.757  0.00  0.00    +0.026 A 
ATOM     20  C   UNL     1       0.555 -10.424   1.028  0.00  0.00    +0.002 A 
ATOM     21  C   UNL     1      -0.389 -11.287   1.553  0.00  0.00    +0.003 A 
ATOM     22  C   UNL     1      -1.670 -10.839   1.814  0.00  0.00    +0.040 A 
ATOM     23  C   UNL     1      -2.012  -9.525   1.551  0.00  0.00    +0.144 A 
ATOM     24  F   UNL     1      -3.264  -9.088   1.806  0.00  0.00    -0.204 F 
ENDBRANCH  16  18
ENDBRANCH   3  14
BRANCH   5  25
ATOM     25  C   UNL     1      -3.760  -2.739   0.001  0.00  0.00    +0.098 C 
ATOM     26  N   UNL     1      -4.822  -2.339   0.018  0.00  0.00    -0.191 NA
ENDBRANCH   5  25
BRANCH   6  27
ATOM     27  S   UNL     1      -1.690  -0.636  -0.036  0.00  0.00    -0.101 S 
BRANCH  27  28
ATOM     28  C   UNL     1       0.008  -0.010  -0.047  0.00  0.00    +0.155 C 
BRANCH  28  29
ATOM     29  C   UNL     1      -0.012   1.496  -0.050  0.00  0.00    +0.173 C 
ATOM     30  O   UNL     1      -1.070   2.089  -0.050  0.00  0.00    -0.291 OA
BRANCH  29  31
ATOM     31  C   UNL     1       1.252   2.249  -0.059  0.00  0.00    +0.018 A 
ATOM     32  C   UNL     1       2.475   1.569  -0.059  0.00  0.00    +0.013 A 
ATOM     33  C   UNL     1       3.655   2.280  -0.072  0.00  0.00    +0.020 A 
ATOM     34  C   UNL     1       3.633   3.665  -0.074  0.00  0.00    +0.041 A 
ATOM     35  C   UNL     1       2.426   4.346  -0.070  0.00  0.00    +0.020 A 
ATOM     36  C   UNL     1       1.238   3.647  -0.062  0.00  0.00    +0.013 A 
ATOM     37 CL   UNL     1       5.125   4.553  -0.084  0.00  0.00    -0.084 Cl
ENDBRANCH  29  31
ENDBRANCH  28  29
ENDBRANCH  27  28
ENDBRANCH   6  27
TORSDOF 8
