REMARK  Name = ZINC21262926
REMARK  13 active torsions:
REMARK  status: ('A' for Active; 'I' for Inactive)
REMARK    1  A    between atoms: C_1  and  C_2
REMARK    2  A    between atoms: C_2  and  C_29
REMARK    3  A    between atoms: C_4  and  N_10
REMARK    4  A    between atoms: C_6  and  C_8
REMARK    5  A    between atoms: C_6  and  C_9
REMARK    6  A    between atoms: N_10  and  C_11
REMARK    7  A    between atoms: C_11  and  N_13
REMARK    8  A    between atoms: N_13  and  C_14
REMARK    9  A    between atoms: N_13  and  C_23
REMARK   10  A    between atoms: C_14  and  C_15
REMARK   11  A    between atoms: C_18  and  O_21
REMARK   12  A    between atoms: O_21  and  C_22
REMARK   13  A    between atoms: C_23  and  C_24
REMARK                            x       y       z     vdW  Elec       q    Type
REMARK                         _______ _______ _______ _____ _____    ______ ____
ROOT
ATOM      1  C   UNL     1      -0.021   1.708   0.011  0.00  0.00    +0.134 C 
ATOM      2  S   UNL     1       0.002  -0.004   0.002  0.00  0.00    -0.019 S 
ENDROOT
BRANCH   1   3
ATOM      3  N   UNL     1      -1.197   2.366   0.021  0.00  0.00    -0.324 N 
ATOM      4  H   UNL     1      -1.212   3.466   0.027  0.00  0.00    +0.148 HD
BRANCH   3   8
ATOM      5  C   UNL     1      -4.879   0.659   1.735  0.00  0.00    -0.010 C 
ATOM      6  C   UNL     1      -4.888   1.729   0.636  0.00  0.00    -0.072 C 
ATOM      7  C   UNL     1      -3.558   2.477   0.642  0.00  0.00    +0.009 C 
ATOM      8  C   UNL     1      -2.459   1.614   0.022  0.00  0.00    +0.069 C 
ATOM      9  C   UNL     1      -2.852   1.288  -1.418  0.00  0.00    +0.009 C 
ATOM     10  C   UNL     1      -4.173   0.523  -1.447  0.00  0.00    -0.072 C 
ATOM     11  N   UNL     1      -5.208   1.152  -0.653  0.00  0.00    +0.386 N 
ATOM     12  C   UNL     1      -3.938  -0.925  -1.003  0.00  0.00    -0.010 C 
ATOM     13  C   UNL     1      -4.653   0.479  -2.915  0.00  0.00    -0.010 C 
ATOM     14  C   UNL     1      -5.995   2.745   0.998  0.00  0.00    -0.010 C 
ATOM     15  H   UNL     1      -5.959   0.359  -0.524  0.00  0.00    -0.084 HD
ATOM     16  H   UNL     1      -5.609   1.934  -1.315  0.00  0.00    -0.084 HD
ENDBRANCH   3   8
ENDBRANCH   1   3
BRANCH   1  17
ATOM     17  N   UNL     1       1.137   2.397   0.004  0.00  0.00    -0.301 N 
BRANCH  17  18
ATOM     18  C   UNL     1       2.415   1.682  -0.012  0.00  0.00    +0.142 C 
BRANCH  18  19
ATOM     19  C   UNL     1       2.840   1.445  -1.438  0.00  0.00    -0.030 A 
ATOM     20  C   UNL     1       2.454   0.288  -2.090  0.00  0.00    +0.009 A 
ATOM     21  C   UNL     1       2.838   0.070  -3.399  0.00  0.00    +0.046 A 
ATOM     22  C   UNL     1       3.620   1.009  -4.056  0.00  0.00    +0.120 A 
ATOM     23  C   UNL     1       4.010   2.166  -3.399  0.00  0.00    +0.046 A 
ATOM     24  C   UNL     1       3.619   2.381  -2.091  0.00  0.00    +0.009 A 
BRANCH  22  25
ATOM     25  O   UNL     1       4.003   0.794  -5.343  0.00  0.00    -0.495 OA
ATOM     26  C   UNL     1       3.564  -0.419  -5.957  0.00  0.00    +0.277 C 
ENDBRANCH  22  25
ENDBRANCH  18  19
ENDBRANCH  17  18
BRANCH  17  27
ATOM     27  C   UNL     1       1.117   3.862   0.012  0.00  0.00    +0.181 C 
BRANCH  27  28
ATOM     28  C   UNL     1       1.124   4.357   1.436  0.00  0.00    +0.122 A 
ATOM     29  C   UNL     1       2.218   4.630   2.168  0.00  0.00    +0.046 A 
ATOM     30  C   UNL     1       1.765   5.063   3.436  0.00  0.00    +0.041 A 
ATOM     31  C   UNL     1       0.421   5.028   3.402  0.00  0.00    +0.195 A 
ATOM     32  O   UNL     1       0.038   4.605   2.186  0.00  0.00    -0.466 OA
ENDBRANCH  27  28
ENDBRANCH  17  27
ENDBRANCH   1  17
TORSDOF 8
