REMARK  Name = ZINC36301857
REMARK  19 active torsions:
REMARK  status: ('A' for Active; 'I' for Inactive)
REMARK    1  A    between atoms: C_1  and  C_2
REMARK    2  A    between atoms: C_2  and  C_3
REMARK    3  A    between atoms: C_3  and  N_4
REMARK    4  A    between atoms: N_4  and  C_5
REMARK    5  A    between atoms: N_4  and  C_28
REMARK    6  A    between atoms: C_5  and  C_6
REMARK    7  A    between atoms: C_7  and  C_27
REMARK    8  A    between atoms: N_9  and  C_20
REMARK    9  A    between atoms: C_10  and  O_11
REMARK   10  A    between atoms: O_11  and  C_12
REMARK   11  A    between atoms: C_17  and  O_18
REMARK   12  A    between atoms: O_18  and  C_19
REMARK   13  A    between atoms: C_28  and  C_29
REMARK   14  A    between atoms: C_29  and  C_31
REMARK   15  A    between atoms: C_29  and  O_36
REMARK   16  A    between atoms: C_31  and  O_32
REMARK   17  A    between atoms: O_32  and  C_33
REMARK   18  A    between atoms: C_33  and  C_34
REMARK   19  A    between atoms: C_33  and  C_35
REMARK                            x       y       z     vdW  Elec       q    Type
REMARK                         _______ _______ _______ _____ _____    ______ ____
ROOT
ATOM      1  C   UNL     1       1.256  -1.809   0.916  0.00  0.00    +0.021 A 
ATOM      2  C   UNL     1       2.183  -2.223  -0.046  0.00  0.00    +0.065 A 
ATOM      3  N   UNL     1       3.153  -1.346  -0.091  0.00  0.00    -0.168 NA
ATOM      4  N   UNL     1       2.881  -0.338   0.843  0.00  0.00    -0.200 N 
ATOM      5  C   UNL     1       1.702  -0.640   1.449  0.00  0.00    +0.225 A 
ATOM      6  C   UNL     1       2.082  -3.469  -0.888  0.00  0.00    +0.068 C 
ENDROOT
BRANCH   4   7
ATOM      7  C   UNL     1       3.679   0.786   1.102  0.00  0.00    +0.069 A 
ATOM      8  C   UNL     1       3.087   2.017   1.347  0.00  0.00    +0.029 A 
ATOM      9  C   UNL     1       3.875   3.122   1.602  0.00  0.00    +0.022 A 
ATOM     10  C   UNL     1       5.254   3.003   1.613  0.00  0.00    +0.041 A 
ATOM     11  C   UNL     1       5.846   1.776   1.369  0.00  0.00    +0.022 A 
ATOM     12  C   UNL     1       5.062   0.667   1.119  0.00  0.00    +0.029 A 
ATOM     13 CL   UNL     1       6.242   4.394   1.932  0.00  0.00    -0.084 Cl
ENDBRANCH   4   7
BRANCH   1  14
ATOM     14  C   UNL     1      -0.015  -2.527   1.290  0.00  0.00    -0.036 C 
BRANCH  14  15
ATOM     15  N   UNL     1      -1.140  -1.957   0.537  0.00  0.00    +0.384 N 
ATOM     16  H   UNL     1      -1.166  -0.958   0.678  0.00  0.00    -0.081 HD
BRANCH  15  17
ATOM     17  C   UNL     1      -2.397  -2.551   1.010  0.00  0.00    -0.079 C 
BRANCH  17  19
ATOM     18  C   UNL     1      -3.968  -2.715   2.946  0.00  0.00    +0.002 C 
ATOM     19  C   UNL     1      -2.599  -2.209   2.488  0.00  0.00    -0.022 C 
ENDBRANCH  17  19
ENDBRANCH  15  17
BRANCH  15  20
ATOM     20  C   UNL     1      -0.969  -2.246  -0.893  0.00  0.00    -0.044 C 
BRANCH  20  21
ATOM     21  C   UNL     1      -2.025  -1.484  -1.697  0.00  0.00    +0.124 C 
BRANCH  21  22
ATOM     22  O   UNL     1      -3.317  -2.025  -1.418  0.00  0.00    -0.391 OA
ATOM     23  H   UNL     1      -3.409  -2.961  -1.642  0.00  0.00    +0.210 HD
ENDBRANCH  21  22
BRANCH  21  24
ATOM     24  C   UNL     1      -1.725  -1.623  -3.191  0.00  0.00    +0.189 C 
BRANCH  24  25
ATOM     25  O   UNL     1      -2.640  -0.817  -3.936  0.00  0.00    -0.375 OA
BRANCH  25  26
ATOM     26  C   UNL     1      -2.446  -0.875  -5.351  0.00  0.00    +0.112 C 
ATOM     27  C   UNL     1      -3.785  -0.659  -6.059  0.00  0.00    +0.037 C 
ATOM     28  C   UNL     1      -1.463   0.218  -5.776  0.00  0.00    +0.037 C 
ENDBRANCH  25  26
ENDBRANCH  24  25
ENDBRANCH  21  24
ENDBRANCH  20  21
ENDBRANCH  15  20
ENDBRANCH  14  15
ENDBRANCH   1  14
BRANCH   5  29
ATOM     29  O   UNL     1       1.084   0.090   2.413  0.00  0.00    -0.434 OA
BRANCH  29  30
ATOM     30  C   UNL     1       1.459  -0.111   3.704  0.00  0.00    +0.172 A 
ATOM     31  C   UNL     1       2.517  -0.958   3.997  0.00  0.00    +0.050 A 
ATOM     32  C   UNL     1       2.897  -1.161   5.310  0.00  0.00    +0.004 A 
ATOM     33  C   UNL     1       2.225  -0.520   6.334  0.00  0.00    +0.004 A 
ATOM     34  C   UNL     1       1.169   0.326   6.050  0.00  0.00    +0.049 A 
ATOM     35  C   UNL     1       0.786   0.538   4.735  0.00  0.00    +0.162 A 
BRANCH  35  36
ATOM     36  O   UNL     1      -0.248   1.375   4.453  0.00  0.00    -0.491 OA
ATOM     37  C   UNL     1      -0.892   2.007   5.561  0.00  0.00    +0.277 C 
ENDBRANCH  35  36
ENDBRANCH  29  30
ENDBRANCH   5  29
TORSDOF 14
