REMARK  Name = ZINC09536598
REMARK  9 active torsions:
REMARK  status: ('A' for Active; 'I' for Inactive)
REMARK    1  A    between atoms: C_1  and  C_2
REMARK    2  A    between atoms: C_2  and  C_4
REMARK    3  A    between atoms: C_2  and  N_60
REMARK    4  A    between atoms: C_7  and  S_10
REMARK    5  A    between atoms: S_10  and  N_13
REMARK    6  A    between atoms: C_14  and  N_60
REMARK    7  A    between atoms: C_15  and  C_16
REMARK    8  A    between atoms: C_15  and  N_60
REMARK    9  A    between atoms: C_27  and  C_29
REMARK                            x       y       z     vdW  Elec       q    Type
REMARK                         _______ _______ _______ _____ _____    ______ ____
ROOT
ATOM      1  C   UNL     1      -1.915  -1.593  -2.925  0.00  0.00    +0.020 C 
ENDROOT
BRANCH   1   2
ATOM      2  C   UNL     1      -0.814  -0.974  -2.104  0.00  0.00    +0.204 C 
ATOM      3  O   UNL     1       0.303  -0.872  -2.566  0.00  0.00    -0.277 OA
ATOM      4  N   UNL     1      -1.070  -0.533  -0.856  0.00  0.00    -0.259 N 
ATOM      5  C   UNL     1      -0.039  -0.062  -0.022  0.00  0.00    +0.079 A 
ATOM      6  C   UNL     1       1.285  -0.300  -0.354  0.00  0.00    +0.027 A 
ATOM      7  C   UNL     1       2.295   0.168   0.466  0.00  0.00    +0.002 A 
ATOM      8  C   UNL     1       1.984   0.872   1.615  0.00  0.00    +0.004 A 
ATOM      9  C   UNL     1       0.665   1.112   1.950  0.00  0.00    +0.047 A 
ATOM     10  C   UNL     1      -0.355   0.645   1.134  0.00  0.00    +0.142 A 
ATOM     11  O   UNL     1      -1.649   0.882   1.474  0.00  0.00    -0.488 OA
ATOM     12  C   UNL     1      -2.635   0.793   0.443  0.00  0.00    +0.256 C 
ATOM     13  C   UNL     1      -2.440  -0.527  -0.316  0.00  0.00    +0.149 C 
BRANCH  13  14
ATOM     14  C   UNL     1      -2.624  -1.690   0.625  0.00  0.00    -0.023 A 
ATOM     15  C   UNL     1      -1.600  -2.059   1.476  0.00  0.00    +0.005 A 
ATOM     16  C   UNL     1      -1.770  -3.122   2.342  0.00  0.00    +0.000 A 
ATOM     17  C   UNL     1      -2.962  -3.823   2.350  0.00  0.00    +0.000 A 
ATOM     18  C   UNL     1      -3.985  -3.457   1.495  0.00  0.00    +0.000 A 
ATOM     19  C   UNL     1      -3.816  -2.391   0.632  0.00  0.00    +0.005 A 
ENDBRANCH  13  14
ENDBRANCH   1   2
BRANCH   1  21
ATOM     20  C   UNL     1      -0.442  -3.240  -3.916  0.00  0.00    -0.095 C 
ATOM     21  N   UNL     1      -1.341  -2.098  -4.190  0.00  0.00    +0.388 N 
ATOM     22  H   UNL     1      -0.799  -1.347  -4.634  0.00  0.00    -0.081 HD
BRANCH  21  24
ATOM     23  C   UNL     1      -3.294  -1.300  -5.430  0.00  0.00    -0.008 C 
ATOM     24  C   UNL     1      -2.423  -2.515  -5.106  0.00  0.00    -0.041 C 
BRANCH  24  25
ATOM     25  C   UNL     1      -1.812  -3.049  -6.376  0.00  0.00    -0.061 A 
ATOM     26  C   UNL     1      -0.700  -2.433  -6.919  0.00  0.00    +0.004 A 
ATOM     27  C   UNL     1      -0.137  -2.925  -8.082  0.00  0.00    +0.029 A 
ATOM     28  C   UNL     1      -0.691  -4.027  -8.706  0.00  0.00    +0.105 A 
ATOM     29  C   UNL     1      -1.807  -4.639  -8.166  0.00  0.00    +0.029 A 
ATOM     30  C   UNL     1      -2.367  -4.150  -7.000  0.00  0.00    +0.004 A 
BRANCH  28  31
ATOM     31  S   UNL     1       0.023  -4.651 -10.191  0.00  0.00    +0.056 S 
ATOM     32  O   UNL     1       1.382  -4.235 -10.194  0.00  0.00    -0.153 OA
ATOM     33  O   UNL     1      -0.356  -6.017 -10.281  0.00  0.00    -0.153 OA
BRANCH  31  34
ATOM     34  N   UNL     1      -0.713  -3.871 -11.453  0.00  0.00    -0.204 NA
ATOM     35  H   UNL     1      -1.400  -3.209 -11.280  0.00  0.00    +0.144 HD
ATOM     36  H   UNL     1      -0.456  -4.077 -12.366  0.00  0.00    +0.144 HD
ENDBRANCH  31  34
ENDBRANCH  28  31
ENDBRANCH  24  25
ENDBRANCH  21  24
ENDBRANCH   1  21
TORSDOF 7
