REMARK  Name = ZINC21233198
REMARK  11 active torsions:
REMARK  status: ('A' for Active; 'I' for Inactive)
REMARK    1  A    between atoms: C_1  and  C_2
REMARK    2  A    between atoms: C_2  and  C_3
REMARK    3  A    between atoms: C_3  and  O_4
REMARK    4  A    between atoms: O_4  and  C_5
REMARK    5  A    between atoms: C_8  and  C_11
REMARK    6  A    between atoms: C_16  and  C_26
REMARK    7  A    between atoms: C_28  and  N_36
REMARK    8  A    between atoms: C_29  and  O_35
REMARK    9  A    between atoms: C_30  and  O_32
REMARK   10  A    between atoms: O_32  and  C_33
REMARK   11  A    between atoms: C_33  and  C_34
REMARK                            x       y       z     vdW  Elec       q    Type
REMARK                         _______ _______ _______ _____ _____    ______ ____
ROOT
ATOM      1  C   UNL     1      -2.258   7.197  -3.930  0.00  0.00    +0.032 C 
ATOM      2  C   UNL     1      -2.588   8.083  -2.728  0.00  0.00    +0.059 C 
ATOM      3  C   UNL     1      -1.503   7.946  -1.673  0.00  0.00    +0.017 C 
ATOM      4  C   UNL     1      -0.864   6.777  -1.503  0.00  0.00    +0.036 C 
ATOM      5  C   UNL     1       0.202   6.490  -0.471  0.00  0.00    +0.136 C 
ATOM      6  N   UNL     1       0.714   7.665   0.202  0.00  0.00    -0.331 N 
ATOM      7  C   UNL     1      -0.106   8.443   1.018  0.00  0.00    +0.049 A 
ATOM      8  C   UNL     1       0.119   8.546   2.381  0.00  0.00    +0.025 A 
ATOM      9  C   UNL     1      -0.748   9.294   3.159  0.00  0.00    +0.002 A 
ATOM     10  C   UNL     1      -1.832   9.931   2.584  0.00  0.00    +0.002 A 
ATOM     11  C   UNL     1      -2.051   9.843   1.219  0.00  0.00    +0.025 A 
ATOM     12  C   UNL     1      -1.173   9.112   0.438  0.00  0.00    +0.052 A 
ATOM     13  N   UNL     1      -1.273   9.070  -0.948  0.00  0.00    -0.316 N 
ATOM     14  C   UNL     1      -1.166   5.672  -2.334  0.00  0.00    +0.163 C 
ATOM     15  O   UNL     1      -0.581   4.623  -2.149  0.00  0.00    -0.292 OA
ATOM     16  C   UNL     1      -2.181   5.748  -3.434  0.00  0.00    +0.088 C 
ATOM     17  H   UNL     1       1.766   7.958   0.073  0.00  0.00    +0.147 HD
ATOM     18  H   UNL     1      -1.152  10.037  -1.458  0.00  0.00    +0.152 HD
ENDROOT
BRANCH   1  22
ATOM     19  C   UNL     1      -5.326   7.556  -6.883  0.00  0.00    +0.121 A 
ATOM     20  C   UNL     1      -4.013   7.865  -7.204  0.00  0.00    +0.046 A 
ATOM     21  C   UNL     1      -3.023   7.748  -6.248  0.00  0.00    +0.007 A 
ATOM     22  C   UNL     1      -3.340   7.324  -4.971  0.00  0.00    -0.043 A 
ATOM     23  C   UNL     1      -4.648   7.010  -4.649  0.00  0.00    +0.007 A 
ATOM     24  C   UNL     1      -5.642   7.131  -5.600  0.00  0.00    +0.046 A 
BRANCH  19  25
ATOM     25  O   UNL     1      -6.302   7.671  -7.822  0.00  0.00    -0.492 OA
BRANCH  25  26
ATOM     26  C   UNL     1      -7.632   7.336  -7.419  0.00  0.00    +0.229 C 
BRANCH  26  28
ATOM     27  C   UNL     1     -10.009   7.167  -8.171  0.00  0.00    +0.007 C 
ATOM     28  C   UNL     1      -8.585   7.526  -8.601  0.00  0.00    +0.038 C 
ENDBRANCH  26  28
ENDBRANCH  25  26
ENDBRANCH  19  25
ENDBRANCH   1  22
BRANCH   5  29
ATOM     29  C   UNL     1      -0.374   5.559   0.564  0.00  0.00    -0.017 A 
ATOM     30  C   UNL     1      -1.407   5.985   1.378  0.00  0.00    +0.042 A 
ATOM     31  C   UNL     1      -1.938   5.135   2.330  0.00  0.00    +0.171 A 
ATOM     32  C   UNL     1      -1.438   3.849   2.465  0.00  0.00    +0.189 A 
ATOM     33  C   UNL     1      -0.395   3.422   1.650  0.00  0.00    +0.164 A 
ATOM     34  C   UNL     1       0.133   4.279   0.699  0.00  0.00    +0.055 A 
BRANCH  31  35
ATOM     35  N   UNL     1      -3.043   5.595   3.199  0.00  0.00    +0.060 N 
ATOM     36  O   UNL     1      -3.485   6.723   3.077  0.00  0.00    -0.126 OA
ATOM     37  O   UNL     1      -3.511   4.845   4.038  0.00  0.00    -0.126 OA
ENDBRANCH  31  35
BRANCH  32  38
ATOM     38  O   UNL     1      -1.963   3.009   3.397  0.00  0.00    -0.502 OA
ATOM     39  H   UNL     1      -1.566   1.989   3.503  0.00  0.00    +0.292 HD
ENDBRANCH  32  38
BRANCH  33  40
ATOM     40  O   UNL     1       0.103   2.163   1.784  0.00  0.00    -0.488 OA
BRANCH  40  41
ATOM     41  C   UNL     1       1.170   1.791   0.909  0.00  0.00    +0.226 C 
ATOM     42  C   UNL     1       1.594   0.351   1.206  0.00  0.00    +0.048 C 
ENDBRANCH  40  41
ENDBRANCH  33  40
ENDBRANCH   5  29
TORSDOF 9
