REMARK  Name = ZINC11143240
REMARK  13 active torsions:
REMARK  status: ('A' for Active; 'I' for Inactive)
REMARK    1  A    between atoms: C_1  and  C_2
REMARK    2  A    between atoms: C_2  and  C_3
REMARK    3  A    between atoms: C_3  and  C_4
REMARK    4  A    between atoms: C_4  and  N_5
REMARK    5  A    between atoms: N_5  and  C_6
REMARK    6  A    between atoms: N_5  and  S_8
REMARK    7  A    between atoms: C_6  and  C_7
REMARK    8  A    between atoms: S_8  and  C_11
REMARK    9  A    between atoms: C_14  and  C_17
REMARK   10  A    between atoms: N_19  and  C_20
REMARK   11  A    between atoms: C_20  and  C_21
REMARK   12  A    between atoms: C_30  and  C_37
REMARK   13  A    between atoms: C_33  and  C_36
REMARK                            x       y       z     vdW  Elec       q    Type
REMARK                         _______ _______ _______ _____ _____    ______ ____
ROOT
ATOM      1  C   UNL     1       0.814  -0.668  -1.429  0.00  0.00    +0.252 C 
ATOM      2  O   UNL     1       0.637  -1.868  -1.357  0.00  0.00    -0.270 OA
ATOM      3  N   UNL     1       1.391  -0.009  -0.405  0.00  0.00    -0.244 N 
ATOM      4  C   UNL     1       1.558   1.364  -0.472  0.00  0.00    +0.168 A 
ATOM      5  N   UNL     1       1.349   2.170  -1.487  0.00  0.00    -0.224 NA
ATOM      6  C   UNL     1       1.557   3.503  -1.410  0.00  0.00    +0.083 A 
ATOM      7  C   UNL     1       1.371   4.475  -2.420  0.00  0.00    -0.024 A 
ATOM      8  C   UNL     1       1.630   5.798  -2.175  0.00  0.00    +0.006 A 
ATOM      9  C   UNL     1       2.081   6.231  -0.936  0.00  0.00    +0.005 A 
ATOM     10  C   UNL     1       2.273   5.307   0.075  0.00  0.00    -0.035 A 
ATOM     11  C   UNL     1       2.016   3.980  -0.162  0.00  0.00    +0.044 A 
ATOM     12  S   UNL     1       2.108   2.490   0.802  0.00  0.00    -0.052 S 
ATOM     13  C   UNL     1       2.762   5.755   1.428  0.00  0.00    +0.045 C 
ATOM     14  C   UNL     1       0.883   4.051  -3.782  0.00  0.00    +0.046 C 
ENDROOT
BRANCH   1  18
ATOM     15  C   UNL     1      -0.382   1.447  -4.913  0.00  0.00    +0.106 A 
ATOM     16  C   UNL     1       0.362   0.287  -5.033  0.00  0.00    +0.029 A 
ATOM     17  C   UNL     1       0.754  -0.405  -3.906  0.00  0.00    +0.015 A 
ATOM     18  C   UNL     1       0.398   0.068  -2.642  0.00  0.00    +0.037 A 
ATOM     19  C   UNL     1      -0.357   1.236  -2.527  0.00  0.00    +0.015 A 
ATOM     20  C   UNL     1      -0.738   1.921  -3.663  0.00  0.00    +0.029 A 
BRANCH  15  21
ATOM     21  S   UNL     1      -0.878   2.325  -6.358  0.00  0.00    +0.061 S 
ATOM     22  O   UNL     1      -1.099   3.671  -5.959  0.00  0.00    -0.153 OA
ATOM     23  O   UNL     1       0.043   1.975  -7.382  0.00  0.00    -0.153 OA
BRANCH  21  24
ATOM     24  N   UNL     1      -2.349   1.720  -6.818  0.00  0.00    -0.177 NA
BRANCH  24  25
ATOM     25  C   UNL     1      -2.418   0.589  -7.746  0.00  0.00    +0.106 C 
ATOM     26  C   UNL     1      -2.539  -0.714  -6.953  0.00  0.00    +0.022 C 
ENDBRANCH  24  25
BRANCH  24  27
ATOM     27  C   UNL     1      -3.582   2.316  -6.297  0.00  0.00    +0.109 C 
BRANCH  27  28
ATOM     28  C   UNL     1      -4.106   3.353  -7.292  0.00  0.00    +0.017 C 
BRANCH  28  30
ATOM     29  C   UNL     1      -5.919   5.013  -7.742  0.00  0.00    +0.004 C 
ATOM     30  C   UNL     1      -5.394   3.976  -6.748  0.00  0.00    -0.002 C 
ENDBRANCH  28  30
ENDBRANCH  27  28
ENDBRANCH  24  27
ENDBRANCH  21  24
ENDBRANCH  15  21
ENDBRANCH   1  18
BRANCH   3  31
ATOM     31  C   UNL     1       1.839  -0.744   0.780  0.00  0.00    +0.147 C 
BRANCH  31  32
ATOM     32  C   UNL     1       0.750  -0.695   1.853  0.00  0.00    +0.136 C 
ATOM     33  C   UNL     1       1.249  -1.356   3.157  0.00  0.00    +0.035 C 
ATOM     34  C   UNL     1       0.004  -2.086   3.708  0.00  0.00    +0.031 C 
ATOM     35  C   UNL     1      -1.100  -1.779   2.673  0.00  0.00    +0.160 C 
ATOM     36  O   UNL     1      -0.389  -1.486   1.451  0.00  0.00    -0.375 OA
ENDBRANCH  31  32
ENDBRANCH   3  31
TORSDOF 9
