REMARK  Name = ZINC59303891
REMARK  6 active torsions:
REMARK  status: ('A' for Active; 'I' for Inactive)
REMARK    1  A    between atoms: C_4  and  N_7
REMARK    2  A    between atoms: N_8  and  C_9
REMARK    3  A    between atoms: C_12  and  O_30
REMARK    4  A    between atoms: C_13  and  C_15
REMARK    5  A    between atoms: N_16  and  N_17
REMARK    6  A    between atoms: C_18  and  C_20
REMARK                            x       y       z     vdW  Elec       q    Type
REMARK                         _______ _______ _______ _____ _____    ______ ____
ROOT
ATOM      1  C   UNL     1       4.814  -2.582  -0.058  0.00  0.00    +0.087 A 
ATOM      2  C   UNL     1       6.015  -1.863  -0.061  0.00  0.00    +0.033 A 
ATOM      3  C   UNL     1       7.222  -2.528  -0.076  0.00  0.00    +0.048 A 
ATOM      4  C   UNL     1       7.256  -3.915  -0.089  0.00  0.00    +0.126 A 
ATOM      5  C   UNL     1       6.059  -4.648  -0.087  0.00  0.00    +0.038 A 
ATOM      6  C   UNL     1       4.837  -3.978  -0.066  0.00  0.00    +0.042 A 
ENDROOT
BRANCH   1   8
ATOM      7  N   UNL     1       3.599  -0.629  -0.036  0.00  0.00    -0.149 NA
ATOM      8  N   UNL     1       3.620  -1.919  -0.043  0.00  0.00    -0.149 NA
BRANCH   7  12
ATOM      9  C   UNL     1      -0.017   1.380   0.010  0.00  0.00    +0.000 A 
ATOM     10  C   UNL     1       1.168   2.095   0.002  0.00  0.00    +0.002 A 
ATOM     11  C   UNL     1       2.377   1.432  -0.013  0.00  0.00    +0.029 A 
ATOM     12  C   UNL     1       2.404   0.035  -0.021  0.00  0.00    +0.086 A 
ATOM     13  C   UNL     1       1.204  -0.681  -0.013  0.00  0.00    +0.029 A 
ATOM     14  C   UNL     1       0.002  -0.004   0.002  0.00  0.00    +0.002 A 
ENDBRANCH   7  12
ENDBRANCH   1   8
BRANCH   5  15
ATOM     15  C   UNL     1       6.093  -6.121  -0.101  0.00  0.00    +0.142 C 
ATOM     16  N   UNL     1       7.232  -6.744  -0.116  0.00  0.00    -0.187 NA
BRANCH  16  17
ATOM     17  N   UNL     1       7.265  -8.144  -0.130  0.00  0.00    -0.200 N 
ATOM     18  C   UNL     1       8.448  -8.790  -0.145  0.00  0.00    +0.299 C 
ATOM     19  O   UNL     1       9.487  -8.157  -0.147  0.00  0.00    -0.265 OA
ATOM     20  H   UNL     1       6.437  -8.649  -0.128  0.00  0.00    +0.178 HD
BRANCH  18  21
ATOM     21  C   UNL     1       8.482 -10.259  -0.159  0.00  0.00    +0.192 A 
ATOM     22  C   UNL     1       9.611 -11.014  -0.169  0.00  0.00    +0.063 A 
ATOM     23  C   UNL     1       9.167 -12.408  -0.182  0.00  0.00    +0.022 A 
ATOM     24  C   UNL     1       9.825 -13.640  -0.195  0.00  0.00    +0.027 A 
ATOM     25  C   UNL     1       9.097 -14.797  -0.205  0.00  0.00    +0.019 A 
ATOM     26  C   UNL     1       7.708 -14.754  -0.200  0.00  0.00    +0.019 A 
ATOM     27  C   UNL     1       7.041 -13.549  -0.187  0.00  0.00    +0.048 A 
ATOM     28  C   UNL     1       7.760 -12.359  -0.177  0.00  0.00    +0.136 A 
ATOM     29  O   UNL     1       7.397 -11.061  -0.158  0.00  0.00    -0.450 OA
ATOM     30 BR   UNL     1       9.985 -16.466  -0.224  0.00  0.00    -0.050 Br
ENDBRANCH  18  21
ENDBRANCH  16  17
ENDBRANCH   5  15
BRANCH   4  31
ATOM     31  O   UNL     1       8.447  -4.564  -0.104  0.00  0.00    -0.506 OA
ATOM     32  H   UNL     1       8.800  -4.760   0.775  0.00  0.00    +0.292 HD
ENDBRANCH   4  31
TORSDOF 6
