REMARK  Name = ZINC55881659
REMARK  9 active torsions:
REMARK  status: ('A' for Active; 'I' for Inactive)
REMARK    1  A    between atoms: C_1  and  C_2
REMARK    2  A    between atoms: C_2  and  N_3
REMARK    3  A    between atoms: C_4  and  C_6
REMARK    4  A    between atoms: C_9  and  N_13
REMARK    5  A    between atoms: C_10  and  C_12
REMARK    6  A    between atoms: N_13  and  C_14
REMARK    7  A    between atoms: C_14  and  C_15
REMARK    8  A    between atoms: N_20  and  C_21
REMARK    9  A    between atoms: C_27  and  C_29
REMARK                            x       y       z     vdW  Elec       q    Type
REMARK                         _______ _______ _______ _____ _____    ______ ____
ROOT
ATOM      1  C   UNL     1       4.006  -2.652  -7.024  0.00  0.00    +0.198 C 
ENDROOT
BRANCH   1   2
ATOM      2  C   UNL     1       4.656  -3.390  -8.165  0.00  0.00    +0.237 C 
ATOM      3  O   UNL     1       4.668  -4.603  -8.174  0.00  0.00    -0.274 OA
ATOM      4  N   UNL     1       5.225  -2.703  -9.175  0.00  0.00    -0.239 N 
ATOM      5  C   UNL     1       5.807  -3.363 -10.196  0.00  0.00    +0.306 C 
ATOM      6  O   UNL     1       5.819  -4.579 -10.205  0.00  0.00    -0.252 OA
ATOM      7  N   UNL     1       6.376  -2.676 -11.206  0.00  0.00    -0.296 N 
ATOM      8  H   UNL     1       5.216  -1.733  -9.168  0.00  0.00    +0.159 HD
ATOM      9  H   UNL     1       6.367  -1.706 -11.198  0.00  0.00    +0.151 HD
BRANCH   7  10
ATOM     10  C   UNL     1       7.009  -3.394 -12.315  0.00  0.00    +0.077 C 
ATOM     11  C   UNL     1       5.949  -3.760 -13.356  0.00  0.00    +0.022 C 
ATOM     12  C   UNL     1       5.291  -2.484 -13.884  0.00  0.00    +0.002 C 
ATOM     13  C   UNL     1       6.353  -1.591 -14.529  0.00  0.00    +0.000 C 
ATOM     14  C   UNL     1       7.412  -1.225 -13.488  0.00  0.00    +0.005 C 
ATOM     15  C   UNL     1       8.071  -2.502 -12.960  0.00  0.00    +0.006 C 
ATOM     16  C   UNL     1       9.131  -2.136 -11.919  0.00  0.00    +0.009 C 
ENDBRANCH   7  10
ENDBRANCH   1   2
BRANCH   1  17
ATOM     17  N   UNL     1       3.466  -3.616  -6.062  0.00  0.00    -0.335 N 
ATOM     18  H   UNL     1       3.562  -4.568  -6.224  0.00  0.00    +0.147 HD
BRANCH  17  22
ATOM     19  C   UNL     1       1.517  -2.274  -2.639  0.00  0.00    +0.037 A 
ATOM     20  C   UNL     1       2.033  -1.355  -3.557  0.00  0.00    +0.015 A 
ATOM     21  C   UNL     1       2.677  -1.802  -4.688  0.00  0.00    +0.024 A 
ATOM     22  C   UNL     1       2.815  -3.168  -4.918  0.00  0.00    +0.030 A 
ATOM     23  C   UNL     1       2.302  -4.086  -4.006  0.00  0.00    -0.029 A 
ATOM     24  C   UNL     1       1.662  -3.645  -2.870  0.00  0.00    +0.018 A 
ATOM     25  C   UNL     1       2.453  -5.564  -4.260  0.00  0.00    +0.045 C 
BRANCH  19  27
ATOM     26  N   UNL     1       0.688  -0.476  -1.203  0.00  0.00    -0.312 N 
ATOM     27  C   UNL     1       0.827  -1.799  -1.425  0.00  0.00    +0.244 C 
ATOM     28  O   UNL     1       0.383  -2.599  -0.625  0.00  0.00    -0.270 OA
ATOM     29  H   UNL     1       1.042   0.162  -1.842  0.00  0.00    +0.149 HD
BRANCH  26  31
ATOM     30  C   UNL     1      -0.019   1.526   0.010  0.00  0.00    +0.024 C 
ATOM     31  C   UNL     1       0.002  -0.004   0.002  0.00  0.00    +0.101 C 
ENDBRANCH  26  31
ENDBRANCH  19  27
ENDBRANCH  17  22
ENDBRANCH   1  17
TORSDOF 6
