REMARK  Name = ZINC20831547
REMARK  11 active torsions:
REMARK  status: ('A' for Active; 'I' for Inactive)
REMARK    1  A    between atoms: C_1  and  C_2
REMARK    2  A    between atoms: C_2  and  C_36
REMARK    3  A    between atoms: C_4  and  N_10
REMARK    4  A    between atoms: C_6  and  C_8
REMARK    5  A    between atoms: C_6  and  C_9
REMARK    6  A    between atoms: C_11  and  C_13
REMARK    7  A    between atoms: C_13  and  S_14
REMARK    8  A    between atoms: S_14  and  C_15
REMARK    9  A    between atoms: C_18  and  C_26
REMARK   10  A    between atoms: N_19  and  C_20
REMARK   11  A    between atoms: C_26  and  N_27
REMARK                            x       y       z     vdW  Elec       q    Type
REMARK                         _______ _______ _______ _____ _____    ______ ____
ROOT
ATOM      1  C   UNL     1       2.043   0.765  -0.013  0.00  0.00    +0.197 A 
ATOM      2  N   UNL     1       1.185   1.758   0.000  0.00  0.00    -0.122 NA
ATOM      3  N   UNL     1      -0.016   1.299   0.009  0.00  0.00    -0.131 NA
ATOM      4  C   UNL     1       0.002  -0.004   0.002  0.00  0.00    +0.160 A 
ATOM      5  N   UNL     1       1.315  -0.393  -0.013  0.00  0.00    -0.273 N 
ENDROOT
BRANCH   5   6
ATOM      6  C   UNL     1       1.810  -1.706  -0.025  0.00  0.00    +0.050 A 
ATOM      7  C   UNL     1       1.596  -2.540   1.064  0.00  0.00    +0.026 A 
ATOM      8  C   UNL     1       2.080  -3.833   1.047  0.00  0.00    +0.002 A 
ATOM      9  C   UNL     1       2.787  -4.294  -0.048  0.00  0.00    +0.000 A 
ATOM     10  C   UNL     1       3.007  -3.463  -1.132  0.00  0.00    +0.002 A 
ATOM     11  C   UNL     1       2.520  -2.171  -1.123  0.00  0.00    +0.026 A 
ENDBRANCH   5   6
BRANCH   1  12
ATOM     12  S   UNL     1       3.800   0.898  -0.029  0.00  0.00    -0.076 S 
BRANCH  12  13
ATOM     13  C   UNL     1       3.979   2.700  -0.021  0.00  0.00    +0.173 C 
BRANCH  13  15
ATOM     14  N   UNL     1       5.818   4.354  -0.030  0.00  0.00    -0.312 N 
ATOM     15  C   UNL     1       5.442   3.059  -0.034  0.00  0.00    +0.224 C 
ATOM     16  O   UNL     1       6.282   2.184  -0.046  0.00  0.00    -0.275 OA
ATOM     17  H   UNL     1       5.056   5.147  -0.019  0.00  0.00    +0.149 HD
BRANCH  14  21
ATOM     18  C   UNL     1       9.620   5.740  -1.765  0.00  0.00    -0.010 C 
ATOM     19  C   UNL     1       8.887   6.498  -0.651  0.00  0.00    -0.072 C 
ATOM     20  C   UNL     1       7.414   6.098  -0.646  0.00  0.00    +0.009 C 
ATOM     21  C   UNL     1       7.243   4.704  -0.042  0.00  0.00    +0.070 C 
ATOM     22  C   UNL     1       7.767   4.730   1.394  0.00  0.00    +0.009 C 
ATOM     23  C   UNL     1       9.245   5.115   1.414  0.00  0.00    -0.072 C 
ATOM     24  N   UNL     1       9.532   6.298   0.630  0.00  0.00    +0.386 N 
ATOM     25  C   UNL     1      10.091   3.923   0.950  0.00  0.00    -0.010 C 
ATOM     26  C   UNL     1       9.629   5.405   2.882  0.00  0.00    -0.010 C 
ATOM     27  C   UNL     1       8.960   8.002  -0.998  0.00  0.00    -0.010 C 
ATOM     28  H   UNL     1      10.622   6.262   0.490  0.00  0.00    -0.084 HD
ATOM     29  H   UNL     1       9.275   7.129   1.303  0.00  0.00    -0.084 HD
ENDBRANCH  14  21
ENDBRANCH  13  15
ENDBRANCH  12  13
ENDBRANCH   1  12
BRANCH   4  30
ATOM     30  C   UNL     1      -1.199  -0.914   0.008  0.00  0.00    +0.222 C 
BRANCH  30  31
ATOM     31  N   UNL     1      -1.601  -1.201  -1.371  0.00  0.00    -0.237 N 
ATOM     32  C   UNL     1      -2.496  -0.487  -2.133  0.00  0.00    +0.089 A 
ATOM     33  C   UNL     1      -3.269   0.647  -1.907  0.00  0.00    +0.029 A 
ATOM     34  C   UNL     1      -4.083   1.123  -2.896  0.00  0.00    +0.002 A 
ATOM     35  C   UNL     1      -4.146   0.484  -4.128  0.00  0.00    +0.002 A 
ATOM     36  C   UNL     1      -3.392  -0.625  -4.377  0.00  0.00    +0.032 A 
ATOM     37  C   UNL     1      -2.553  -1.137  -3.378  0.00  0.00    +0.113 A 
ATOM     38  N   UNL     1      -1.722  -2.196  -3.325  0.00  0.00    -0.129 NA
ATOM     39  N   UNL     1      -1.154  -2.261  -2.173  0.00  0.00    -0.064 NA
ENDBRANCH  30  31
ENDBRANCH   4  30
TORSDOF 7
