REMARK  Name = ZINC13940962
REMARK  9 active torsions:
REMARK  status: ('A' for Active; 'I' for Inactive)
REMARK    1  A    between atoms: C_1  and  C_2
REMARK    2  A    between atoms: C_2  and  O_3
REMARK    3  A    between atoms: O_3  and  C_4
REMARK    4  A    between atoms: C_6  and  C_12
REMARK    5  A    between atoms: C_9  and  O_10
REMARK    6  A    between atoms: C_17  and  C_27
REMARK    7  A    between atoms: C_19  and  C_23
REMARK    8  A    between atoms: C_23  and  O_25
REMARK    9  A    between atoms: O_25  and  C_26
REMARK                            x       y       z     vdW  Elec       q    Type
REMARK                         _______ _______ _______ _____ _____    ______ ____
ROOT
ATOM      1  C   UNL     1       2.448   4.589   0.002  0.00  0.00    +0.136 C 
ATOM      2  C   UNL     1       3.006   4.570  -1.401  0.00  0.00    +0.037 C 
ATOM      3  C   UNL     1       4.095   3.896  -1.808  0.00  0.00    +0.017 C 
ATOM      4  C   UNL     1       4.532   3.945  -3.263  0.00  0.00    +0.055 C 
ATOM      5  C   UNL     1       4.186   5.306  -3.865  0.00  0.00    +0.013 C 
ATOM      6  C   UNL     1       2.668   5.492  -3.758  0.00  0.00    +0.171 C 
ATOM      7  C   UNL     1       2.271   5.356  -2.319  0.00  0.00    +0.177 C 
ATOM      8  O   UNL     1       1.281   5.943  -1.927  0.00  0.00    -0.291 OA
ATOM      9  C   UNL     1       4.900   6.413  -3.087  0.00  0.00    +0.009 C 
ATOM     10  N   UNL     1       4.880   3.132  -1.006  0.00  0.00    -0.316 N 
ATOM     11  C   UNL     1       4.407   2.195  -0.095  0.00  0.00    +0.052 A 
ATOM     12  C   UNL     1       4.661   0.841  -0.228  0.00  0.00    +0.025 A 
ATOM     13  C   UNL     1       4.199  -0.035   0.740  0.00  0.00    +0.002 A 
ATOM     14  C   UNL     1       3.493   0.440   1.831  0.00  0.00    +0.002 A 
ATOM     15  C   UNL     1       3.224   1.792   1.956  0.00  0.00    +0.025 A 
ATOM     16  C   UNL     1       3.666   2.668   0.977  0.00  0.00    +0.049 A 
ATOM     17  N   UNL     1       3.326   4.017   1.001  0.00  0.00    -0.331 N 
ATOM     18  H   UNL     1       5.840   3.249  -1.074  0.00  0.00    +0.152 HD
ATOM     19  H   UNL     1       3.684   4.583   1.703  0.00  0.00    +0.147 HD
ENDROOT
BRANCH   1  22
ATOM     20  C   UNL     1      -1.225   3.768   0.325  0.00  0.00    +0.163 A 
ATOM     21  C   UNL     1      -0.031   4.471   0.317  0.00  0.00    +0.055 A 
ATOM     22  C   UNL     1       1.151   3.822   0.011  0.00  0.00    -0.018 A 
ATOM     23  C   UNL     1       1.146   2.472  -0.287  0.00  0.00    +0.029 A 
ATOM     24  C   UNL     1      -0.043   1.764  -0.281  0.00  0.00    +0.086 A 
ATOM     25  C   UNL     1      -1.232   2.410   0.020  0.00  0.00    +0.177 A 
ATOM     26 CL   UNL     1      -0.046   0.069  -0.656  0.00  0.00    -0.080 Cl
BRANCH  25  27
ATOM     27  O   UNL     1      -2.403   1.717   0.022  0.00  0.00    -0.502 OA
ATOM     28  H   UNL     1      -2.628   1.328   0.878  0.00  0.00    +0.292 HD
ENDBRANCH  25  27
BRANCH  20  29
ATOM     29  O   UNL     1      -2.389   4.404   0.626  0.00  0.00    -0.489 OA
BRANCH  29  31
ATOM     30  C   UNL     1      -3.704   6.338   1.235  0.00  0.00    +0.048 C 
ATOM     31  C   UNL     1      -2.306   5.800   0.924  0.00  0.00    +0.226 C 
ENDBRANCH  29  31
ENDBRANCH  20  29
ENDBRANCH   1  22
BRANCH   6  32
ATOM     32  C   UNL     1       1.970   4.436  -4.577  0.00  0.00    +0.318 C 
ATOM     33  O   UNL     1       2.618   3.618  -5.185  0.00  0.00    -0.250 OA
BRANCH  32  34
ATOM     34  O   UNL     1       0.629   4.406  -4.631  0.00  0.00    -0.467 OA
ATOM     35  C   UNL     1       0.025   3.362  -5.439  0.00  0.00    +0.280 C 
ENDBRANCH  32  34
ENDBRANCH   6  32
TORSDOF 6
