REMARK  Name = ZINC39676227
REMARK  4 active torsions:
REMARK  status: ('A' for Active; 'I' for Inactive)
REMARK    1  A    between atoms: C_11  and  C_13
REMARK    2  A    between atoms: C_13  and  N_14
REMARK    3  A    between atoms: C_15  and  C_17
REMARK    4  A    between atoms: C_28  and  C_30
REMARK                            x       y       z     vdW  Elec       q    Type
REMARK                         _______ _______ _______ _____ _____    ______ ____
ROOT
ATOM      1  C   UNL     1       8.711  -0.258  -0.106  0.00  0.00    +0.100 C 
ATOM      2  C   UNL     1       8.381   0.387   1.259  0.00  0.00    +0.121 C 
ATOM      3  N   UNL     1       9.290  -0.284   2.218  0.00  0.00    -0.296 N 
ATOM      4  C   UNL     1      10.569  -0.421   1.480  0.00  0.00    +0.115 C 
ATOM      5  C   UNL     1      10.149  -0.783   0.042  0.00  0.00    -0.004 C 
ATOM      6  C   UNL     1      11.068  -0.099  -0.965  0.00  0.00    -0.010 C 
ATOM      7  C   UNL     1      12.479  -0.680  -0.838  0.00  0.00    -0.082 C 
ATOM      8  N   UNL     1      12.439  -2.126  -1.086  0.00  0.00    +0.379 N 
ATOM      9  C   UNL     1      11.628  -2.788  -0.058  0.00  0.00    -0.082 C 
ATOM     10  C   UNL     1      10.181  -2.296  -0.151  0.00  0.00    -0.010 C 
ATOM     11  C   UNL     1       9.017  -0.678   3.478  0.00  0.00    +0.247 C 
ATOM     12  O   UNL     1       7.880  -0.610   3.903  0.00  0.00    -0.270 OA
ATOM     13  H   UNL     1      12.035  -2.299  -1.994  0.00  0.00    -0.086 HD
ATOM     14  H   UNL     1      13.377  -2.496  -1.062  0.00  0.00    -0.086 HD
ENDROOT
BRANCH  11  15
ATOM     15  C   UNL     1      10.099  -1.194   4.342  0.00  0.00    +0.037 A 
ATOM     16  C   UNL     1      11.431  -0.887   4.057  0.00  0.00    +0.014 A 
ATOM     17  C   UNL     1      12.436  -1.371   4.867  0.00  0.00    +0.016 A 
ATOM     18  C   UNL     1      12.127  -2.162   5.961  0.00  0.00    +0.018 A 
ATOM     19  C   UNL     1      10.808  -2.471   6.249  0.00  0.00    +0.016 A 
ATOM     20  C   UNL     1       9.794  -1.987   5.450  0.00  0.00    +0.014 A 
ATOM     21 BR   UNL     1      13.512  -2.823   7.066  0.00  0.00    -0.050 Br
ENDBRANCH  11  15
BRANCH   1  23
ATOM     22  N   UNL     1       7.540  -1.781  -1.664  0.00  0.00    -0.308 N 
ATOM     23  C   UNL     1       7.764  -1.394  -0.393  0.00  0.00    +0.219 C 
ATOM     24  O   UNL     1       7.203  -1.961   0.521  0.00  0.00    -0.275 OA
ATOM     25  H   UNL     1       7.989  -1.328  -2.395  0.00  0.00    +0.149 HD
BRANCH  22  26
ATOM     26  C   UNL     1       6.619  -2.886  -1.942  0.00  0.00    +0.178 C 
BRANCH  26  37
ATOM     27  C   UNL     1       7.168  -2.871  -8.309  0.00  0.00    +0.001 A 
ATOM     28  C   UNL     1       7.967  -1.880  -7.753  0.00  0.00    +0.002 A 
ATOM     29  C   UNL     1       8.011  -1.693  -6.390  0.00  0.00    +0.028 A 
ATOM     30  C   UNL     1       7.245  -2.507  -5.555  0.00  0.00    +0.078 A 
ATOM     31  C   UNL     1       6.433  -3.514  -6.124  0.00  0.00    +0.065 A 
ATOM     32  C   UNL     1       6.402  -3.687  -7.506  0.00  0.00    +0.015 A 
ATOM     33  C   UNL     1       5.638  -4.355  -5.216  0.00  0.00    +0.259 A 
ATOM     34  O   UNL     1       4.919  -5.239  -5.642  0.00  0.00    -0.267 OA
ATOM     35  N   UNL     1       5.738  -4.107  -3.890  0.00  0.00    -0.309 N 
ATOM     36  H   UNL     1       5.228  -4.642  -3.261  0.00  0.00    +0.170 HD
ATOM     37  C   UNL     1       6.546  -3.116  -3.430  0.00  0.00    +0.128 A 
ATOM     38  N   UNL     1       7.259  -2.358  -4.206  0.00  0.00    -0.232 NA
ENDBRANCH  26  37
ENDBRANCH  22  26
ENDBRANCH   1  23
TORSDOF 4
