REMARK  Name = ZINC16680204
REMARK  9 active torsions:
REMARK  status: ('A' for Active; 'I' for Inactive)
REMARK    1  A    between atoms: C_1  and  C_2
REMARK    2  A    between atoms: C_2  and  N_3
REMARK    3  A    between atoms: N_3  and  C_4
REMARK    4  A    between atoms: N_3  and  S_6
REMARK    5  A    between atoms: C_4  and  C_5
REMARK    6  A    between atoms: S_6  and  C_9
REMARK    7  A    between atoms: C_15  and  C_21
REMARK    8  A    between atoms: C_27  and  C_29
REMARK    9  A    between atoms: C_29  and  C_30
REMARK                            x       y       z     vdW  Elec       q    Type
REMARK                         _______ _______ _______ _____ _____    ______ ____
ROOT
ATOM      1  C   UNL     1      -0.374   0.549  -3.574  0.00  0.00    +0.106 A 
ATOM      2  C   UNL     1      -1.451   1.402  -3.374  0.00  0.00    +0.030 A 
ATOM      3  C   UNL     1      -1.576   2.559  -4.112  0.00  0.00    +0.028 A 
ATOM      4  C   UNL     1      -0.615   2.879  -5.068  0.00  0.00    +0.050 A 
ATOM      5  C   UNL     1       0.474   2.011  -5.266  0.00  0.00    +0.012 A 
ATOM      6  C   UNL     1       0.583   0.845  -4.503  0.00  0.00    +0.039 A 
ATOM      7  C   UNL     1       1.491   2.346  -6.275  0.00  0.00    +0.051 A 
ATOM      8  C   UNL     1       1.343   3.499  -6.992  0.00  0.00    +0.083 A 
ATOM      9  C   UNL     1       0.190   4.359  -6.740  0.00  0.00    +0.250 A 
ATOM     10  O   UNL     1       0.057   5.388  -7.379  0.00  0.00    -0.268 OA
ATOM     11  N   UNL     1      -0.728   4.033  -5.813  0.00  0.00    -0.322 N 
ATOM     12  H   UNL     1      -1.484   4.622  -5.665  0.00  0.00    +0.169 HD
ENDROOT
BRANCH   7  13
ATOM     13  C   UNL     1       2.650   1.452  -6.508  0.00  0.00    +0.250 C 
ATOM     14  O   UNL     1       2.829   0.489  -5.789  0.00  0.00    -0.270 OA
ATOM     15  N   UNL     1       3.506   1.708  -7.517  0.00  0.00    -0.261 N 
ATOM     16  C   UNL     1       4.529   0.814  -7.803  0.00  0.00    +0.165 A 
ATOM     17  N   UNL     1       4.811  -0.324  -7.206  0.00  0.00    -0.233 NA
ATOM     18  C   UNL     1       5.828  -1.068  -7.600  0.00  0.00    +0.124 A 
ATOM     19  C   UNL     1       6.562  -0.605  -8.641  0.00  0.00    +0.015 A 
ATOM     20  S   UNL     1       5.706   0.919  -9.001  0.00  0.00    -0.057 S 
ATOM     21  H   UNL     1       3.408   2.517  -8.044  0.00  0.00    +0.157 HD
BRANCH  19  22
ATOM     22  C   UNL     1       7.767  -1.213  -9.313  0.00  0.00    +0.079 C 
BRANCH  22  23
ATOM     23  C   UNL     1       7.316  -2.102 -10.443  0.00  0.00    -0.043 A 
ATOM     24  C   UNL     1       7.054  -3.439 -10.208  0.00  0.00    +0.004 A 
ATOM     25  C   UNL     1       6.641  -4.255 -11.245  0.00  0.00    +0.000 A 
ATOM     26  C   UNL     1       6.489  -3.734 -12.516  0.00  0.00    +0.000 A 
ATOM     27  C   UNL     1       6.750  -2.397 -12.751  0.00  0.00    +0.000 A 
ATOM     28  C   UNL     1       7.159  -1.580 -11.713  0.00  0.00    +0.004 A 
ENDBRANCH  22  23
ENDBRANCH  19  22
ENDBRANCH   7  13
BRANCH   1  29
ATOM     29  S   UNL     1      -0.237  -0.924  -2.618  0.00  0.00    +0.061 S 
ATOM     30  O   UNL     1       0.569  -1.823  -3.368  0.00  0.00    -0.153 OA
ATOM     31  O   UNL     1      -1.552  -1.255  -2.191  0.00  0.00    -0.153 OA
BRANCH  29  32
ATOM     32  N   UNL     1       0.622  -0.545  -1.254  0.00  0.00    -0.177 NA
BRANCH  32  34
ATOM     33  C   UNL     1      -0.098   1.442  -0.022  0.00  0.00    +0.022 C 
ATOM     34  C   UNL     1      -0.079  -0.087  -0.051  0.00  0.00    +0.106 C 
ENDBRANCH  32  34
BRANCH  32  35
ATOM     35  C   UNL     1       2.082  -0.666  -1.250  0.00  0.00    +0.106 C 
ATOM     36  C   UNL     1       2.479  -2.028  -0.679  0.00  0.00    +0.022 C 
ENDBRANCH  32  35
ENDBRANCH  29  32
ENDBRANCH   1  29
TORSDOF 7
