REMARK  Name = ZINC38571565
REMARK  4 active torsions:
REMARK  status: ('A' for Active; 'I' for Inactive)
REMARK    1  A    between atoms: C_4  and  C_7
REMARK    2  A    between atoms: C_7  and  O_9
REMARK    3  A    between atoms: O_9  and  C_10
REMARK    4  A    between atoms: C_14  and  C_16
REMARK                            x       y       z     vdW  Elec       q    Type
REMARK                         _______ _______ _______ _____ _____    ______ ____
ROOT
ATOM      1  C   UNL     1       5.997  -6.337  -0.321  0.00  0.00    +0.074 C 
ATOM      2  C   UNL     1       6.726  -6.945   0.886  0.00  0.00    +0.152 C 
ATOM      3  C   UNL     1       8.214  -6.820   0.672  0.00  0.00    +0.116 C 
ATOM      4  N   UNL     1       8.979  -6.186   1.511  0.00  0.00    -0.205 NA
ATOM      5  C   UNL     1       8.497  -5.593   2.609  0.00  0.00    +0.206 C 
ATOM      6  N   UNL     1       7.206  -5.608   2.905  0.00  0.00    -0.147 NA
ATOM      7  C   UNL     1       6.323  -6.218   2.137  0.00  0.00    +0.250 C 
ATOM      8  O   UNL     1       5.150  -6.191   2.455  0.00  0.00    -0.273 OA
ATOM      9  N   UNL     1       9.363  -4.951   3.452  0.00  0.00    -0.329 N 
ATOM     10  N   UNL     1       8.749  -7.395  -0.456  0.00  0.00    -0.301 N 
ATOM     11  C   UNL     1       7.982  -7.269  -1.604  0.00  0.00    +0.048 C 
ATOM     12  C   UNL     1       6.701  -6.785  -1.581  0.00  0.00    +0.030 C 
ATOM     13  C   UNL     1       6.173  -6.779  -2.896  0.00  0.00    +0.192 C 
ATOM     14  O   UNL     1       5.060  -6.413  -3.221  0.00  0.00    -0.287 OA
ATOM     15  C   UNL     1       7.222  -7.298  -3.799  0.00  0.00    +0.031 A 
ATOM     16  C   UNL     1       8.347  -7.599  -2.986  0.00  0.00    +0.007 A 
ATOM     17  C   UNL     1       9.511  -8.110  -3.539  0.00  0.00    +0.010 A 
ATOM     18  C   UNL     1       9.520  -8.308  -4.923  0.00  0.00    +0.001 A 
ATOM     19  C   UNL     1       8.431  -8.014  -5.708  0.00  0.00    +0.001 A 
ATOM     20  C   UNL     1       7.245  -7.500  -5.165  0.00  0.00    +0.012 A 
ATOM     21  H   UNL     1      10.312  -4.931   3.249  0.00  0.00    +0.145 HD
ATOM     22  H   UNL     1       9.029  -4.516   4.252  0.00  0.00    +0.145 HD
ATOM     23  H   UNL     1       9.603  -7.856  -0.449  0.00  0.00    +0.153 HD
ENDROOT
BRANCH   1  28
ATOM     24  C   UNL     1       4.878  -2.735  -0.095  0.00  0.00    +0.132 A 
ATOM     25  C   UNL     1       6.096  -2.071  -0.061  0.00  0.00    +0.046 A 
ATOM     26  C   UNL     1       7.274  -2.790  -0.111  0.00  0.00    +0.004 A 
ATOM     27  C   UNL     1       7.241  -4.170  -0.195  0.00  0.00    +0.004 A 
ATOM     28  C   UNL     1       6.029  -4.834  -0.229  0.00  0.00    -0.035 A 
ATOM     29  C   UNL     1       4.847  -4.120  -0.174  0.00  0.00    +0.050 A 
BRANCH  24  30
ATOM     30  O   UNL     1       3.716  -2.031  -0.046  0.00  0.00    -0.422 OA
BRANCH  30  31
ATOM     31  C   UNL     1       3.307  -1.407  -1.167  0.00  0.00    +0.344 C 
ATOM     32  O   UNL     1       4.013  -1.409  -2.156  0.00  0.00    -0.245 OA
BRANCH  31  36
ATOM     33  C   UNL     1      -0.453   0.566  -1.248  0.00  0.00    +0.000 A 
ATOM     34  C   UNL     1       0.349   0.566  -2.375  0.00  0.00    +0.001 A 
ATOM     35  C   UNL     1       1.572  -0.073  -2.356  0.00  0.00    +0.015 A 
ATOM     36  C   UNL     1       1.999  -0.720  -1.195  0.00  0.00    +0.059 A 
ATOM     37  C   UNL     1       1.185  -0.716  -0.061  0.00  0.00    +0.015 A 
ATOM     38  C   UNL     1      -0.035  -0.074  -0.094  0.00  0.00    +0.001 A 
ENDBRANCH  31  36
ENDBRANCH  30  31
ENDBRANCH  24  30
ENDBRANCH   1  28
TORSDOF 4
