REMARK  Name = ZINC06822093
REMARK  10 active torsions:
REMARK  status: ('A' for Active; 'I' for Inactive)
REMARK    1  A    between atoms: C_1  and  C_2
REMARK    2  A    between atoms: C_2  and  C_3
REMARK    3  A    between atoms: C_6  and  N_9
REMARK    4  A    between atoms: N_9  and  C_10
REMARK    5  A    between atoms: C_10  and  C_12
REMARK    6  A    between atoms: C_10  and  C_17
REMARK    7  A    between atoms: N_19  and  C_20
REMARK    8  A    between atoms: C_26  and  C_28
REMARK    9  A    between atoms: C_29  and  N_36
REMARK   10  A    between atoms: C_30  and  C_33
REMARK                            x       y       z     vdW  Elec       q    Type
REMARK                         _______ _______ _______ _____ _____    ______ ____
ROOT
ATOM      1  N   UNL     1      -2.732   2.941   4.638  0.00  0.00    -0.250 N 
ATOM      2  C   UNL     1      -3.541   2.053   5.250  0.00  0.00    +0.262 C 
ATOM      3  O   UNL     1      -4.030   2.319   6.332  0.00  0.00    -0.269 OA
ENDROOT
BRANCH   1   7
ATOM      4  C   UNL     1      -1.335   2.177   0.789  0.00  0.00    -0.048 A 
ATOM      5  C   UNL     1      -2.455   2.968   0.973  0.00  0.00    +0.005 A 
ATOM      6  C   UNL     1      -2.924   3.219   2.247  0.00  0.00    +0.024 A 
ATOM      7  C   UNL     1      -2.263   2.685   3.346  0.00  0.00    +0.038 A 
ATOM      8  C   UNL     1      -1.135   1.895   3.159  0.00  0.00    +0.024 A 
ATOM      9  C   UNL     1      -0.675   1.644   1.881  0.00  0.00    +0.005 A 
BRANCH   4  11
ATOM     10  C   UNL     1      -1.492   0.632  -1.144  0.00  0.00    +0.009 C 
ATOM     11  C   UNL     1      -0.830   1.901  -0.603  0.00  0.00    +0.032 C 
ENDBRANCH   4  11
ENDBRANCH   1   7
BRANCH   2  12
ATOM     12  C   UNL     1      -3.831   0.767   4.613  0.00  0.00    +0.116 A 
ATOM     13  C   UNL     1      -4.608  -0.296   5.078  0.00  0.00    +0.076 A 
ATOM     14  C   UNL     1      -4.651  -1.360   4.177  0.00  0.00    +0.155 A 
ATOM     15  N   UNL     1      -3.986  -1.273   3.046  0.00  0.00    -0.203 NA
ATOM     16  S   UNL     1      -3.281   0.137   3.040  0.00  0.00    +0.019 S 
BRANCH  14  17
ATOM     17  C   UNL     1      -5.428  -2.573   4.492  0.00  0.00    +0.262 C 
ATOM     18  O   UNL     1      -6.040  -2.647   5.541  0.00  0.00    -0.269 OA
ATOM     19  N   UNL     1      -5.460  -3.599   3.619  0.00  0.00    -0.324 N 
ATOM     20  H   UNL     1      -4.971  -3.540   2.783  0.00  0.00    +0.145 HD
ATOM     21  H   UNL     1      -5.971  -4.397   3.827  0.00  0.00    +0.145 HD
ENDBRANCH  14  17
BRANCH  13  22
ATOM     22  N   UNL     1      -5.267  -0.293   6.299  0.00  0.00    -0.355 N 
ATOM     23  H   UNL     1      -5.202   0.479   6.883  0.00  0.00    +0.142 HD
ATOM     24  H   UNL     1      -5.793  -1.062   6.569  0.00  0.00    +0.142 HD
ENDBRANCH  13  22
ENDBRANCH   2  12
BRANCH   1  25
ATOM     25  C   UNL     1      -2.345   4.174   5.327  0.00  0.00    +0.204 C 
BRANCH  25  26
ATOM     26  C   UNL     1      -3.563   5.037   5.535  0.00  0.00    +0.019 A 
ATOM     27  C   UNL     1      -3.686   6.382   5.418  0.00  0.00    +0.013 A 
ATOM     28  C   UNL     1      -4.915   6.966   5.658  0.00  0.00    +0.008 A 
ATOM     29  C   UNL     1      -5.962   6.177   6.003  0.00  0.00    +0.045 A 
ATOM     30  S   UNL     1      -5.220   4.553   5.990  0.00  0.00    -0.099 S 
ENDBRANCH  25  26
BRANCH  25  31
ATOM     31  C   UNL     1      -1.737   3.833   6.664  0.00  0.00    +0.239 C 
ATOM     32  O   UNL     1      -1.637   2.675   7.007  0.00  0.00    -0.273 OA
ATOM     33  N   UNL     1      -1.304   4.817   7.478  0.00  0.00    -0.311 N 
ATOM     34  H   UNL     1      -1.384   5.744   7.203  0.00  0.00    +0.149 HD
BRANCH  33  35
ATOM     35  C   UNL     1      -0.714   4.486   8.777  0.00  0.00    +0.073 C 
ATOM     36  C   UNL     1      -1.825   4.316   9.814  0.00  0.00    +0.022 C 
ATOM     37  C   UNL     1      -1.208   3.970  11.171  0.00  0.00    +0.002 C 
ATOM     38  C   UNL     1      -0.271   5.098  11.607  0.00  0.00    +0.000 C 
ATOM     39  C   UNL     1       0.841   5.268  10.570  0.00  0.00    +0.002 C 
ATOM     40  C   UNL     1       0.224   5.613   9.213  0.00  0.00    +0.022 C 
ENDBRANCH  33  35
ENDBRANCH  25  31
ENDBRANCH   1  25
TORSDOF 9
