REMARK  Name = ZINC29356018
REMARK  8 active torsions:
REMARK  status: ('A' for Active; 'I' for Inactive)
REMARK    1  A    between atoms: C_1  and  C_2
REMARK    2  A    between atoms: C_11  and  N_30
REMARK    3  A    between atoms: C_13  and  S_15
REMARK    4  A    between atoms: S_15  and  C_16
REMARK    5  A    between atoms: C_16  and  C_17
REMARK    6  A    between atoms: N_19  and  C_20
REMARK    7  A    between atoms: C_23  and  S_26
REMARK    8  A    between atoms: S_26  and  C_29
REMARK                            x       y       z     vdW  Elec       q    Type
REMARK                         _______ _______ _______ _____ _____    ______ ____
ROOT
ATOM      1  C   UNL     1       3.057  16.286   2.216  0.00  0.00    +0.008 C 
ATOM      2  C   UNL     1       2.995  14.758   2.160  0.00  0.00    -0.009 C 
ATOM      3  C   UNL     1       1.962  14.324   1.116  0.00  0.00    +0.008 C 
ATOM      4  C   UNL     1       1.715  12.819   1.226  0.00  0.00    +0.037 C 
ATOM      5  C   UNL     1       3.057  12.094   1.166  0.00  0.00    -0.025 A 
ATOM      6  C   UNL     1       4.207  12.752   1.409  0.00  0.00    -0.004 A 
ATOM      7  S   UNL     1       5.484  11.536   1.230  0.00  0.00    -0.073 S 
ATOM      8  C   UNL     1       4.468  10.139   0.828  0.00  0.00    +0.115 A 
ATOM      9  C   UNL     1       3.162  10.668   0.846  0.00  0.00    +0.051 A 
ATOM     10  C   UNL     1       2.121   9.744   0.550  0.00  0.00    +0.129 A 
ATOM     11  N   UNL     1       2.430   8.487   0.280  0.00  0.00    -0.207 NA
ATOM     12  C   UNL     1       3.684   8.052   0.286  0.00  0.00    +0.191 A 
ATOM     13  N   UNL     1       4.695   8.869   0.554  0.00  0.00    -0.214 NA
ATOM     14  C   UNL     1       4.367  14.201   1.756  0.00  0.00    +0.046 C 
ENDROOT
BRANCH  10  15
ATOM     15  N   UNL     1       0.801  10.158   0.540  0.00  0.00    -0.343 N 
ATOM     16  H   UNL     1       0.001   9.438   0.311  0.00  0.00    +0.144 HD
ATOM     17  H   UNL     1       0.552  11.206   0.761  0.00  0.00    +0.144 HD
ENDBRANCH  10  15
BRANCH  12  18
ATOM     18  S   UNL     1       4.014   6.360  -0.077  0.00  0.00    -0.077 S 
BRANCH  18  19
ATOM     19  C   UNL     1       2.327   5.762  -0.349  0.00  0.00    +0.173 C 
BRANCH  19  20
ATOM     20  C   UNL     1       2.362   4.293  -0.684  0.00  0.00    +0.227 C 
ATOM     21  O   UNL     1       3.423   3.708  -0.734  0.00  0.00    -0.275 OA
ATOM     22  N   UNL     1       1.215   3.630  -0.929  0.00  0.00    -0.285 N 
ATOM     23  H   UNL     1       0.261   4.178  -0.969  0.00  0.00    +0.155 HD
BRANCH  22  24
ATOM     24  C   UNL     1       1.236   2.246  -1.131  0.00  0.00    +0.034 A 
ATOM     25  C   UNL     1       2.161   1.459  -0.458  0.00  0.00    +0.025 A 
ATOM     26  C   UNL     1       2.179   0.092  -0.660  0.00  0.00    +0.029 A 
ATOM     27  C   UNL     1       1.278  -0.491  -1.531  0.00  0.00    +0.088 A 
ATOM     28  C   UNL     1       0.356   0.290  -2.203  0.00  0.00    +0.029 A 
ATOM     29  C   UNL     1       0.332   1.657  -2.005  0.00  0.00    +0.025 A 
BRANCH  27  30
ATOM     30  S   UNL     1       1.305  -2.235  -1.786  0.00  0.00    -0.006 S 
ATOM     31  O   UNL     1       0.761  -2.420  -3.086  0.00  0.00    -0.170 OA
ATOM     32  O   UNL     1       2.641  -2.623  -1.497  0.00  0.00    -0.170 OA
ATOM     33  C   UNL     1       0.175  -2.906  -0.535  0.00  0.00    +0.200 C 
ENDBRANCH  27  30
ENDBRANCH  22  24
ENDBRANCH  19  20
ENDBRANCH  18  19
ENDBRANCH  12  18
TORSDOF 6
