REMARK  Name = ZINC28954923
REMARK  8 active torsions:
REMARK  status: ('A' for Active; 'I' for Inactive)
REMARK    1  A    between atoms: C_1  and  C_2
REMARK    2  A    between atoms: C_4  and  N_15
REMARK    3  A    between atoms: N_5  and  C_7
REMARK    4  A    between atoms: C_16  and  C_18
REMARK    5  A    between atoms: C_18  and  N_19
REMARK    6  A    between atoms: N_19  and  C_20
REMARK    7  A    between atoms: C_20  and  C_22
REMARK    8  A    between atoms: C_20  and  C_23
REMARK                            x       y       z     vdW  Elec       q    Type
REMARK                         _______ _______ _______ _____ _____    ______ ____
ROOT
ATOM      1  N   UNL     1      -5.716   1.518  -2.048  0.00  0.00    -0.272 N 
ATOM      2  C   UNL     1      -4.587   1.037  -1.491  0.00  0.00    +0.201 C 
ATOM      3  O   UNL     1      -4.432  -0.160  -1.371  0.00  0.00    -0.278 OA
ATOM      4  H   UNL     1      -5.856   2.604  -2.156  0.00  0.00    +0.156 HD
ENDROOT
BRANCH   1   8
ATOM      5  C   UNL     1      -8.231  -2.665  -3.086  0.00  0.00    +0.067 C 
ATOM      6  C   UNL     1      -7.854  -1.212  -2.962  0.00  0.00    +0.062 A 
ATOM      7  C   UNL     1      -6.666  -0.719  -2.415  0.00  0.00    +0.068 A 
ATOM      8  C   UNL     1      -6.706   0.640  -2.487  0.00  0.00    +0.124 A 
ATOM      9  N   UNL     1      -7.884   0.984  -3.055  0.00  0.00    -0.246 N 
ATOM     10  N   UNL     1      -8.582  -0.195  -3.348  0.00  0.00    -0.175 NA
BRANCH   9  11
ATOM     11  C   UNL     1      -8.347   2.348  -3.322  0.00  0.00    +0.132 C 
ATOM     12  C   UNL     1      -8.588   2.530  -4.830  0.00  0.00    +0.051 C 
ATOM     13  C   UNL     1      -9.372   3.840  -5.085  0.00  0.00    +0.168 C 
ATOM     14  S   UNL     1     -10.332   4.045  -3.530  0.00  0.00    -0.029 S 
ATOM     15  O   UNL     1      -9.917   5.241  -2.884  0.00  0.00    -0.174 OA
ATOM     16  O   UNL     1     -11.711   3.843  -3.808  0.00  0.00    -0.174 OA
ATOM     17  C   UNL     1      -9.693   2.599  -2.583  0.00  0.00    +0.192 C 
ENDBRANCH   9  11
ENDBRANCH   1   8
BRANCH   2  18
ATOM     18  C   UNL     1      -3.516   1.986  -1.017  0.00  0.00    +0.016 C 
BRANCH  18  19
ATOM     19  N   UNL     1      -2.397   1.219  -0.454  0.00  0.00    +0.389 N 
ATOM     20  H   UNL     1      -2.755   0.617   0.394  0.00  0.00    -0.084 HD
ATOM     21  H   UNL     1      -1.982   0.555  -1.226  0.00  0.00    -0.084 HD
BRANCH  19  22
ATOM     22  C   UNL     1      -1.332   2.114   0.020  0.00  0.00    -0.042 C 
ATOM     23  C   UNL     1      -1.648   2.574   1.444  0.00  0.00    -0.009 C 
BRANCH  22  24
ATOM     24  C   UNL     1      -0.017   1.378   0.010  0.00  0.00    -0.043 A 
ATOM     25  C   UNL     1       0.002  -0.004   0.002  0.00  0.00    +0.005 A 
ATOM     26  C   UNL     1       1.208  -0.679  -0.013  0.00  0.00    +0.020 A 
ATOM     27  C   UNL     1       2.397   0.028  -0.021  0.00  0.00    +0.042 A 
ATOM     28  C   UNL     1       2.379   1.411  -0.013  0.00  0.00    +0.040 A 
ATOM     29  C   UNL     1       1.172   2.086   0.002  0.00  0.00    +0.044 A 
ATOM     30 CL   UNL     1       1.148   3.822   0.012  0.00  0.00    -0.083 Cl
ATOM     31 CL   UNL     1       3.912  -0.820  -0.039  0.00  0.00    -0.083 Cl
ENDBRANCH  22  24
ENDBRANCH  19  22
ENDBRANCH  18  19
ENDBRANCH   2  18
TORSDOF 6
