REMARK  Name = ZINC12660258
REMARK  7 active torsions:
REMARK  status: ('A' for Active; 'I' for Inactive)
REMARK    1  A    between atoms: C_1  and  C_2
REMARK    2  A    between atoms: C_3  and  C_19
REMARK    3  A    between atoms: C_4  and  C_10
REMARK    4  A    between atoms: C_15  and  O_16
REMARK    5  A    between atoms: O_16  and  C_17
REMARK    6  A    between atoms: N_21  and  C_22
REMARK    7  A    between atoms: C_25  and  N_28
REMARK                            x       y       z     vdW  Elec       q    Type
REMARK                         _______ _______ _______ _____ _____    ______ ____
ROOT
ATOM      1  C   UNL     1       1.521   3.267   0.809  0.00  0.00    +0.061 C 
ATOM      2  C   UNL     1       1.462   1.921   0.135  0.00  0.00    +0.019 C 
ATOM      3  C   UNL     1       0.264   1.397  -0.199  0.00  0.00    +0.056 C 
ATOM      4  C   UNL     1       0.250   0.041  -0.875  0.00  0.00    +0.145 C 
ATOM      5  N   UNL     1       1.555  -0.598  -1.114  0.00  0.00    -0.288 N 
ATOM      6  C   UNL     1       2.669   0.051  -0.723  0.00  0.00    +0.304 C 
ATOM      7  O   UNL     1       3.751  -0.469  -0.915  0.00  0.00    -0.252 OA
ATOM      8  N   UNL     1       2.623   1.250  -0.128  0.00  0.00    -0.273 N 
ATOM      9  H   UNL     1       1.611  -1.466  -1.544  0.00  0.00    +0.151 HD
ATOM     10  H   UNL     1       3.461   1.665   0.130  0.00  0.00    +0.156 HD
ENDROOT
BRANCH   4  11
ATOM     11  C   UNL     1      -0.577  -0.892  -0.029  0.00  0.00    +0.020 A 
ATOM     12  C   UNL     1       0.037  -1.706   0.904  0.00  0.00    +0.024 A 
ATOM     13  C   UNL     1      -0.722  -2.558   1.685  0.00  0.00    +0.018 A 
ATOM     14  C   UNL     1      -2.096  -2.607   1.526  0.00  0.00    +0.019 A 
ATOM     15  C   UNL     1      -2.712  -1.799   0.591  0.00  0.00    +0.047 A 
ATOM     16  C   UNL     1      -1.953  -0.938  -0.189  0.00  0.00    +0.125 A 
ATOM     17 BR   UNL     1       0.120  -3.665   2.966  0.00  0.00    -0.050 Br
BRANCH  16  18
ATOM     18  O   UNL     1      -2.558  -0.142  -1.110  0.00  0.00    -0.495 OA
ATOM     19  C   UNL     1      -3.963  -0.324  -1.302  0.00  0.00    +0.277 C 
ENDBRANCH  16  18
ENDBRANCH   4  11
BRANCH   3  20
ATOM     20  C   UNL     1      -0.940   2.094   0.068  0.00  0.00    +0.248 C 
ATOM     21  O   UNL     1      -1.530   2.659  -0.835  0.00  0.00    -0.270 OA
ATOM     22  N   UNL     1      -1.433   2.132   1.322  0.00  0.00    -0.282 N 
ATOM     23  H   UNL     1      -0.916   1.767   2.058  0.00  0.00    +0.155 HD
BRANCH  22  24
ATOM     24  C   UNL     1      -2.688   2.698   1.563  0.00  0.00    +0.034 A 
ATOM     25  C   UNL     1      -3.674   2.648   0.586  0.00  0.00    +0.025 A 
ATOM     26  C   UNL     1      -4.915   3.203   0.829  0.00  0.00    +0.034 A 
ATOM     27  C   UNL     1      -5.173   3.818   2.040  0.00  0.00    +0.126 A 
ATOM     28  C   UNL     1      -4.193   3.875   3.013  0.00  0.00    +0.034 A 
ATOM     29  C   UNL     1      -2.951   3.317   2.779  0.00  0.00    +0.025 A 
BRANCH  27  30
ATOM     30  N   UNL     1      -6.502   4.418   2.295  0.00  0.00    +0.056 N 
ATOM     31  O   UNL     1      -6.731   4.960   3.361  0.00  0.00    -0.126 OA
ATOM     32  O   UNL     1      -7.367   4.369   1.438  0.00  0.00    -0.126 OA
ENDBRANCH  27  30
ENDBRANCH  22  24
ENDBRANCH   3  20
TORSDOF 5
