REMARK  Name = ZINC06821973
REMARK  14 active torsions:
REMARK  status: ('A' for Active; 'I' for Inactive)
REMARK    1  A    between atoms: C_1  and  C_2
REMARK    2  A    between atoms: C_2  and  C_3
REMARK    3  A    between atoms: C_6  and  N_9
REMARK    4  A    between atoms: N_9  and  C_10
REMARK    5  A    between atoms: C_10  and  C_12
REMARK    6  A    between atoms: C_10  and  C_19
REMARK    7  A    between atoms: C_15  and  C_18
REMARK    8  A    between atoms: N_21  and  C_22
REMARK    9  A    between atoms: C_22  and  C_23
REMARK   10  A    between atoms: C_22  and  C_24
REMARK   11  A    between atoms: C_22  and  C_25
REMARK   12  A    between atoms: C_26  and  C_28
REMARK   13  A    between atoms: C_29  and  N_36
REMARK   14  A    between atoms: C_30  and  C_33
REMARK                            x       y       z     vdW  Elec       q    Type
REMARK                         _______ _______ _______ _____ _____    ______ ____
ROOT
ATOM      1  N   UNL     1      -3.215   2.759   4.963  0.00  0.00    -0.251 N 
ATOM      2  C   UNL     1      -2.149   2.014   4.610  0.00  0.00    +0.262 C 
ATOM      3  O   UNL     1      -1.948   0.944   5.154  0.00  0.00    -0.269 OA
ENDROOT
BRANCH   1   7
ATOM      4  C   UNL     1      -5.721   1.484   8.037  0.00  0.00    -0.048 A 
ATOM      5  C   UNL     1      -5.898   2.736   7.477  0.00  0.00    +0.005 A 
ATOM      6  C   UNL     1      -5.065   3.164   6.462  0.00  0.00    +0.024 A 
ATOM      7  C   UNL     1      -4.056   2.331   5.995  0.00  0.00    +0.038 A 
ATOM      8  C   UNL     1      -3.885   1.072   6.556  0.00  0.00    +0.024 A 
ATOM      9  C   UNL     1      -4.718   0.652   7.575  0.00  0.00    +0.005 A 
BRANCH   4  11
ATOM     10  C   UNL     1      -6.027   1.422  10.497  0.00  0.00    +0.009 C 
ATOM     11  C   UNL     1      -6.628   1.022   9.148  0.00  0.00    +0.032 C 
ENDBRANCH   4  11
ENDBRANCH   1   7
BRANCH   2  12
ATOM     12  C   UNL     1      -1.234   2.492   3.572  0.00  0.00    +0.116 A 
ATOM     13  C   UNL     1      -0.635   1.786   2.527  0.00  0.00    +0.076 A 
ATOM     14  C   UNL     1       0.183   2.593   1.737  0.00  0.00    +0.155 A 
ATOM     15  N   UNL     1       0.305   3.869   2.031  0.00  0.00    -0.203 NA
ATOM     16  S   UNL     1      -0.594   4.131   3.299  0.00  0.00    +0.019 S 
BRANCH  14  17
ATOM     17  C   UNL     1       0.902   2.022   0.583  0.00  0.00    +0.262 C 
ATOM     18  O   UNL     1       0.784   0.842   0.317  0.00  0.00    -0.269 OA
ATOM     19  N   UNL     1       1.690   2.809  -0.176  0.00  0.00    -0.324 N 
ATOM     20  H   UNL     1       1.784   3.751   0.036  0.00  0.00    +0.145 HD
ATOM     21  H   UNL     1       2.163   2.434  -0.935  0.00  0.00    +0.145 HD
ENDBRANCH  14  17
BRANCH  13  22
ATOM     22  N   UNL     1      -0.831   0.430   2.301  0.00  0.00    -0.355 N 
ATOM     23  H   UNL     1      -1.412  -0.081   2.886  0.00  0.00    +0.142 HD
ATOM     24  H   UNL     1      -0.386  -0.007   1.557  0.00  0.00    +0.142 HD
ENDBRANCH  13  22
ENDBRANCH   2  12
BRANCH   1  25
ATOM     25  C   UNL     1      -3.493   4.018   4.267  0.00  0.00    +0.197 C 
BRANCH  25  26
ATOM     26  C   UNL     1      -4.900   3.993   3.727  0.00  0.00    -0.018 A 
ATOM     27  C   UNL     1      -5.728   2.922   4.005  0.00  0.00    +0.006 A 
ATOM     28  C   UNL     1      -7.020   2.902   3.514  0.00  0.00    +0.004 A 
ATOM     29  C   UNL     1      -7.481   3.948   2.736  0.00  0.00    -0.050 A 
ATOM     30  C   UNL     1      -6.650   5.016   2.453  0.00  0.00    +0.004 A 
ATOM     31  C   UNL     1      -5.360   5.039   2.948  0.00  0.00    +0.006 A 
ATOM     32  C   UNL     1      -8.887   3.924   2.196  0.00  0.00    +0.044 C 
ENDBRANCH  25  26
BRANCH  25  33
ATOM     33  C   UNL     1      -3.344   5.168   5.229  0.00  0.00    +0.239 C 
ATOM     34  O   UNL     1      -3.036   4.958   6.383  0.00  0.00    -0.273 OA
ATOM     35  N   UNL     1      -3.553   6.431   4.806  0.00  0.00    -0.309 N 
ATOM     36  H   UNL     1      -3.799   6.599   3.883  0.00  0.00    +0.149 HD
BRANCH  35  37
ATOM     37  C   UNL     1      -3.408   7.549   5.742  0.00  0.00    +0.026 C 
ATOM     38  C   UNL     1      -1.980   7.574   6.290  0.00  0.00    +0.031 C 
ATOM     39  C   UNL     1      -3.698   8.864   5.014  0.00  0.00    +0.031 C 
ATOM     40  C   UNL     1      -4.395   7.378   6.898  0.00  0.00    +0.031 C 
ENDBRANCH  35  37
ENDBRANCH  25  33
ENDBRANCH   1  25
TORSDOF 9
