REMARK  Name = ZINC04635154
REMARK  13 active torsions:
REMARK  status: ('A' for Active; 'I' for Inactive)
REMARK    1  A    between atoms: C_1  and  O_2
REMARK    2  A    between atoms: O_2  and  C_3
REMARK    3  A    between atoms: C_3  and  C_5
REMARK    4  A    between atoms: C_8  and  C_11
REMARK    5  A    between atoms: C_13  and  C_24
REMARK    6  A    between atoms: C_14  and  O_23
REMARK    7  A    between atoms: N_17  and  C_18
REMARK    8  A    between atoms: C_18  and  C_19
REMARK    9  A    between atoms: C_19  and  N_54
REMARK   10  A    between atoms: C_20  and  C_21
REMARK   11  A    between atoms: C_20  and  N_54
REMARK   12  A    between atoms: C_21  and  O_22
REMARK   13  A    between atoms: C_24  and  C_26
REMARK                            x       y       z     vdW  Elec       q    Type
REMARK                         _______ _______ _______ _____ _____    ______ ____
ROOT
ATOM      1  C   UNL     1      -5.721   2.436   3.873  0.00  0.00    +0.144 C 
ATOM      2  C   UNL     1      -6.193   2.458   5.308  0.00  0.00    +0.071 C 
ATOM      3  C   UNL     1      -5.730   1.326   5.888  0.00  0.00    +0.188 C 
ATOM      4  C   UNL     1      -4.969   0.545   4.890  0.00  0.00    +0.282 C 
ATOM      5  O   UNL     1      -4.432  -0.524   5.104  0.00  0.00    -0.267 OA
ATOM      6  N   UNL     1      -4.957   1.193   3.712  0.00  0.00    -0.285 N 
ENDROOT
BRANCH   1  10
ATOM      7  C   UNL     1      -3.216   5.814   3.099  0.00  0.00    +0.059 A 
ATOM      8  C   UNL     1      -4.476   5.724   2.502  0.00  0.00    +0.015 A 
ATOM      9  C   UNL     1      -5.278   4.631   2.756  0.00  0.00    +0.006 A 
ATOM     10  C   UNL     1      -4.838   3.626   3.599  0.00  0.00    -0.022 A 
ATOM     11  C   UNL     1      -3.594   3.712   4.198  0.00  0.00    +0.006 A 
ATOM     12  C   UNL     1      -2.778   4.797   3.949  0.00  0.00    +0.015 A 
BRANCH   7  13
ATOM     13  C   UNL     1      -2.351   6.982   2.832  0.00  0.00    +0.339 C 
ATOM     14  O   UNL     1      -2.735   7.866   2.093  0.00  0.00    -0.245 OA
BRANCH  13  16
ATOM     15  C   UNL     1      -0.341   8.242   3.102  0.00  0.00    +0.280 C 
ATOM     16  O   UNL     1      -1.137   7.066   3.409  0.00  0.00    -0.464 OA
ENDBRANCH  13  16
ENDBRANCH   7  13
ENDBRANCH   1  10
BRANCH   3  17
ATOM     17  O   UNL     1      -5.935   0.965   7.176  0.00  0.00    -0.502 OA
ATOM     18  H   UNL     1      -5.488   0.088   7.351  0.00  0.00    +0.292 HD
ENDBRANCH   3  17
BRANCH   2  19
ATOM     19  C   UNL     1      -6.998   3.502   5.948  0.00  0.00    +0.195 C 
ATOM     20  O   UNL     1      -6.520   4.178   6.840  0.00  0.00    -0.287 OA
BRANCH  19  21
ATOM     21  C   UNL     1      -8.390   3.736   5.509  0.00  0.00    +0.022 A 
ATOM     22  C   UNL     1      -8.978   2.892   4.564  0.00  0.00    +0.013 A 
ATOM     23  C   UNL     1     -10.279   3.111   4.163  0.00  0.00    +0.021 A 
ATOM     24  C   UNL     1     -10.999   4.173   4.688  0.00  0.00    +0.041 A 
ATOM     25  C   UNL     1     -10.419   5.016   5.621  0.00  0.00    +0.021 A 
ATOM     26  C   UNL     1      -9.121   4.804   6.035  0.00  0.00    +0.013 A 
ATOM     27 CL   UNL     1     -12.634   4.447   4.173  0.00  0.00    -0.084 Cl
ENDBRANCH  19  21
ENDBRANCH   2  19
BRANCH   6  28
ATOM     28  C   UNL     1      -4.302   0.737   2.483  0.00  0.00    +0.090 C 
BRANCH  28  29
ATOM     29  C   UNL     1      -2.868   1.270   2.442  0.00  0.00    -0.063 C 
BRANCH  29  30
ATOM     30  N   UNL     1      -2.216   0.806   1.203  0.00  0.00    +0.382 N 
ATOM     31  H   UNL     1      -2.741   1.155   0.393  0.00  0.00    -0.086 HD
ATOM     32  H   UNL     1      -2.207  -0.220   1.188  0.00  0.00    -0.086 HD
BRANCH  30  33
ATOM     33  C   UNL     1      -0.830   1.306   1.136  0.00  0.00    -0.054 C 
BRANCH  33  34
ATOM     34  C   UNL     1      -0.180   0.810  -0.158  0.00  0.00    +0.137 C 
BRANCH  34  35
ATOM     35  O   UNL     1      -0.849   1.389  -1.279  0.00  0.00    -0.397 OA
ATOM     36  H   UNL     1      -0.489   1.118  -2.135  0.00  0.00    +0.209 HD
ENDBRANCH  34  35
ENDBRANCH  33  34
ENDBRANCH  30  33
ENDBRANCH  29  30
ENDBRANCH  28  29
ENDBRANCH   6  28
TORSDOF 12
