REMARK  Name = ZINC47030381
REMARK  5 active torsions:
REMARK  status: ('A' for Active; 'I' for Inactive)
REMARK    1  A    between atoms: C_3  and  S_9
REMARK    2  A    between atoms: C_6  and  C_7
REMARK    3  A    between atoms: S_9  and  N_12
REMARK    4  A    between atoms: N_12  and  C_13
REMARK    5  A    between atoms: C_18  and  C_19
REMARK                            x       y       z     vdW  Elec       q    Type
REMARK                         _______ _______ _______ _____ _____    ______ ____
ROOT
ATOM      1  S   UNL     1       3.889   2.325  -0.023  0.00  0.00    +0.092 S 
ATOM      2  O   UNL     1       4.872   1.468  -0.587  0.00  0.00    -0.148 OA
ATOM      3  O   UNL     1       3.592   3.605  -0.564  0.00  0.00    -0.148 OA
ENDROOT
BRANCH   1   6
ATOM      4  C   UNL     1      -0.017   1.392   0.010  0.00  0.00    +0.021 A 
ATOM      5  C   UNL     1       1.170   2.095   0.002  0.00  0.00    +0.030 A 
ATOM      6  C   UNL     1       2.378   1.419  -0.013  0.00  0.00    +0.110 A 
ATOM      7  C   UNL     1       2.404   0.036  -0.021  0.00  0.00    +0.030 A 
ATOM      8  C   UNL     1       1.224  -0.679  -0.014  0.00  0.00    +0.021 A 
ATOM      9  C   UNL     1       0.002  -0.004   0.002  0.00  0.00    +0.052 A 
BRANCH   9  10
ATOM     10  C   UNL     1      -1.226  -0.740   0.010  0.00  0.00    +0.099 C 
ATOM     11  N   UNL     1      -2.201  -1.324   0.017  0.00  0.00    -0.191 NA
ENDBRANCH   9  10
ENDBRANCH   1   6
BRANCH   1  12
ATOM     12  N   UNL     1       4.324   2.568   1.557  0.00  0.00    -0.097 NA
BRANCH  12  13
ATOM     13  C   UNL     1       5.488   3.262   1.857  0.00  0.00    +0.089 A 
ATOM     14  C   UNL     1       6.288   3.760   0.835  0.00  0.00    +0.030 A 
ATOM     15  C   UNL     1       7.445   4.449   1.135  0.00  0.00    +0.040 A 
ATOM     16  C   UNL     1       7.820   4.652   2.456  0.00  0.00    +0.124 A 
ATOM     17  C   UNL     1       7.040   4.167   3.484  0.00  0.00    +0.055 A 
ATOM     18  C   UNL     1       5.861   3.471   3.195  0.00  0.00    +0.090 A 
ATOM     19  F   UNL     1       8.956   5.328   2.736  0.00  0.00    -0.205 F 
BRANCH  18  20
ATOM     20  C   UNL     1       5.020   2.955   4.286  0.00  0.00    +0.389 C 
ATOM     21  O   UNL     1       5.348   3.139   5.450  0.00  0.00    -0.241 OA
ATOM     22  O   UNL     1       3.992   2.343   4.029  0.00  0.00    -0.241 OA
ENDBRANCH  18  20
ENDBRANCH  12  13
ENDBRANCH   1  12
TORSDOF 5
