REMARK  Name = ZINC14644285
REMARK  11 active torsions:
REMARK  status: ('A' for Active; 'I' for Inactive)
REMARK    1  A    between atoms: C_1  and  C_2
REMARK    2  A    between atoms: C_5  and  N_9
REMARK    3  A    between atoms: C_6  and  C_8
REMARK    4  A    between atoms: C_10  and  C_12
REMARK    5  A    between atoms: C_12  and  C_13
REMARK    6  A    between atoms: C_13  and  C_14
REMARK    7  A    between atoms: N_16  and  N_17
REMARK    8  A    between atoms: C_18  and  C_20
REMARK    9  A    between atoms: C_20  and  C_22
REMARK   10  A    between atoms: C_20  and  O_23
REMARK   11  A    between atoms: O_23  and  C_24
REMARK                            x       y       z     vdW  Elec       q    Type
REMARK                         _______ _______ _______ _____ _____    ______ ____
ROOT
ATOM      1  C   UNL     1       3.774   1.477   0.069  0.00  0.00    +0.230 C 
ATOM      2  O   UNL     1       3.732   2.689   0.071  0.00  0.00    -0.274 OA
ATOM      3  N   UNL     1       4.962   0.845   0.002  0.00  0.00    -0.234 N 
ATOM      4  H   UNL     1       4.996  -0.125   0.000  0.00  0.00    +0.173 HD
ENDROOT
BRANCH   3   5
ATOM      5  N   UNL     1       6.148   1.587  -0.067  0.00  0.00    -0.231 N 
ATOM      6  C   UNL     1       7.336   0.954  -0.135  0.00  0.00    +0.270 C 
ATOM      7  O   UNL     1       7.378  -0.258  -0.136  0.00  0.00    -0.270 OA
ATOM      8  H   UNL     1       6.114   2.556  -0.065  0.00  0.00    +0.173 HD
BRANCH   6   9
ATOM      9  C   UNL     1       8.612   1.753  -0.208  0.00  0.00    +0.257 C 
ATOM     10  C   UNL     1       8.796   2.541   1.090  0.00  0.00    +0.062 C 
BRANCH   9  11
ATOM     11  O   UNL     1       9.719   0.867  -0.389  0.00  0.00    -0.479 OA
BRANCH  11  12
ATOM     12  C   UNL     1      10.829   1.379  -0.982  0.00  0.00    +0.136 A 
ATOM     13  C   UNL     1      10.895   2.732  -1.281  0.00  0.00    +0.048 A 
ATOM     14  C   UNL     1      12.027   3.253  -1.879  0.00  0.00    +0.023 A 
ATOM     15  C   UNL     1      13.090   2.424  -2.188  0.00  0.00    +0.042 A 
ATOM     16  C   UNL     1      13.025   1.073  -1.896  0.00  0.00    +0.039 A 
ATOM     17  C   UNL     1      11.897   0.549  -1.293  0.00  0.00    +0.061 A 
ATOM     18 BR   UNL     1      11.807  -1.297  -0.894  0.00  0.00    -0.046 Br
ATOM     19 CL   UNL     1      14.508   3.079  -2.946  0.00  0.00    -0.084 Cl
ENDBRANCH  11  12
ENDBRANCH   9  11
ENDBRANCH   6   9
ENDBRANCH   3   5
BRANCH   1  20
ATOM     20  C   UNL     1       2.498   0.679   0.143  0.00  0.00    +0.106 C 
BRANCH  20  21
ATOM     21  C   UNL     1       1.303   1.632   0.211  0.00  0.00    +0.105 C 
BRANCH  21  23
ATOM     22  N   UNL     1      -1.161   1.466   0.347  0.00  0.00    -0.285 N 
ATOM     23  C   UNL     1       0.027   0.833   0.284  0.00  0.00    +0.218 C 
ATOM     24  O   UNL     1       0.069  -0.379   0.283  0.00  0.00    -0.275 OA
ATOM     25  H   UNL     1      -1.193   2.432   0.431  0.00  0.00    +0.155 HD
BRANCH  22  30
ATOM     26  C   UNL     1      -5.979  -1.520   0.118  0.00  0.00    +0.044 C 
ATOM     27  C   UNL     1      -4.700  -0.726   0.178  0.00  0.00    -0.050 A 
ATOM     28  C   UNL     1      -3.594  -1.145  -0.539  0.00  0.00    +0.005 A 
ATOM     29  C   UNL     1      -2.420  -0.420  -0.485  0.00  0.00    +0.024 A 
ATOM     30  C   UNL     1      -2.350   0.730   0.290  0.00  0.00    +0.036 A 
ATOM     31  C   UNL     1      -3.460   1.145   1.013  0.00  0.00    -0.029 A 
ATOM     32  C   UNL     1      -4.634   0.418   0.951  0.00  0.00    +0.008 A 
ATOM     33  C   UNL     1      -3.387   2.389   1.860  0.00  0.00    +0.045 C 
ENDBRANCH  22  30
ENDBRANCH  21  23
ENDBRANCH  20  21
ENDBRANCH   1  20
TORSDOF 8
