REMARK  Name = ZINC38684130
REMARK  13 active torsions:
REMARK  status: ('A' for Active; 'I' for Inactive)
REMARK    1  A    between atoms: C_1  and  C_2
REMARK    2  A    between atoms: C_2  and  C_3
REMARK    3  A    between atoms: C_2  and  C_4
REMARK    4  A    between atoms: C_4  and  O_5
REMARK    5  A    between atoms: O_5  and  C_6
REMARK    6  A    between atoms: C_9  and  C_14
REMARK    7  A    between atoms: C_11  and  O_12
REMARK    8  A    between atoms: O_12  and  C_13
REMARK    9  A    between atoms: C_19  and  O_28
REMARK   10  A    between atoms: C_23  and  N_27
REMARK   11  A    between atoms: C_24  and  C_25
REMARK   12  A    between atoms: O_28  and  C_29
REMARK   13  A    between atoms: C_29  and  C_31
REMARK                            x       y       z     vdW  Elec       q    Type
REMARK                         _______ _______ _______ _____ _____    ______ ____
ROOT
ATOM      1  C   UNL     1       5.329  -1.545  -5.540  0.00  0.00    +0.098 C 
ATOM      2  C   UNL     1       4.783  -0.949  -6.811  0.00  0.00    +0.008 A 
ATOM      3  C   UNL     1       4.909   0.411  -7.033  0.00  0.00    +0.012 A 
ATOM      4  C   UNL     1       4.415   0.976  -8.193  0.00  0.00    +0.047 A 
ATOM      5  C   UNL     1       3.788   0.177  -9.139  0.00  0.00    +0.135 A 
ATOM      6  C   UNL     1       3.659  -1.184  -8.919  0.00  0.00    +0.093 A 
ATOM      7  C   UNL     1       4.157  -1.750  -7.753  0.00  0.00    +0.138 A 
ATOM      8  O   UNL     1       4.024  -3.084  -7.552  0.00  0.00    -0.441 OA
ATOM      9  C   UNL     1       4.809  -3.709  -6.659  0.00  0.00    +0.199 C 
ATOM     10  C   UNL     1       5.454  -3.036  -5.681  0.00  0.00    +0.098 C 
ENDROOT
BRANCH   1  14
ATOM     11  C   UNL     1       2.682  -0.647  -2.304  0.00  0.00    +0.162 A 
ATOM     12  C   UNL     1       2.230  -1.379  -3.390  0.00  0.00    +0.050 A 
ATOM     13  C   UNL     1       3.088  -1.667  -4.435  0.00  0.00    +0.008 A 
ATOM     14  C   UNL     1       4.398  -1.227  -4.399  0.00  0.00    -0.031 A 
ATOM     15  C   UNL     1       4.856  -0.497  -3.318  0.00  0.00    +0.054 A 
ATOM     16  C   UNL     1       3.999  -0.199  -2.270  0.00  0.00    +0.162 A 
BRANCH  16  17
ATOM     17  O   UNL     1       4.446   0.524  -1.209  0.00  0.00    -0.491 OA
ATOM     18  C   UNL     1       5.810   0.950  -1.243  0.00  0.00    +0.277 C 
ENDBRANCH  16  17
BRANCH  11  19
ATOM     19  O   UNL     1       1.839  -0.362  -1.275  0.00  0.00    -0.488 OA
BRANCH  19  20
ATOM     20  C   UNL     1       0.501  -0.854  -1.378  0.00  0.00    +0.232 C 
BRANCH  20  22
ATOM     21  C   UNL     1      -0.422   1.087  -0.104  0.00  0.00    +0.010 C 
ATOM     22  C   UNL     1      -0.291  -0.438  -0.137  0.00  0.00    +0.020 C 
ATOM     23  C   UNL     1      -1.685  -1.068  -0.187  0.00  0.00    +0.010 C 
ENDBRANCH  20  22
ENDBRANCH  19  20
ENDBRANCH  11  19
ENDBRANCH   1  14
BRANCH   9  24
ATOM     24  N   UNL     1       4.958  -5.071  -6.742  0.00  0.00    -0.328 N 
ATOM     25  H   UNL     1       4.500  -5.568  -7.438  0.00  0.00    +0.145 HD
ATOM     26  H   UNL     1       5.521  -5.537  -6.104  0.00  0.00    +0.145 HD
ENDBRANCH   9  24
BRANCH  10  27
ATOM     27  C   UNL     1       6.275  -3.762  -4.760  0.00  0.00    +0.101 C 
ATOM     28  N   UNL     1       6.926  -4.338  -4.029  0.00  0.00    -0.191 NA
ENDBRANCH  10  27
BRANCH   5  29
ATOM     29  O   UNL     1       3.300   0.731 -10.281  0.00  0.00    -0.422 OA
BRANCH  29  30
ATOM     30  C   UNL     1       4.183   1.195 -11.187  0.00  0.00    +0.344 C 
ATOM     31  O   UNL     1       5.373   1.018 -11.020  0.00  0.00    -0.245 OA
BRANCH  30  32
ATOM     32  C   UNL     1       3.704   1.918 -12.382  0.00  0.00    +0.059 A 
ATOM     33  C   UNL     1       2.337   2.128 -12.573  0.00  0.00    +0.016 A 
ATOM     34  C   UNL     1       1.896   2.804 -13.691  0.00  0.00    +0.021 A 
ATOM     35  C   UNL     1       2.806   3.274 -14.623  0.00  0.00    +0.041 A 
ATOM     36  C   UNL     1       4.164   3.068 -14.439  0.00  0.00    +0.021 A 
ATOM     37  C   UNL     1       4.617   2.400 -13.322  0.00  0.00    +0.016 A 
ATOM     38 CL   UNL     1       2.243   4.124 -16.028  0.00  0.00    -0.084 Cl
ENDBRANCH  30  32
ENDBRANCH  29  30
ENDBRANCH   5  29
TORSDOF 10
