REMARK  Name = ZINC03464115
REMARK  8 active torsions:
REMARK  status: ('A' for Active; 'I' for Inactive)
REMARK    1  A    between atoms: C_1  and  C_2
REMARK    2  A    between atoms: C_2  and  C_3
REMARK    3  A    between atoms: C_3  and  C_20
REMARK    4  A    between atoms: N_6  and  C_10
REMARK    5  A    between atoms: C_10  and  C_11
REMARK    6  A    between atoms: N_16  and  C_17
REMARK    7  A    between atoms: C_17  and  C_18
REMARK    8  A    between atoms: C_17  and  C_19
REMARK                            x       y       z     vdW  Elec       q    Type
REMARK                         _______ _______ _______ _____ _____    ______ ____
ROOT
ATOM      1  C   UNL     1       2.490   1.047  -0.016  0.00  0.00    +0.138 C 
ATOM      2  C   UNL     1       2.960   0.764   1.397  0.00  0.00    +0.251 C 
ATOM      3  O   UNL     1       3.226   1.576   2.257  0.00  0.00    -0.272 OA
ATOM      4  N   UNL     1       3.022  -0.579   1.498  0.00  0.00    -0.215 N 
ATOM      5  C   UNL     1       2.659  -1.177   0.357  0.00  0.00    +0.310 C 
ATOM      6  O   UNL     1       2.635  -2.382   0.205  0.00  0.00    -0.252 OA
ATOM      7  N   UNL     1       2.326  -0.295  -0.602  0.00  0.00    -0.281 N 
ATOM      8  H   UNL     1       2.033  -0.502  -1.503  0.00  0.00    +0.152 HD
ENDROOT
BRANCH   1   9
ATOM      9  C   UNL     1       1.175   1.783   0.000  0.00  0.00    -0.015 A 
ATOM     10  C   UNL     1      -0.013   1.076   0.008  0.00  0.00    +0.007 A 
ATOM     11  C   UNL     1      -1.219   1.750   0.017  0.00  0.00    +0.020 A 
ATOM     12  C   UNL     1      -1.237   3.134   0.030  0.00  0.00    +0.041 A 
ATOM     13  C   UNL     1      -0.048   3.841   0.023  0.00  0.00    +0.020 A 
ATOM     14  C   UNL     1       1.157   3.165   0.009  0.00  0.00    +0.007 A 
ATOM     15 CL   UNL     1      -2.752   3.982   0.048  0.00  0.00    -0.084 Cl
ENDBRANCH   1   9
BRANCH   1  17
ATOM     16  C   UNL     1       4.830   1.026  -0.893  0.00  0.00    +0.007 C 
ATOM     17  C   UNL     1       3.544   1.848  -0.784  0.00  0.00    +0.037 C 
ENDBRANCH   1  17
BRANCH   4  18
ATOM     18  C   UNL     1       3.435  -1.295   2.708  0.00  0.00    +0.214 C 
BRANCH  18  19
ATOM     19  C   UNL     1       2.228  -1.568   3.567  0.00  0.00    +0.238 C 
ATOM     20  O   UNL     1       1.130  -1.202   3.204  0.00  0.00    -0.274 OA
ATOM     21  N   UNL     1       2.368  -2.221   4.738  0.00  0.00    -0.239 N 
ATOM     22  C   UNL     1       1.288  -2.466   5.506  0.00  0.00    +0.306 C 
ATOM     23  O   UNL     1       0.188  -2.098   5.143  0.00  0.00    -0.252 OA
ATOM     24  N   UNL     1       1.428  -3.118   6.677  0.00  0.00    -0.297 N 
ATOM     25  H   UNL     1       3.246  -2.514   5.027  0.00  0.00    +0.159 HD
ATOM     26  H   UNL     1       2.306  -3.412   6.967  0.00  0.00    +0.151 HD
BRANCH  24  27
ATOM     27  C   UNL     1       0.254  -3.384   7.512  0.00  0.00    +0.068 C 
ATOM     28  C   UNL     1      -0.424  -4.673   7.043  0.00  0.00    +0.027 C 
ATOM     29  C   UNL     1       0.690  -3.539   8.970  0.00  0.00    +0.027 C 
ENDBRANCH  24  27
ENDBRANCH  18  19
ENDBRANCH   4  18
TORSDOF 5
