REMARK  Name = ZINC21880664
REMARK  8 active torsions:
REMARK  status: ('A' for Active; 'I' for Inactive)
REMARK    1  A    between atoms: C_1  and  O_2
REMARK    2  A    between atoms: O_2  and  C_3
REMARK    3  A    between atoms: C_6  and  C_9
REMARK    4  A    between atoms: C_12  and  C_29
REMARK    5  A    between atoms: C_18  and  C_19
REMARK    6  A    between atoms: N_21  and  C_22
REMARK    7  A    between atoms: C_32  and  O_35
REMARK    8  A    between atoms: O_35  and  C_36
REMARK                            x       y       z     vdW  Elec       q    Type
REMARK                         _______ _______ _______ _____ _____    ______ ____
ROOT
ATOM      1  C   UNL     1       2.501  -2.513  -4.367  0.00  0.00    +0.145 C 
ATOM      2  C   UNL     1       3.656  -3.396  -3.880  0.00  0.00    +0.087 C 
ATOM      3  C   UNL     1       4.066  -4.381  -4.938  0.00  0.00    +0.053 C 
ATOM      4  N   UNL     1       3.208  -4.912  -5.772  0.00  0.00    -0.232 NA
ATOM      5  C   UNL     1       1.923  -4.505  -5.728  0.00  0.00    +0.164 A 
ATOM      6  N   UNL     1       1.538  -3.369  -5.067  0.00  0.00    -0.238 N 
ATOM      7  N   UNL     1       0.163  -3.229  -5.202  0.00  0.00    -0.176 NA
ATOM      8  C   UNL     1      -0.301  -4.211  -5.931  0.00  0.00    +0.149 A 
ATOM      9  C   UNL     1       0.781  -5.047  -6.300  0.00  0.00    +0.100 A 
ENDROOT
BRANCH   1  13
ATOM     10  C   UNL     1       0.606  -0.641  -1.025  0.00  0.00    +0.120 A 
ATOM     11  C   UNL     1       1.168   0.134  -2.029  0.00  0.00    +0.046 A 
ATOM     12  C   UNL     1       1.780  -0.473  -3.108  0.00  0.00    +0.009 A 
ATOM     13  C   UNL     1       1.833  -1.853  -3.188  0.00  0.00    -0.022 A 
ATOM     14  C   UNL     1       1.273  -2.627  -2.189  0.00  0.00    +0.009 A 
ATOM     15  C   UNL     1       0.665  -2.025  -1.105  0.00  0.00    +0.046 A 
BRANCH  10  17
ATOM     16  C   UNL     1      -0.020   1.383   0.054  0.00  0.00    +0.277 C 
ATOM     17  O   UNL     1       0.004  -0.046   0.038  0.00  0.00    -0.495 OA
ENDBRANCH  10  17
ENDBRANCH   1  13
BRANCH   3  18
ATOM     18  C   UNL     1       5.481  -4.762  -5.040  0.00  0.00    -0.003 A 
ATOM     19  C   UNL     1       6.421  -4.215  -4.158  0.00  0.00    +0.013 A 
ATOM     20  C   UNL     1       7.745  -4.575  -4.258  0.00  0.00    +0.046 A 
ATOM     21  C   UNL     1       8.150  -5.481  -5.232  0.00  0.00    +0.120 A 
ATOM     22  C   UNL     1       7.221  -6.027  -6.110  0.00  0.00    +0.046 A 
ATOM     23  C   UNL     1       5.893  -5.678  -6.016  0.00  0.00    +0.013 A 
BRANCH  21  24
ATOM     24  O   UNL     1       9.458  -5.833  -5.326  0.00  0.00    -0.495 OA
ATOM     25  C   UNL     1       9.806  -6.769  -6.349  0.00  0.00    +0.277 C 
ENDBRANCH  21  24
ENDBRANCH   3  18
BRANCH   9  26
ATOM     26  C   UNL     1       0.709  -6.255  -7.132  0.00  0.00    +0.253 C 
ATOM     27  O   UNL     1       1.720  -6.886  -7.379  0.00  0.00    -0.270 OA
ATOM     28  N   UNL     1      -0.478  -6.665  -7.623  0.00  0.00    -0.281 N 
ATOM     29  H   UNL     1      -1.292  -6.203  -7.372  0.00  0.00    +0.155 HD
BRANCH  28  30
ATOM     30  C   UNL     1      -0.534  -7.759  -8.494  0.00  0.00    +0.034 A 
ATOM     31  C   UNL     1       0.335  -8.829  -8.325  0.00  0.00    +0.025 A 
ATOM     32  C   UNL     1       0.277  -9.907  -9.186  0.00  0.00    +0.022 A 
ATOM     33  C   UNL     1      -0.646  -9.922 -10.216  0.00  0.00    +0.041 A 
ATOM     34  C   UNL     1      -1.513  -8.857 -10.388  0.00  0.00    +0.022 A 
ATOM     35  C   UNL     1      -1.463  -7.779  -9.526  0.00  0.00    +0.025 A 
ATOM     36 CL   UNL     1      -0.716 -11.279 -11.297  0.00  0.00    -0.084 Cl
ENDBRANCH  28  30
ENDBRANCH   9  26
TORSDOF 6
