REMARK  Name = ZINC09050875
REMARK  9 active torsions:
REMARK  status: ('A' for Active; 'I' for Inactive)
REMARK    1  A    between atoms: C_1  and  C_2
REMARK    2  A    between atoms: C_2  and  C_3
REMARK    3  A    between atoms: C_2  and  C_4
REMARK    4  A    between atoms: C_4  and  C_6
REMARK    5  A    between atoms: C_4  and  N_23
REMARK    6  A    between atoms: N_8  and  C_9
REMARK    7  A    between atoms: C_13  and  S_15
REMARK    8  A    between atoms: S_15  and  N_18
REMARK    9  A    between atoms: C_24  and  C_26
REMARK                            x       y       z     vdW  Elec       q    Type
REMARK                         _______ _______ _______ _____ _____    ______ ____
ROOT
ATOM      1  C   UNL     1       5.121  -0.847  -4.157  0.00  0.00    +0.238 C 
ATOM      2  O   UNL     1       4.905  -0.143  -5.121  0.00  0.00    -0.273 OA
ATOM      3  N   UNL     1       4.589  -0.531  -2.960  0.00  0.00    -0.284 N 
ATOM      4  H   UNL     1       4.822  -1.049  -2.174  0.00  0.00    +0.155 HD
ENDROOT
BRANCH   3   5
ATOM      5  C   UNL     1       3.699   0.544  -2.851  0.00  0.00    +0.035 A 
ATOM      6  C   UNL     1       2.841   0.845  -3.900  0.00  0.00    +0.023 A 
ATOM      7  C   UNL     1       1.964   1.907  -3.789  0.00  0.00    +0.004 A 
ATOM      8  C   UNL     1       1.942   2.670  -2.636  0.00  0.00    +0.029 A 
ATOM      9  C   UNL     1       2.796   2.373  -1.590  0.00  0.00    +0.110 A 
ATOM     10  C   UNL     1       3.678   1.315  -1.696  0.00  0.00    +0.052 A 
BRANCH   9  11
ATOM     11  S   UNL     1       2.765   3.348  -0.123  0.00  0.00    +0.073 S 
ATOM     12  O   UNL     1       2.237   4.616  -0.490  0.00  0.00    -0.150 OA
ATOM     13  O   UNL     1       4.038   3.202   0.489  0.00  0.00    -0.150 OA
BRANCH  11  14
ATOM     14  N   UNL     1       1.664   2.656   0.902  0.00  0.00    -0.205 N 
ATOM     15  C   UNL     1       1.893   1.403   1.408  0.00  0.00    +0.088 C 
ATOM     16  C   UNL     1       2.904  -0.607   1.832  0.00  0.00    +0.114 C 
ATOM     17  C   UNL     1       1.438  -0.795   2.285  0.00  0.00    +0.028 C 
ATOM     18  C   UNL     1       0.961   0.678   2.354  0.00  0.00    +0.072 C 
ATOM     19  H   UNL     1       0.855   3.135   1.141  0.00  0.00    +0.175 HD
ATOM     20  N   UNL     1       2.945   0.695   1.134  0.00  0.00    -0.375 N 
ATOM     21  H   UNL     1       3.705   1.000   0.514  0.00  0.00    +0.161 HD
ENDBRANCH  11  14
ENDBRANCH   9  11
ENDBRANCH   3   5
BRANCH   1  22
ATOM     22  C   UNL     1       5.984  -2.075  -4.298  0.00  0.00    +0.162 C 
BRANCH  22  23
ATOM     23  N   UNL     1       6.436  -2.196  -5.686  0.00  0.00    -0.299 N 
ATOM     24  C   UNL     1       6.771  -3.404  -6.182  0.00  0.00    +0.251 C 
ATOM     25  O   UNL     1       6.698  -4.393  -5.477  0.00  0.00    -0.270 OA
ATOM     26  H   UNL     1       6.494  -1.408  -6.248  0.00  0.00    +0.150 HD
BRANCH  24  27
ATOM     27  C   UNL     1       7.224  -3.526  -7.571  0.00  0.00    +0.074 A 
ATOM     28  C   UNL     1       7.612  -4.660  -8.267  0.00  0.00    +0.021 A 
ATOM     29  C   UNL     1       7.995  -4.491  -9.574  0.00  0.00    +0.008 A 
ATOM     30  C   UNL     1       7.977  -3.244 -10.115  0.00  0.00    +0.046 A 
ATOM     31  S   UNL     1       7.413  -2.254  -8.808  0.00  0.00    -0.092 S 
ENDBRANCH  24  27
ENDBRANCH  22  23
BRANCH  22  33
ATOM     32  C   UNL     1       8.073  -3.200  -3.518  0.00  0.00    +0.009 C 
ATOM     33  C   UNL     1       7.197  -1.953  -3.375  0.00  0.00    +0.012 C 
ATOM     34  C   UNL     1       8.008  -0.713  -3.758  0.00  0.00    +0.009 C 
ENDBRANCH  22  33
ENDBRANCH   1  22
TORSDOF 7
