REMARK  Name = ZINC27241370
REMARK  13 active torsions:
REMARK  status: ('A' for Active; 'I' for Inactive)
REMARK    1  A    between atoms: C_1  and  C_2
REMARK    2  A    between atoms: C_2  and  O_3
REMARK    3  A    between atoms: O_3  and  C_4
REMARK    4  A    between atoms: C_7  and  C_13
REMARK    5  A    between atoms: C_9  and  O_10
REMARK    6  A    between atoms: O_10  and  C_11
REMARK    7  A    between atoms: C_11  and  C_12
REMARK    8  A    between atoms: N_18  and  C_32
REMARK    9  A    between atoms: C_22  and  C_30
REMARK   10  A    between atoms: C_23  and  N_29
REMARK   11  A    between atoms: C_24  and  C_25
REMARK   12  A    between atoms: C_24  and  C_27
REMARK   13  A    between atoms: C_32  and  C_33
REMARK                            x       y       z     vdW  Elec       q    Type
REMARK                         _______ _______ _______ _____ _____    ______ ____
ROOT
ATOM      1  C   UNL     1       1.583   8.091  -3.273  0.00  0.00    +0.068 C 
ATOM      2  C   UNL     1       0.238   7.631  -2.710  0.00  0.00    +0.044 C 
ATOM      3  C   UNL     1       0.378   7.000  -1.344  0.00  0.00    +0.094 C 
ATOM      4  N   UNL     1       0.345   5.536  -1.407  0.00  0.00    -0.294 NA
ATOM      5  C   UNL     1      -0.926   5.081  -1.999  0.00  0.00    +0.112 C 
ATOM      6  C   UNL     1      -0.973   5.585  -3.421  0.00  0.00    -0.006 C 
ATOM      7  C   UNL     1      -0.414   6.740  -3.729  0.00  0.00    -0.026 C 
ATOM      8  C   UNL     1      -0.407   7.208  -5.138  0.00  0.00    +0.074 C 
ATOM      9  C   UNL     1       0.425   8.220  -5.494  0.00  0.00    +0.054 C 
ATOM     10  C   UNL     1       1.334   8.923  -4.532  0.00  0.00    +0.188 C 
ENDROOT
BRANCH   1  14
ATOM     11  C   UNL     1       3.628  10.468  -0.365  0.00  0.00    +0.162 A 
ATOM     12  C   UNL     1       4.316   9.504  -1.084  0.00  0.00    +0.050 A 
ATOM     13  C   UNL     1       3.652   8.738  -2.024  0.00  0.00    +0.008 A 
ATOM     14  C   UNL     1       2.302   8.930  -2.248  0.00  0.00    -0.037 A 
ATOM     15  C   UNL     1       1.610   9.894  -1.538  0.00  0.00    +0.053 A 
ATOM     16  C   UNL     1       2.269  10.662  -0.592  0.00  0.00    +0.162 A 
BRANCH  11  17
ATOM     17  O   UNL     1       4.279  11.223   0.560  0.00  0.00    -0.489 OA
BRANCH  17  19
ATOM     18  C   UNL     1       6.230  11.907   1.812  0.00  0.00    +0.048 C 
ATOM     19  C   UNL     1       5.674  10.969   0.739  0.00  0.00    +0.226 C 
ENDBRANCH  17  19
ENDBRANCH  11  17
BRANCH  16  20
ATOM     20  O   UNL     1       1.589  11.607   0.111  0.00  0.00    -0.489 OA
BRANCH  20  21
ATOM     21  C   UNL     1       0.196  11.751  -0.174  0.00  0.00    +0.226 C 
ATOM     22  C   UNL     1      -0.394  12.854   0.708  0.00  0.00    +0.048 C 
ENDBRANCH  20  21
ENDBRANCH  16  20
ENDBRANCH   1  14
BRANCH   9  23
ATOM     23  N   UNL     1       0.434   8.620  -6.801  0.00  0.00    -0.358 N 
ATOM     24  H   UNL     1       1.096   9.437  -7.122  0.00  0.00    +0.142 HD
ATOM     25  H   UNL     1      -0.222   8.124  -7.532  0.00  0.00    +0.142 HD
ENDBRANCH   9  23
BRANCH  10  26
ATOM     26  C   UNL     1       2.622   9.187  -5.195  0.00  0.00    +0.091 C 
ATOM     27  N   UNL     1       3.616   9.390  -5.707  0.00  0.00    -0.194 NA
ENDBRANCH  10  26
BRANCH  10  28
ATOM     28  C   UNL     1       0.725  10.206  -4.146  0.00  0.00    +0.091 C 
ATOM     29  N   UNL     1       0.254  11.196  -3.848  0.00  0.00    -0.194 NA
ENDBRANCH  10  28
BRANCH   8  30
ATOM     30  C   UNL     1      -1.266   6.600  -6.108  0.00  0.00    +0.101 C 
ATOM     31  N   UNL     1      -1.948   6.118  -6.878  0.00  0.00    -0.191 NA
ENDBRANCH   8  30
BRANCH   4  32
ATOM     32  C   UNL     1       0.547   4.947  -0.077  0.00  0.00    +0.120 C 
BRANCH  32  33
ATOM     33  C   UNL     1       0.727   3.457  -0.209  0.00  0.00    -0.033 A 
ATOM     34  C   UNL     1       1.991   2.926  -0.382  0.00  0.00    +0.005 A 
ATOM     35  C   UNL     1       2.156   1.559  -0.503  0.00  0.00    +0.000 A 
ATOM     36  C   UNL     1       1.056   0.723  -0.452  0.00  0.00    +0.000 A 
ATOM     37  C   UNL     1      -0.209   1.254  -0.285  0.00  0.00    +0.000 A 
ATOM     38  C   UNL     1      -0.373   2.621  -0.158  0.00  0.00    +0.005 A 
ENDBRANCH  32  33
ENDBRANCH   4  32
TORSDOF 11
