REMARK  Name = ZINC35485706
REMARK  12 active torsions:
REMARK  status: ('A' for Active; 'I' for Inactive)
REMARK    1  A    between atoms: C_1  and  C_2
REMARK    2  A    between atoms: C_2  and  C_3
REMARK    3  A    between atoms: C_3  and  C_4
REMARK    4  A    between atoms: C_4  and  C_5
REMARK    5  A    between atoms: C_5  and  C_6
REMARK    6  A    between atoms: C_6  and  O_7
REMARK    7  A    between atoms: O_7  and  C_8
REMARK    8  A    between atoms: C_11  and  C_16
REMARK    9  A    between atoms: C_13  and  O_14
REMARK   10  A    between atoms: O_14  and  C_15
REMARK   11  A    between atoms: C_23  and  C_38
REMARK   12  A    between atoms: C_35  and  C_37
REMARK                            x       y       z     vdW  Elec       q    Type
REMARK                         _______ _______ _______ _____ _____    ______ ____
ROOT
ATOM      1  C   UNL     1      -4.826 -10.216  -0.006  0.00  0.00    +0.152 C 
ATOM      2  C   UNL     1      -4.611 -10.765   1.366  0.00  0.00    +0.072 A 
ATOM      3  C   UNL     1      -5.311 -10.511   2.629  0.00  0.00    +0.199 A 
ATOM      4  O   UNL     1      -6.353  -9.883   2.700  0.00  0.00    -0.287 OA
ATOM      5  C   UNL     1      -4.630 -11.091   3.814  0.00  0.00    +0.065 A 
ATOM      6  C   UNL     1      -5.058 -10.771   5.102  0.00  0.00    +0.018 A 
ATOM      7  C   UNL     1      -4.416 -11.309   6.183  0.00  0.00    -0.050 A 
ATOM      8  C   UNL     1      -3.343 -12.170   6.001  0.00  0.00    +0.007 A 
ATOM      9  C   UNL     1      -2.909 -12.498   4.736  0.00  0.00    +0.047 A 
ATOM     10  C   UNL     1      -3.548 -11.964   3.617  0.00  0.00    +0.139 A 
ATOM     11  O   UNL     1      -3.110 -12.308   2.384  0.00  0.00    -0.450 OA
ATOM     12  C   UNL     1      -3.558 -11.633   1.307  0.00  0.00    +0.199 A 
ATOM     13  C   UNL     1      -3.064 -11.666  -0.080  0.00  0.00    +0.289 C 
ATOM     14  O   UNL     1      -2.129 -12.338  -0.470  0.00  0.00    -0.266 OA
ATOM     15  N   UNL     1      -3.800 -10.842  -0.856  0.00  0.00    -0.230 N 
ATOM     16  C   UNL     1      -3.622 -10.623  -2.216  0.00  0.00    +0.191 A 
ATOM     17  N   UNL     1      -4.288  -9.835  -3.048  0.00  0.00    -0.125 NA
ATOM     18  N   UNL     1      -3.990  -9.754  -4.270  0.00  0.00    -0.145 NA
ATOM     19  C   UNL     1      -3.000 -10.446  -4.799  0.00  0.00    +0.101 A 
ATOM     20  S   UNL     1      -2.421 -11.319  -3.347  0.00  0.00    -0.035 S 
ATOM     21  C   UNL     1      -2.496 -10.486  -6.218  0.00  0.00    +0.075 C 
ATOM     22  C   UNL     1      -4.876 -10.966   7.576  0.00  0.00    +0.044 C 
ENDROOT
BRANCH   1  26
ATOM     23  C   UNL     1      -4.328  -5.968   0.011  0.00  0.00    +0.162 A 
ATOM     24  C   UNL     1      -3.219  -6.798   0.002  0.00  0.00    +0.050 A 
ATOM     25  C   UNL     1      -3.383  -8.171  -0.003  0.00  0.00    +0.009 A 
ATOM     26  C   UNL     1      -4.652  -8.719   0.000  0.00  0.00    -0.018 A 
ATOM     27  C   UNL     1      -5.763  -7.896   0.009  0.00  0.00    +0.055 A 
ATOM     28  C   UNL     1      -5.606  -6.519   0.021  0.00  0.00    +0.162 A 
BRANCH  28  29
ATOM     29  O   UNL     1      -6.697  -5.708   0.035  0.00  0.00    -0.491 OA
ATOM     30  C   UNL     1      -7.977  -6.343   0.044  0.00  0.00    +0.277 C 
ENDBRANCH  28  29
BRANCH  23  31
ATOM     31  O   UNL     1      -4.168  -4.617   0.017  0.00  0.00    -0.488 OA
BRANCH  31  32
ATOM     32  C   UNL     1      -2.827  -4.123   0.007  0.00  0.00    +0.229 C 
BRANCH  32  33
ATOM     33  C   UNL     1      -2.848  -2.593   0.015  0.00  0.00    +0.041 C 
BRANCH  33  34
ATOM     34  C   UNL     1      -1.413  -2.063   0.004  0.00  0.00    +0.003 C 
BRANCH  34  35
ATOM     35  C   UNL     1      -1.433  -0.534   0.013  0.00  0.00    -0.000 C 
BRANCH  35  37
ATOM     36  C   UNL     1      -0.019   1.526   0.010  0.00  0.00    +0.004 C 
ATOM     37  C   UNL     1       0.002  -0.004   0.002  0.00  0.00    -0.003 C 
ENDBRANCH  35  37
ENDBRANCH  34  35
ENDBRANCH  33  34
ENDBRANCH  32  33
ENDBRANCH  31  32
ENDBRANCH  23  31
ENDBRANCH   1  26
TORSDOF 8
