REMARK  Name = ZINC13174293
REMARK  8 active torsions:
REMARK  status: ('A' for Active; 'I' for Inactive)
REMARK    1  A    between atoms: C_1  and  O_2
REMARK    2  A    between atoms: O_2  and  C_3
REMARK    3  A    between atoms: C_6  and  N_9
REMARK    4  A    between atoms: C_10  and  C_12
REMARK    5  A    between atoms: C_12  and  S_13
REMARK    6  A    between atoms: S_13  and  C_14
REMARK    7  A    between atoms: C_15  and  C_33
REMARK    8  A    between atoms: C_16  and  C_26
REMARK                            x       y       z     vdW  Elec       q    Type
REMARK                         _______ _______ _______ _____ _____    ______ ____
ROOT
ATOM      1  C   UNL     1       4.293  -6.872  -6.560  0.00  0.00    +0.080 C 
ATOM      2  C   UNL     1       4.494  -8.210  -6.695  0.00  0.00    +0.069 C 
ATOM      3  C   UNL     1       5.284  -8.762  -7.845  0.00  0.00    +0.097 C 
ATOM      4  C   UNL     1       5.404  -7.752  -8.958  0.00  0.00    +0.024 C 
ATOM      5  C   UNL     1       5.165  -6.442  -8.736  0.00  0.00    +0.016 C 
ATOM      6  N   UNL     1       4.803  -6.000  -7.494  0.00  0.00    -0.311 N 
ATOM      7  C   UNL     1       5.279  -5.430  -9.850  0.00  0.00    +0.051 C 
ATOM      8  C   UNL     1       6.338  -5.889 -10.854  0.00  0.00    +0.014 C 
ATOM      9  C   UNL     1       5.935  -7.266 -11.390  0.00  0.00    +0.080 C 
ATOM     10  C   UNL     1       5.774  -8.214 -10.233  0.00  0.00    +0.162 C 
ATOM     11  O   UNL     1       5.968  -9.401 -10.404  0.00  0.00    -0.292 OA
ATOM     12  H   UNL     1       4.912  -5.063  -7.268  0.00  0.00    +0.152 HD
ENDROOT
BRANCH   3  13
ATOM     13  C   UNL     1       6.663  -9.132  -7.365  0.00  0.00    -0.035 A 
ATOM     14  C   UNL     1       7.486  -8.167  -6.815  0.00  0.00    +0.006 A 
ATOM     15  C   UNL     1       8.751  -8.506  -6.374  0.00  0.00    +0.020 A 
ATOM     16  C   UNL     1       9.194  -9.812  -6.483  0.00  0.00    +0.041 A 
ATOM     17  C   UNL     1       8.371 -10.778  -7.034  0.00  0.00    +0.020 A 
ATOM     18  C   UNL     1       7.103 -10.439  -7.469  0.00  0.00    +0.006 A 
ATOM     19 CL   UNL     1      10.784 -10.239  -5.930  0.00  0.00    -0.084 Cl
ENDBRANCH   3  13
BRANCH   2  20
ATOM     20  C   UNL     1       3.944  -9.107  -5.724  0.00  0.00    +0.098 C 
ATOM     21  N   UNL     1       3.507  -9.818  -4.953  0.00  0.00    -0.191 NA
ENDBRANCH   2  20
BRANCH   1  22
ATOM     22  S   UNL     1       3.370  -6.255  -5.192  0.00  0.00    -0.100 S 
BRANCH  22  23
ATOM     23  C   UNL     1       3.363  -4.458  -5.442  0.00  0.00    +0.171 C 
BRANCH  23  25
ATOM     24  N   UNL     1       2.458  -2.458  -4.302  0.00  0.00    -0.285 N 
ATOM     25  C   UNL     1       2.596  -3.798  -4.325  0.00  0.00    +0.227 C 
ATOM     26  O   UNL     1       2.102  -4.474  -3.447  0.00  0.00    -0.275 OA
ATOM     27  H   UNL     1       2.786  -1.924  -5.042  0.00  0.00    +0.155 HD
BRANCH  24  31
ATOM     28  C   UNL     1       0.623  -0.606  -1.048  0.00  0.00    +0.120 A 
ATOM     29  C   UNL     1       1.376  -1.755  -0.857  0.00  0.00    +0.047 A 
ATOM     30  C   UNL     1       1.984  -2.369  -1.935  0.00  0.00    +0.027 A 
ATOM     31  C   UNL     1       1.841  -1.835  -3.208  0.00  0.00    +0.034 A 
ATOM     32  C   UNL     1       1.087  -0.685  -3.398  0.00  0.00    +0.027 A 
ATOM     33  C   UNL     1       0.475  -0.075  -2.321  0.00  0.00    +0.047 A 
BRANCH  28  35
ATOM     34  C   UNL     1       0.219  -0.601   1.296  0.00  0.00    +0.277 C 
ATOM     35  O   UNL     1       0.025  -0.001   0.013  0.00  0.00    -0.495 OA
ENDBRANCH  28  35
ENDBRANCH  24  31
ENDBRANCH  23  25
ENDBRANCH  22  23
ENDBRANCH   1  22
TORSDOF 7
