REMARK  Name = ZINC09241473
REMARK  12 active torsions:
REMARK  status: ('A' for Active; 'I' for Inactive)
REMARK    1  A    between atoms: C_1  and  C_2
REMARK    2  A    between atoms: C_2  and  C_3
REMARK    3  A    between atoms: C_3  and  N_4
REMARK    4  A    between atoms: N_4  and  C_5
REMARK    5  A    between atoms: N_4  and  S_8
REMARK    6  A    between atoms: C_5  and  C_6
REMARK    7  A    between atoms: C_6  and  C_7
REMARK    8  A    between atoms: S_8  and  C_11
REMARK    9  A    between atoms: C_14  and  C_17
REMARK   10  A    between atoms: N_19  and  C_20
REMARK   11  A    between atoms: C_20  and  C_21
REMARK   12  A    between atoms: C_32  and  C_36
REMARK                            x       y       z     vdW  Elec       q    Type
REMARK                         _______ _______ _______ _____ _____    ______ ____
ROOT
ATOM      1  C   UNL     1       3.657   1.594  -2.100  0.00  0.00    +0.253 C 
ATOM      2  O   UNL     1       3.216   1.682  -3.229  0.00  0.00    -0.270 OA
ATOM      3  N   UNL     1       3.602   0.418  -1.444  0.00  0.00    -0.242 N 
ATOM      4  C   UNL     1       3.162  -0.720  -2.099  0.00  0.00    +0.169 A 
ATOM      5  N   UNL     1       3.038  -1.941  -1.635  0.00  0.00    -0.224 NA
ATOM      6  C   UNL     1       2.591  -2.965  -2.394  0.00  0.00    +0.080 A 
ATOM      7  C   UNL     1       2.413  -4.317  -2.020  0.00  0.00    +0.029 A 
ATOM      8  C   UNL     1       1.946  -5.237  -2.921  0.00  0.00    +0.005 A 
ATOM      9  C   UNL     1       1.632  -4.880  -4.225  0.00  0.00    -0.049 A 
ATOM     10  C   UNL     1       1.794  -3.567  -4.625  0.00  0.00    +0.020 A 
ATOM     11  C   UNL     1       2.262  -2.638  -3.729  0.00  0.00    +0.041 A 
ATOM     12  S   UNL     1       2.610  -0.897  -3.789  0.00  0.00    -0.052 S 
ATOM     13  C   UNL     1       1.119  -5.914  -5.194  0.00  0.00    +0.044 C 
ENDROOT
BRANCH   1  17
ATOM     14  C   UNL     1       5.373   4.994  -0.220  0.00  0.00    +0.106 A 
ATOM     15  C   UNL     1       5.715   4.683  -1.524  0.00  0.00    +0.029 A 
ATOM     16  C   UNL     1       5.161   3.579  -2.141  0.00  0.00    +0.015 A 
ATOM     17  C   UNL     1       4.254   2.777  -1.446  0.00  0.00    +0.037 A 
ATOM     18  C   UNL     1       3.910   3.101  -0.132  0.00  0.00    +0.015 A 
ATOM     19  C   UNL     1       4.475   4.203   0.474  0.00  0.00    +0.029 A 
BRANCH  14  20
ATOM     20  S   UNL     1       6.085   6.405   0.560  0.00  0.00    +0.061 S 
ATOM     21  O   UNL     1       6.022   6.170   1.960  0.00  0.00    -0.153 OA
ATOM     22  O   UNL     1       7.309   6.667  -0.114  0.00  0.00    -0.153 OA
BRANCH  20  23
ATOM     23  N   UNL     1       5.090   7.691   0.250  0.00  0.00    -0.177 NA
BRANCH  23  24
ATOM     24  C   UNL     1       3.994   8.007   1.169  0.00  0.00    +0.109 C 
BRANCH  24  26
ATOM     25  C   UNL     1       3.310   9.402   3.126  0.00  0.00    +0.005 C 
ATOM     26  C   UNL     1       4.455   9.072   2.166  0.00  0.00    +0.014 C 
ENDBRANCH  24  26
ENDBRANCH  23  24
BRANCH  23  27
ATOM     27  C   UNL     1       5.304   8.513  -0.944  0.00  0.00    +0.109 C 
BRANCH  27  28
ATOM     28  C   UNL     1       4.405   8.013  -2.076  0.00  0.00    +0.014 C 
ATOM     29  C   UNL     1       4.630   8.871  -3.322  0.00  0.00    +0.005 C 
ENDBRANCH  27  28
ENDBRANCH  23  27
ENDBRANCH  20  23
ENDBRANCH  14  20
ENDBRANCH   1  17
BRANCH   3  30
ATOM     30  C   UNL     1       4.006   0.343  -0.038  0.00  0.00    +0.152 C 
BRANCH  30  31
ATOM     31  C   UNL     1       2.990  -0.456   0.736  0.00  0.00    -0.012 A 
ATOM     32  C   UNL     1       3.201  -1.803   0.988  0.00  0.00    +0.008 A 
ATOM     33  C   UNL     1       2.236  -2.500   1.700  0.00  0.00    +0.020 A 
ATOM     34  C   UNL     1       1.110  -1.831   2.140  0.00  0.00    +0.111 A 
ATOM     35  N   UNL     1       0.943  -0.549   1.882  0.00  0.00    -0.263 NA
ATOM     36  C   UNL     1       1.836   0.144   1.203  0.00  0.00    +0.116 A 
ENDBRANCH  30  31
ENDBRANCH   3  30
TORSDOF 9
