REMARK  Name = ZINC12042758
REMARK  11 active torsions:
REMARK  status: ('A' for Active; 'I' for Inactive)
REMARK    1  A    between atoms: C_1  and  C_2
REMARK    2  A    between atoms: C_2  and  O_3
REMARK    3  A    between atoms: O_3  and  C_4
REMARK    4  A    between atoms: C_7  and  C_10
REMARK    5  A    between atoms: C_10  and  C_12
REMARK    6  A    between atoms: C_10  and  N_27
REMARK    7  A    between atoms: C_13  and  C_26
REMARK    8  A    between atoms: C_14  and  C_25
REMARK    9  A    between atoms: C_16  and  N_17
REMARK   10  A    between atoms: C_18  and  C_20
REMARK   11  A    between atoms: N_27  and  C_28
REMARK                            x       y       z     vdW  Elec       q    Type
REMARK                         _______ _______ _______ _____ _____    ______ ____
ROOT
ATOM      1  C   UNL     1      -1.304  -0.813  -0.059  0.00  0.00    +0.135 C 
ENDROOT
BRANCH   1   2
ATOM      2  C   UNL     1      -1.753  -1.447   1.232  0.00  0.00    +0.009 A 
ATOM      3  C   UNL     1      -2.713  -0.838   2.019  0.00  0.00    -0.033 A 
ATOM      4  C   UNL     1      -3.095  -1.435   3.173  0.00  0.00    -0.008 A 
ATOM      5  S   UNL     1      -2.085  -2.907   3.183  0.00  0.00    -0.078 S 
ATOM      6  C   UNL     1      -1.224  -2.633   1.643  0.00  0.00    +0.078 A 
ATOM      7  C   UNL     1      -4.109  -0.975   4.189  0.00  0.00    +0.052 C 
ATOM      8  C   UNL     1      -3.328   0.472   1.597  0.00  0.00    +0.045 C 
BRANCH   6   9
ATOM      9  N   UNL     1      -0.258  -3.428   1.022  0.00  0.00    -0.273 N 
ATOM     10  C   UNL     1       0.203  -4.534   1.639  0.00  0.00    +0.284 C 
ATOM     11  O   UNL     1      -0.288  -4.892   2.694  0.00  0.00    -0.266 OA
ATOM     12  H   UNL     1       0.082  -3.184   0.147  0.00  0.00    +0.156 HD
BRANCH  10  13
ATOM     13  C   UNL     1       1.295  -5.307   1.039  0.00  0.00    +0.189 A 
ATOM     14  C   UNL     1       1.788  -6.493   1.503  0.00  0.00    +0.054 A 
ATOM     15  C   UNL     1       2.819  -6.871   0.628  0.00  0.00    +0.042 A 
ATOM     16  C   UNL     1       2.909  -5.912  -0.318  0.00  0.00    +0.196 A 
ATOM     17  O   UNL     1       1.986  -4.974  -0.071  0.00  0.00    -0.458 OA
ENDBRANCH  10  13
ENDBRANCH   6   9
ENDBRANCH   1   2
BRANCH   1  21
ATOM     18  C   UNL     1       2.483   1.078   0.523  0.00  0.00    +0.121 A 
ATOM     19  C   UNL     1       1.316   1.824   0.599  0.00  0.00    +0.046 A 
ATOM     20  C   UNL     1       0.093   1.210   0.410  0.00  0.00    +0.009 A 
ATOM     21  C   UNL     1       0.032  -0.146   0.146  0.00  0.00    -0.023 A 
ATOM     22  C   UNL     1       1.194  -0.891   0.071  0.00  0.00    +0.009 A 
ATOM     23  C   UNL     1       2.420  -0.282   0.259  0.00  0.00    +0.046 A 
BRANCH  18  24
ATOM     24  O   UNL     1       3.688   1.680   0.708  0.00  0.00    -0.492 OA
BRANCH  24  26
ATOM     25  C   UNL     1       5.114   3.579   1.154  0.00  0.00    +0.048 C 
ATOM     26  C   UNL     1       3.678   3.083   0.976  0.00  0.00    +0.225 C 
ENDBRANCH  24  26
ENDBRANCH  18  24
ENDBRANCH   1  21
BRANCH   1  27
ATOM     27  N   UNL     1      -1.181  -1.844  -1.093  0.00  0.00    -0.320 N 
ATOM     28  H   UNL     1      -0.306  -2.187  -1.334  0.00  0.00    +0.148 HD
BRANCH  27  29
ATOM     29  C   UNL     1      -2.318  -2.332  -1.727  0.00  0.00    +0.097 A 
ATOM     30  C   UNL     1      -3.562  -1.786  -1.427  0.00  0.00    +0.041 A 
ATOM     31  C   UNL     1      -4.684  -2.276  -2.070  0.00  0.00    +0.005 A 
ATOM     32  C   UNL     1      -4.525  -3.307  -2.986  0.00  0.00    +0.018 A 
ATOM     33  C   UNL     1      -3.262  -3.806  -3.231  0.00  0.00    +0.084 A 
ATOM     34  N   UNL     1      -2.136  -3.345  -2.623  0.00  0.00    -0.350 N 
ATOM     35  H   UNL     1      -1.208  -3.734  -2.825  0.00  0.00    +0.166 HD
ENDBRANCH  27  29
ENDBRANCH   1  27
TORSDOF 8
