REMARK  Name = ZINC50441433
REMARK  5 active torsions:
REMARK  status: ('A' for Active; 'I' for Inactive)
REMARK    1  A    between atoms: C_3  and  O_10
REMARK    2  A    between atoms: C_4  and  C_8
REMARK    3  A    between atoms: C_8  and  N_9
REMARK    4  A    between atoms: O_10  and  C_11
REMARK    5  A    between atoms: C_14  and  N_18
REMARK                            x       y       z     vdW  Elec       q    Type
REMARK                         _______ _______ _______ _____ _____    ______ ____
ROOT
ATOM      1  C   UNL     1      -0.017   1.378   0.010  0.00  0.00    +0.005 A 
ATOM      2  C   UNL     1       1.169   2.087   0.002  0.00  0.00    +0.046 A 
ATOM      3  C   UNL     1       2.381   1.410  -0.013  0.00  0.00    +0.131 A 
ATOM      4  C   UNL     1       2.398   0.023  -0.021  0.00  0.00    -0.004 A 
ATOM      5  C   UNL     1       1.209  -0.682  -0.013  0.00  0.00    +0.046 A 
ATOM      6  C   UNL     1       0.002  -0.004   0.002  0.00  0.00    +0.020 A 
ATOM      7 CL   UNL     1       1.229  -2.418  -0.023  0.00  0.00    -0.083 Cl
ENDROOT
BRANCH   4   8
ATOM      8  C   UNL     1       3.712  -0.715  -0.038  0.00  0.00    -0.045 C 
BRANCH   8   9
ATOM      9  N   UNL     1       4.152  -0.963   1.342  0.00  0.00    +0.381 N 
ATOM     10  H   UNL     1       4.267  -0.082   1.821  0.00  0.00    -0.090 HD
ATOM     11  H   UNL     1       3.461  -1.519   1.821  0.00  0.00    -0.090 HD
ATOM     12  H   UNL     1       5.032  -1.456   1.331  0.00  0.00    -0.090 HD
ENDBRANCH   8   9
ENDBRANCH   4   8
BRANCH   3  13
ATOM     13  O   UNL     1       3.548   2.105  -0.021  0.00  0.00    -0.454 OA
BRANCH  13  14
ATOM     14  C   UNL     1       3.483   3.463  -0.013  0.00  0.00    +0.156 A 
ATOM     15  C   UNL     1       3.432   4.163  -1.211  0.00  0.00    +0.063 A 
ATOM     16  C   UNL     1       3.365   5.544  -1.200  0.00  0.00    +0.051 A 
ATOM     17  C   UNL     1       3.349   6.227   0.002  0.00  0.00    +0.129 A 
ATOM     18  C   UNL     1       3.400   5.532   1.196  0.00  0.00    +0.051 A 
ATOM     19  C   UNL     1       3.461   4.151   1.192  0.00  0.00    +0.063 A 
ATOM     20 BR   UNL     1       3.522   3.201   2.825  0.00  0.00    -0.046 Br
ATOM     21 BR   UNL     1       3.454   3.229  -2.855  0.00  0.00    -0.046 Br
BRANCH  17  22
ATOM     22  N   UNL     1       3.278   7.706   0.010  0.00  0.00    +0.056 N 
ATOM     23  O   UNL     1       3.234   8.314  -1.034  0.00  0.00    -0.126 OA
ATOM     24  O   UNL     1       3.264   8.304   1.060  0.00  0.00    -0.126 OA
ENDBRANCH  17  22
ENDBRANCH  13  14
ENDBRANCH   3  13
TORSDOF 5
