REMARK  Name = ZINC08778471
REMARK  8 active torsions:
REMARK  status: ('A' for Active; 'I' for Inactive)
REMARK    1  A    between atoms: C_1  and  C_2
REMARK    2  A    between atoms: C_2  and  N_3
REMARK    3  A    between atoms: C_7  and  S_29
REMARK    4  A    between atoms: C_11  and  S_12
REMARK    5  A    between atoms: S_12  and  C_13
REMARK    6  A    between atoms: C_13  and  C_14
REMARK    7  A    between atoms: N_16  and  N_17
REMARK    8  A    between atoms: S_29  and  N_32
REMARK                            x       y       z     vdW  Elec       q    Type
REMARK                         _______ _______ _______ _____ _____    ______ ____
ROOT
ATOM      1  S   UNL     1      -2.765   4.072  -7.437  0.00  0.00    -0.078 S 
ENDROOT
BRANCH   1  10
ATOM      2  N   UNL     1      -1.752   4.881  -4.976  0.00  0.00    -0.319 N 
ATOM      3  C   UNL     1      -1.576   4.359  -3.705  0.00  0.00    +0.070 A 
ATOM      4  C   UNL     1      -1.048   4.860  -2.525  0.00  0.00    +0.030 A 
ATOM      5  C   UNL     1      -1.020   4.069  -1.395  0.00  0.00    +0.030 A 
ATOM      6  C   UNL     1      -1.507   2.771  -1.433  0.00  0.00    +0.107 A 
ATOM      7  C   UNL     1      -2.035   2.257  -2.597  0.00  0.00    +0.058 A 
ATOM      8  C   UNL     1      -2.076   3.047  -3.748  0.00  0.00    +0.092 A 
ATOM      9  N   UNL     1      -2.523   2.831  -5.013  0.00  0.00    -0.222 NA
ATOM     10  C   UNL     1      -2.334   3.907  -5.737  0.00  0.00    +0.170 A 
BRANCH   6  11
ATOM     11  S   UNL     1      -1.456   1.774   0.019  0.00  0.00    +0.056 S 
ATOM     12  O   UNL     1      -2.472   0.792  -0.128  0.00  0.00    -0.153 OA
ATOM     13  O   UNL     1      -1.413   2.667   1.123  0.00  0.00    -0.153 OA
BRANCH  11  14
ATOM     14  N   UNL     1      -0.011   0.966   0.007  0.00  0.00    -0.204 NA
ATOM     15  H   UNL     1       0.002  -0.004   0.002  0.00  0.00    +0.144 HD
ATOM     16  H   UNL     1       0.822   1.462   0.002  0.00  0.00    +0.144 HD
ENDBRANCH  11  14
ENDBRANCH   6  11
BRANCH   2  18
ATOM     17  C   UNL     1      -2.559   7.179  -5.198  0.00  0.00    +0.027 C 
ATOM     18  C   UNL     1      -1.382   6.227  -5.421  0.00  0.00    +0.121 C 
ENDBRANCH   2  18
ENDBRANCH   1  10
BRANCH   1  19
ATOM     19  C   UNL     1      -3.463   2.431  -7.746  0.00  0.00    +0.174 C 
BRANCH  19  20
ATOM     20  C   UNL     1      -3.913   2.338  -9.181  0.00  0.00    +0.240 C 
ATOM     21  O   UNL     1      -3.776   3.288  -9.922  0.00  0.00    -0.273 OA
ATOM     22  N   UNL     1      -4.469   1.200  -9.640  0.00  0.00    -0.223 N 
ATOM     23  H   UNL     1      -4.579   0.440  -9.047  0.00  0.00    +0.174 HD
BRANCH  22  24
ATOM     24  N   UNL     1      -4.888   1.113 -10.975  0.00  0.00    -0.137 N 
ATOM     25  C   UNL     1      -4.227   0.433 -11.934  0.00  0.00    +0.263 C 
ATOM     26  O   UNL     1      -3.198  -0.196 -11.811  0.00  0.00    -0.271 OA
ATOM     27  C   UNL     1      -5.040   0.620 -13.194  0.00  0.00    +0.114 C 
ATOM     28  C   UNL     1      -5.538  -0.726 -13.710  0.00  0.00    +0.035 C 
ATOM     29  C   UNL     1      -6.382  -0.513 -14.969  0.00  0.00    +0.003 C 
ATOM     30  C   UNL     1      -5.534   0.180 -16.038  0.00  0.00    +0.000 C 
ATOM     31  C   UNL     1      -5.063   1.539 -15.516  0.00  0.00    +0.003 C 
ATOM     32  C   UNL     1      -4.214   1.334 -14.258  0.00  0.00    +0.035 C 
ATOM     33  N   UNL     1      -6.168   1.458 -12.770  0.00  0.00    -0.284 N 
ATOM     34  C   UNL     1      -5.996   1.691 -11.454  0.00  0.00    +0.326 C 
ATOM     35  O   UNL     1      -6.760   2.353 -10.779  0.00  0.00    -0.251 OA
ATOM     36  H   UNL     1      -6.896   1.778 -13.325  0.00  0.00    +0.151 HD
ENDBRANCH  22  24
ENDBRANCH  19  20
ENDBRANCH   1  19
TORSDOF 7
