REMARK  Name = ZINC63272279
REMARK  6 active torsions:
REMARK  status: ('A' for Active; 'I' for Inactive)
REMARK    1  A    between atoms: C_6  and  C_11
REMARK    2  A    between atoms: C_11  and  C_12
REMARK    3  A    between atoms: C_12  and  N_13
REMARK    4  A    between atoms: C_14  and  C_16
REMARK    5  A    between atoms: N_18  and  C_19
REMARK    6  A    between atoms: C_21  and  C_29
REMARK                            x       y       z     vdW  Elec       q    Type
REMARK                         _______ _______ _______ _____ _____    ______ ____
ROOT
ATOM      1  N   UNL     1       5.000  -3.595  -1.503  0.00  0.00    -0.307 N 
ATOM      2  C   UNL     1       5.312  -4.189  -2.672  0.00  0.00    +0.299 C 
ATOM      3  O   UNL     1       5.184  -3.581  -3.715  0.00  0.00    -0.265 OA
ATOM      4  H   UNL     1       5.102  -4.081  -0.670  0.00  0.00    +0.149 HD
ENDROOT
BRANCH   2   5
ATOM      5  C   UNL     1       5.814  -5.596  -2.685  0.00  0.00    +0.300 C 
ATOM      6  O   UNL     1       5.942  -6.204  -1.642  0.00  0.00    -0.265 OA
ATOM      7  N   UNL     1       6.126  -6.190  -3.854  0.00  0.00    -0.292 N 
ATOM      8  H   UNL     1       6.024  -5.704  -4.687  0.00  0.00    +0.151 HD
BRANCH   7   9
ATOM      9  C   UNL     1       6.618  -7.570  -3.866  0.00  0.00    +0.167 C 
ATOM     10  C   UNL     1       5.874  -8.408  -4.888  0.00  0.00    +0.045 C 
ATOM     11  C   UNL     1       4.957  -9.258  -4.469  0.00  0.00    -0.046 C 
ATOM     12  C   UNL     1       4.129 -10.427  -5.001  0.00  0.00    +0.032 C 
ATOM     13  C   UNL     1       3.695 -11.261  -3.777  0.00  0.00    +0.006 C 
ATOM     14  C   UNL     1       4.610 -10.750  -2.625  0.00  0.00    +0.019 C 
ATOM     15  C   UNL     1       4.660  -9.250  -2.966  0.00  0.00    +0.075 C 
ATOM     16  S   UNL     1       6.172  -8.451  -2.304  0.00  0.00    -0.126 S 
BRANCH  10  17
ATOM     17  C   UNL     1       6.171  -8.275  -6.323  0.00  0.00    +0.240 C 
ATOM     18  O   UNL     1       5.568  -8.952  -7.134  0.00  0.00    -0.271 OA
ATOM     19  N   UNL     1       7.111  -7.403  -6.739  0.00  0.00    -0.326 N 
ATOM     20  H   UNL     1       7.592  -6.864  -6.092  0.00  0.00    +0.145 HD
ATOM     21  H   UNL     1       7.307  -7.316  -7.685  0.00  0.00    +0.145 HD
ENDBRANCH  10  17
ENDBRANCH   7   9
ENDBRANCH   2   5
BRANCH   1  22
ATOM     22  C   UNL     1       4.508  -2.215  -1.491  0.00  0.00    +0.109 C 
BRANCH  22  23
ATOM     23  C   UNL     1       4.231  -1.785  -0.049  0.00  0.00    +0.052 C 
BRANCH  23  29
ATOM     24  C   UNL     1      -0.017   1.399   0.010  0.00  0.00    +0.022 A 
ATOM     25  C   UNL     1       1.109   2.143   0.003  0.00  0.00    +0.027 A 
ATOM     26  C   UNL     1       2.385   1.516  -0.013  0.00  0.00    +0.043 A 
ATOM     27  N   UNL     1       3.600   2.009  -0.022  0.00  0.00    -0.380 N 
ATOM     28  C   UNL     1       4.557   0.897  -0.038  0.00  0.00    +0.144 C 
ATOM     29  C   UNL     1       3.724  -0.366  -0.036  0.00  0.00    -0.040 C 
ATOM     30  C   UNL     1       2.433   0.036  -0.021  0.00  0.00    +0.000 A 
ATOM     31  C   UNL     1       1.163  -0.699  -0.013  0.00  0.00    +0.030 A 
ATOM     32  C   UNL     1       0.002  -0.004   0.002  0.00  0.00    +0.042 A 
ATOM     33 CL   UNL     1      -1.502  -0.870   0.012  0.00  0.00    -0.084 Cl
ATOM     34  H   UNL     1       3.828   2.952  -0.020  0.00  0.00    +0.160 HD
ENDBRANCH  23  29
ENDBRANCH  22  23
ENDBRANCH   1  22
TORSDOF 6
