REMARK  Name = ZINC39609791
REMARK  8 active torsions:
REMARK  status: ('A' for Active; 'I' for Inactive)
REMARK    1  A    between atoms: C_1  and  O_2
REMARK    2  A    between atoms: O_2  and  C_3
REMARK    3  A    between atoms: C_6  and  C_9
REMARK    4  A    between atoms: C_9  and  C_10
REMARK    5  A    between atoms: C_10  and  C_11
REMARK    6  A    between atoms: C_15  and  C_24
REMARK    7  A    between atoms: N_26  and  C_27
REMARK    8  A    between atoms: C_27  and  C_28
REMARK                            x       y       z     vdW  Elec       q    Type
REMARK                         _______ _______ _______ _____ _____    ______ ____
ROOT
ATOM      1  C   UNL     1      -6.595  -3.345  -1.526  0.00  0.00    +0.216 C 
ATOM      2  O   UNL     1      -7.063  -3.557  -0.427  0.00  0.00    -0.276 OA
ATOM      3  N   UNL     1      -7.263  -3.736  -2.630  0.00  0.00    -0.300 N 
ATOM      4  C   UNL     1      -6.854  -3.573  -4.045  0.00  0.00    +0.121 C 
ATOM      5  C   UNL     1      -7.279  -4.891  -4.729  0.00  0.00    +0.100 C 
ATOM      6  C   UNL     1      -8.408  -5.446  -3.844  0.00  0.00    -0.004 C 
ATOM      7  C   UNL     1      -8.570  -4.433  -2.702  0.00  0.00    +0.115 C 
ATOM      8  C   UNL     1      -8.017  -6.809  -3.280  0.00  0.00    -0.010 C 
ATOM      9  C   UNL     1      -9.178  -7.365  -2.451  0.00  0.00    -0.082 C 
ATOM     10  N   UNL     1     -10.371  -7.487  -3.297  0.00  0.00    +0.379 N 
ATOM     11  C   UNL     1     -10.795  -6.160  -3.760  0.00  0.00    -0.082 C 
ATOM     12  C   UNL     1      -9.703  -5.553  -4.644  0.00  0.00    -0.010 C 
ATOM     13  H   UNL     1     -10.159  -8.068  -4.094  0.00  0.00    -0.086 HD
ATOM     14  H   UNL     1     -11.117  -7.911  -2.765  0.00  0.00    -0.086 HD
ENDROOT
BRANCH   5  15
ATOM     15  C   UNL     1      -6.122  -5.856  -4.773  0.00  0.00    +0.218 C 
ATOM     16  O   UNL     1      -5.275  -5.828  -3.905  0.00  0.00    -0.275 OA
ATOM     17  N   UNL     1      -6.028  -6.750  -5.777  0.00  0.00    -0.311 N 
ATOM     18  H   UNL     1      -6.705  -6.772  -6.471  0.00  0.00    +0.149 HD
BRANCH  17  19
ATOM     19  C   UNL     1      -4.903  -7.688  -5.820  0.00  0.00    +0.139 C 
BRANCH  19  20
ATOM     20  C   UNL     1      -5.033  -8.572  -7.033  0.00  0.00    -0.029 A 
ATOM     21  C   UNL     1      -5.730  -9.764  -6.948  0.00  0.00    +0.007 A 
ATOM     22  C   UNL     1      -5.850 -10.576  -8.060  0.00  0.00    +0.022 A 
ATOM     23  C   UNL     1      -5.272 -10.198  -9.259  0.00  0.00    +0.059 A 
ATOM     24  C   UNL     1      -4.575  -9.005  -9.344  0.00  0.00    +0.060 A 
ATOM     25  C   UNL     1      -4.460  -8.190  -8.232  0.00  0.00    +0.026 A 
ATOM     26 CL   UNL     1      -3.849  -8.528 -10.847  0.00  0.00    -0.082 Cl
ATOM     27 CL   UNL     1      -5.421 -11.218 -10.655  0.00  0.00    -0.082 Cl
ENDBRANCH  19  20
ENDBRANCH  17  19
ENDBRANCH   5  15
BRANCH   1  28
ATOM     28  C   UNL     1      -5.268  -2.644  -1.658  0.00  0.00    +0.100 C 
BRANCH  28  29
ATOM     29  C   UNL     1      -4.727  -2.310  -0.266  0.00  0.00    +0.044 C 
BRANCH  29  33
ATOM     30  C   UNL     1      -0.962  -0.322  -0.639  0.00  0.00    +0.120 A 
ATOM     31  C   UNL     1      -2.138   0.414  -0.613  0.00  0.00    +0.046 A 
ATOM     32  C   UNL     1      -3.353  -0.231  -0.493  0.00  0.00    +0.007 A 
ATOM     33  C   UNL     1      -3.399  -1.609  -0.398  0.00  0.00    -0.047 A 
ATOM     34  C   UNL     1      -2.229  -2.346  -0.423  0.00  0.00    +0.007 A 
ATOM     35  C   UNL     1      -1.012  -1.706  -0.549  0.00  0.00    +0.046 A 
BRANCH  30  37
ATOM     36  C   UNL     1       0.209   1.736  -0.845  0.00  0.00    +0.277 C 
ATOM     37  O   UNL     1       0.235   0.310  -0.757  0.00  0.00    -0.495 OA
ENDBRANCH  30  37
ENDBRANCH  29  33
ENDBRANCH  28  29
ENDBRANCH   1  28
TORSDOF 7
