REMARK  Name = ZINC49937809
REMARK  12 active torsions:
REMARK  status: ('A' for Active; 'I' for Inactive)
REMARK    1  A    between atoms: C_1  and  C_2
REMARK    2  A    between atoms: C_2  and  O_3
REMARK    3  A    between atoms: O_3  and  C_4
REMARK    4  A    between atoms: C_6  and  C_11
REMARK    5  A    between atoms: C_9  and  O_10
REMARK    6  A    between atoms: C_16  and  S_20
REMARK    7  A    between atoms: C_17  and  C_18
REMARK    8  A    between atoms: S_20  and  C_21
REMARK    9  A    between atoms: C_21  and  C_22
REMARK   10  A    between atoms: N_24  and  C_25
REMARK   11  A    between atoms: C_28  and  C_32
REMARK   12  A    between atoms: C_30  and  C_31
REMARK                            x       y       z     vdW  Elec       q    Type
REMARK                         _______ _______ _______ _____ _____    ______ ____
ROOT
ATOM      1  C   UNL     1      -0.249  -4.937   0.504  0.00  0.00    +0.051 C 
ATOM      2  C   UNL     1       0.863  -5.816   1.089  0.00  0.00    +0.107 C 
ATOM      3  C   UNL     1       0.248  -6.837   2.009  0.00  0.00    +0.237 C 
ATOM      4  N   UNL     1      -0.991  -7.280   1.823  0.00  0.00    -0.177 NA
ATOM      5  C   UNL     1      -1.761  -6.868   0.849  0.00  0.00    +0.085 C 
ATOM      6  C   UNL     1      -1.290  -5.849  -0.155  0.00  0.00    +0.152 C 
ATOM      7  O   UNL     1       0.899  -7.266   2.941  0.00  0.00    -0.274 OA
ENDROOT
BRANCH   1  10
ATOM      8  C   UNL     1       0.746  -1.772  -1.303  0.00  0.00    +0.162 A 
ATOM      9  C   UNL     1       0.214  -2.634  -0.358  0.00  0.00    +0.053 A 
ATOM     10  C   UNL     1       0.331  -4.001  -0.525  0.00  0.00    -0.039 A 
ATOM     11  C   UNL     1       0.980  -4.512  -1.633  0.00  0.00    +0.008 A 
ATOM     12  C   UNL     1       1.514  -3.658  -2.580  0.00  0.00    +0.049 A 
ATOM     13  C   UNL     1       1.395  -2.287  -2.422  0.00  0.00    +0.158 A 
BRANCH  13  14
ATOM     14  O   UNL     1       1.914  -1.445  -3.355  0.00  0.00    -0.503 OA
ATOM     15  H   UNL     1       2.831  -1.189  -3.187  0.00  0.00    +0.292 HD
ENDBRANCH  13  14
BRANCH   8  16
ATOM     16  O   UNL     1       0.631  -0.427  -1.140  0.00  0.00    -0.489 OA
BRANCH  16  18
ATOM     17  C   UNL     1      -0.077   1.559   0.041  0.00  0.00    +0.048 C 
ATOM     18  C   UNL     1      -0.046   0.029   0.032  0.00  0.00    +0.226 C 
ENDBRANCH  16  18
ENDBRANCH   8  16
ENDBRANCH   1  10
BRANCH   6  19
ATOM     19  C   UNL     1      -2.433  -5.041  -0.611  0.00  0.00    +0.073 C 
ATOM     20  N   UNL     1      -3.315  -4.418  -0.963  0.00  0.00    -0.196 NA
ENDBRANCH   6  19
BRANCH   5  21
ATOM     21  S   UNL     1      -3.297  -7.483   0.716  0.00  0.00    -0.102 S 
BRANCH  21  22
ATOM     22  C   UNL     1      -3.426  -8.645   2.103  0.00  0.00    +0.171 C 
BRANCH  22  23
ATOM     23  C   UNL     1      -4.791  -9.282   2.099  0.00  0.00    +0.227 C 
ATOM     24  O   UNL     1      -5.598  -8.983   1.244  0.00  0.00    -0.275 OA
ATOM     25  N   UNL     1      -5.116 -10.185   3.045  0.00  0.00    -0.285 N 
ATOM     26  H   UNL     1      -4.446 -10.485   3.680  0.00  0.00    +0.155 HD
BRANCH  25  27
ATOM     27  C   UNL     1      -6.419 -10.691   3.111  0.00  0.00    +0.036 A 
ATOM     28  C   UNL     1      -7.479  -9.952   2.603  0.00  0.00    +0.024 A 
ATOM     29  C   UNL     1      -8.764 -10.454   2.671  0.00  0.00    +0.005 A 
ATOM     30  C   UNL     1      -8.995 -11.691   3.243  0.00  0.00    -0.050 A 
ATOM     31  C   UNL     1      -7.942 -12.430   3.751  0.00  0.00    +0.008 A 
ATOM     32  C   UNL     1      -6.654 -11.936   3.680  0.00  0.00    -0.029 A 
ATOM     33  C   UNL     1      -5.505 -12.745   4.227  0.00  0.00    +0.045 C 
ATOM     34  C   UNL     1     -10.399 -12.236   3.316  0.00  0.00    +0.044 C 
ENDBRANCH  25  27
ENDBRANCH  22  23
ENDBRANCH  21  22
ENDBRANCH   5  21
TORSDOF 9
