REMARK  Name = ZINC03199594
REMARK  5 active torsions:
REMARK  status: ('A' for Active; 'I' for Inactive)
REMARK    1  A    between atoms: C_3  and  O_27
REMARK    2  A    between atoms: C_4  and  C_8
REMARK    3  A    between atoms: C_8  and  C_9
REMARK    4  A    between atoms: C_8  and  C_18
REMARK    5  A    between atoms: O_27  and  C_28
REMARK                            x       y       z     vdW  Elec       q    Type
REMARK                         _______ _______ _______ _____ _____    ______ ____
ROOT
ATOM      1  C   UNL     1       1.227  -2.186  -0.021  0.00  0.00    +0.064 C 
ENDROOT
BRANCH   1   2
ATOM      2  C   UNL     1       0.490  -2.633   1.244  0.00  0.00    +0.170 C 
ATOM      3  C   UNL     1      -0.922  -2.083   1.187  0.00  0.00    +0.233 C 
ATOM      4  O   UNL     1      -1.665  -2.352   0.268  0.00  0.00    -0.275 OA
ATOM      5  N   UNL     1      -1.325  -1.286   2.194  0.00  0.00    -0.239 N 
ATOM      6  C   UNL     1      -0.519  -0.975   3.215  0.00  0.00    +0.312 C 
ATOM      7  O   UNL     1      -0.962  -0.246   4.081  0.00  0.00    -0.252 OA
ATOM      8  N   UNL     1       0.740  -1.407   3.353  0.00  0.00    -0.239 N 
ATOM      9  C   UNL     1       1.320  -2.219   2.444  0.00  0.00    +0.233 C 
ATOM     10  O   UNL     1       2.462  -2.603   2.582  0.00  0.00    -0.275 OA
ATOM     11  H   UNL     1      -2.225  -0.925   2.178  0.00  0.00    +0.159 HD
ATOM     12  H   UNL     1       1.250  -1.128   4.129  0.00  0.00    +0.159 HD
ENDBRANCH   1   2
BRANCH   1  13
ATOM     13  C   UNL     1       0.414  -2.588  -1.253  0.00  0.00    +0.170 C 
ATOM     14  C   UNL     1       0.170  -4.084  -1.190  0.00  0.00    +0.233 C 
ATOM     15  O   UNL     1      -0.402  -4.588  -0.247  0.00  0.00    -0.275 OA
ATOM     16  N   UNL     1       0.607  -4.835  -2.218  0.00  0.00    -0.239 N 
ATOM     17  C   UNL     1       1.242  -4.298  -3.266  0.00  0.00    +0.312 C 
ATOM     18  O   UNL     1       1.606  -5.048  -4.149  0.00  0.00    -0.252 OA
ATOM     19  N   UNL     1       1.507  -2.994  -3.412  0.00  0.00    -0.239 N 
ATOM     20  C   UNL     1       1.143  -2.083  -2.484  0.00  0.00    +0.233 C 
ATOM     21  O   UNL     1       1.389  -0.905  -2.630  0.00  0.00    -0.275 OA
ATOM     22  H   UNL     1       0.459  -5.794  -2.199  0.00  0.00    +0.159 HD
ATOM     23  H   UNL     1       1.974  -2.695  -4.207  0.00  0.00    +0.159 HD
ENDBRANCH   1  13
BRANCH   1  27
ATOM     24  C   UNL     1       1.715   2.061   0.042  0.00  0.00    +0.019 A 
ATOM     25  C   UNL     1       2.827   1.242  -0.007  0.00  0.00    +0.047 A 
ATOM     26  C   UNL     1       2.671  -0.136  -0.028  0.00  0.00    +0.130 A 
ATOM     27  C   UNL     1       1.399  -0.689   0.001  0.00  0.00    +0.001 A 
ATOM     28  C   UNL     1       0.290   0.133   0.050  0.00  0.00    +0.022 A 
ATOM     29  C   UNL     1       0.448   1.508   0.070  0.00  0.00    +0.018 A 
ATOM     30 BR   UNL     1      -1.072   2.631   0.129  0.00  0.00    -0.050 Br
BRANCH  26  31
ATOM     31  O   UNL     1       3.763  -0.944  -0.075  0.00  0.00    -0.434 OA
BRANCH  31  32
ATOM     32  C   UNL     1       5.041  -0.305  -0.102  0.00  0.00    +0.541 C 
ATOM     33  F   UNL     1       5.130   0.514  -1.233  0.00  0.00    -0.166 F 
ATOM     34  F   UNL     1       5.199   0.472   1.050  0.00  0.00    -0.166 F 
ENDBRANCH  31  32
ENDBRANCH  26  31
ENDBRANCH   1  27
TORSDOF 5
