REMARK  Name = ZINC48326169
REMARK  9 active torsions:
REMARK  status: ('A' for Active; 'I' for Inactive)
REMARK    1  A    between atoms: C_10  and  N_12
REMARK    2  A    between atoms: N_12  and  C_13
REMARK    3  A    between atoms: N_12  and  C_29
REMARK    4  A    between atoms: C_13  and  C_14
REMARK    5  A    between atoms: N_16  and  C_17
REMARK    6  A    between atoms: C_17  and  C_18
REMARK    7  A    between atoms: C_18  and  C_19
REMARK    8  A    between atoms: C_22  and  S_25
REMARK    9  A    between atoms: S_25  and  N_28
REMARK                            x       y       z     vdW  Elec       q    Type
REMARK                         _______ _______ _______ _____ _____    ______ ____
ROOT
ATOM      1  C   UNL     1       3.726   2.320   0.593  0.00  0.00    +0.197 C 
ATOM      2  O   UNL     1       2.692   1.787   0.938  0.00  0.00    -0.278 OA
ATOM      3  N   UNL     1       3.757   3.647   0.365  0.00  0.00    -0.317 N 
ATOM      4  H   UNL     1       4.584   4.073   0.089  0.00  0.00    +0.149 HD
ENDROOT
BRANCH   1   5
ATOM      5  C   UNL     1       4.976   1.496   0.419  0.00  0.00    +0.020 C 
BRANCH   5   6
ATOM      6  N   UNL     1       4.650   0.072   0.577  0.00  0.00    +0.392 N 
ATOM      7  H   UNL     1       4.174  -0.068   1.456  0.00  0.00    -0.080 HD
BRANCH   6  17
ATOM      8  C   UNL     1       2.841  -4.489   0.053  0.00  0.00    +0.000 A 
ATOM      9  C   UNL     1       2.860  -3.611   1.121  0.00  0.00    +0.000 A 
ATOM     10  C   UNL     1       3.167  -2.283   0.910  0.00  0.00    +0.002 A 
ATOM     11  C   UNL     1       3.460  -1.820  -0.366  0.00  0.00    -0.058 A 
ATOM     12  C   UNL     1       3.446  -2.695  -1.429  0.00  0.00    -0.046 A 
ATOM     13  C   UNL     1       3.133  -4.032  -1.215  0.00  0.00    +0.004 A 
ATOM     14  C   UNL     1       3.769  -2.267  -2.836  0.00  0.00    +0.035 C 
ATOM     15  C   UNL     1       3.663  -0.749  -2.974  0.00  0.00    +0.003 C 
ATOM     16  C   UNL     1       4.488  -0.103  -1.854  0.00  0.00    -0.010 C 
ATOM     17  C   UNL     1       3.779  -0.356  -0.525  0.00  0.00    -0.036 C 
ENDBRANCH   6  17
BRANCH   6  18
ATOM     18  C   UNL     1       5.888  -0.718   0.560  0.00  0.00    -0.067 C 
ATOM     19  C   UNL     1       6.087  -1.744   1.677  0.00  0.00    -0.017 C 
ATOM     20  C   UNL     1       6.910  -0.455   1.667  0.00  0.00    -0.017 C 
ENDBRANCH   6  18
ENDBRANCH   5   6
ENDBRANCH   1   5
BRANCH   3  21
ATOM     21  C   UNL     1       2.542   4.448   0.534  0.00  0.00    +0.109 C 
BRANCH  21  22
ATOM     22  C   UNL     1       2.848   5.913   0.215  0.00  0.00    +0.054 C 
BRANCH  22  23
ATOM     23  C   UNL     1       1.598   6.737   0.388  0.00  0.00    -0.046 A 
ATOM     24  C   UNL     1       0.737   6.920  -0.677  0.00  0.00    +0.005 A 
ATOM     25  C   UNL     1      -0.410   7.675  -0.518  0.00  0.00    +0.029 A 
ATOM     26  C   UNL     1      -0.695   8.248   0.707  0.00  0.00    +0.105 A 
ATOM     27  C   UNL     1       0.165   8.064   1.773  0.00  0.00    +0.029 A 
ATOM     28  C   UNL     1       1.309   7.305   1.615  0.00  0.00    +0.005 A 
BRANCH  26  29
ATOM     29  S   UNL     1      -2.156   9.212   0.910  0.00  0.00    +0.056 S 
ATOM     30  O   UNL     1      -1.916  10.088   2.002  0.00  0.00    -0.153 OA
ATOM     31  O   UNL     1      -2.514   9.684  -0.382  0.00  0.00    -0.153 OA
BRANCH  29  32
ATOM     32  N   UNL     1      -3.361   8.181   1.387  0.00  0.00    -0.204 NA
ATOM     33  H   UNL     1      -3.174   7.236   1.500  0.00  0.00    +0.144 HD
ATOM     34  H   UNL     1      -4.254   8.521   1.553  0.00  0.00    +0.144 HD
ENDBRANCH  29  32
ENDBRANCH  26  29
ENDBRANCH  22  23
ENDBRANCH  21  22
ENDBRANCH   3  21
TORSDOF 9
