REMARK  Name = ZINC39634413
REMARK  7 active torsions:
REMARK  status: ('A' for Active; 'I' for Inactive)
REMARK    1  A    between atoms: C_1  and  C_2
REMARK    2  A    between atoms: C_5  and  C_8
REMARK    3  A    between atoms: C_8  and  N_9
REMARK    4  A    between atoms: C_10  and  C_12
REMARK    5  A    between atoms: C_23  and  C_25
REMARK    6  A    between atoms: C_28  and  O_32
REMARK    7  A    between atoms: O_32  and  C_33
REMARK                            x       y       z     vdW  Elec       q    Type
REMARK                         _______ _______ _______ _____ _____    ______ ____
ROOT
ATOM      1  C   UNL     1       2.764  -6.568  -0.634  0.00  0.00    +0.100 C 
ATOM      2  C   UNL     1       3.728  -6.157  -1.770  0.00  0.00    +0.121 C 
ATOM      3  N   UNL     1       4.598  -7.340  -1.969  0.00  0.00    -0.296 N 
ATOM      4  C   UNL     1       3.683  -8.498  -1.829  0.00  0.00    +0.115 C 
ATOM      5  C   UNL     1       2.737  -8.105  -0.677  0.00  0.00    -0.004 C 
ATOM      6  C   UNL     1       1.323  -8.601  -0.964  0.00  0.00    -0.010 C 
ATOM      7  C   UNL     1       1.309 -10.132  -0.943  0.00  0.00    -0.082 C 
ATOM      8  N   UNL     1       1.759 -10.609   0.370  0.00  0.00    +0.379 N 
ATOM      9  C   UNL     1       3.153 -10.207   0.598  0.00  0.00    -0.082 C 
ATOM     10  C   UNL     1       3.244  -8.679   0.643  0.00  0.00    -0.010 C 
ATOM     11  C   UNL     1       5.921  -7.358  -2.221  0.00  0.00    +0.247 C 
ATOM     12  O   UNL     1       6.563  -6.326  -2.181  0.00  0.00    -0.270 OA
ATOM     13  H   UNL     1       1.174 -10.212   1.090  0.00  0.00    -0.086 HD
ATOM     14  H   UNL     1       1.692 -11.615   0.402  0.00  0.00    -0.086 HD
ENDROOT
BRANCH  11  15
ATOM     15  C   UNL     1       6.593  -8.632  -2.547  0.00  0.00    +0.040 A 
ATOM     16  C   UNL     1       5.848  -9.716  -3.019  0.00  0.00    +0.036 A 
ATOM     17  C   UNL     1       6.478 -10.903  -3.322  0.00  0.00    +0.085 A 
ATOM     18  C   UNL     1       7.854 -11.024  -3.157  0.00  0.00    +0.157 A 
ATOM     19  C   UNL     1       8.598  -9.948  -2.687  0.00  0.00    +0.085 A 
ATOM     20  C   UNL     1       7.976  -8.755  -2.388  0.00  0.00    +0.036 A 
ATOM     21 CL   UNL     1      10.315 -10.105  -2.482  0.00  0.00    -0.080 Cl
ATOM     22 CL   UNL     1       5.554 -12.250  -3.909  0.00  0.00    -0.080 Cl
BRANCH  18  23
ATOM     23  O   UNL     1       8.471 -12.196  -3.455  0.00  0.00    -0.492 OA
ATOM     24  C   UNL     1       8.944 -12.357  -4.793  0.00  0.00    +0.277 C 
ENDBRANCH  18  23
ENDBRANCH  11  15
BRANCH   1  26
ATOM     25  N   UNL     1       0.582  -5.705   0.150  0.00  0.00    -0.311 N 
ATOM     26  C   UNL     1       1.387  -6.011  -0.887  0.00  0.00    +0.218 C 
ATOM     27  O   UNL     1       1.002  -5.839  -2.025  0.00  0.00    -0.275 OA
ATOM     28  H   UNL     1       0.890  -5.842   1.059  0.00  0.00    +0.149 HD
BRANCH  25  29
ATOM     29  C   UNL     1      -0.756  -5.164  -0.097  0.00  0.00    +0.139 C 
BRANCH  29  34
ATOM     30  C   UNL     1      -3.399  -4.182   4.948  0.00  0.00    +0.044 C 
ATOM     31  C   UNL     1      -2.709  -4.438   3.632  0.00  0.00    -0.050 A 
ATOM     32  C   UNL     1      -1.947  -3.445   3.047  0.00  0.00    +0.003 A 
ATOM     33  C   UNL     1      -1.315  -3.680   1.840  0.00  0.00    +0.005 A 
ATOM     34  C   UNL     1      -1.445  -4.908   1.219  0.00  0.00    -0.030 A 
ATOM     35  C   UNL     1      -2.207  -5.902   1.806  0.00  0.00    +0.005 A 
ATOM     36  C   UNL     1      -2.835  -5.668   3.014  0.00  0.00    +0.003 A 
ENDBRANCH  29  34
ENDBRANCH  25  29
ENDBRANCH   1  26
TORSDOF 5
