REMARK  Name = ZINC09836189
REMARK  9 active torsions:
REMARK  status: ('A' for Active; 'I' for Inactive)
REMARK    1  A    between atoms: C_1  and  C_2
REMARK    2  A    between atoms: C_2  and  C_3
REMARK    3  A    between atoms: C_6  and  N_9
REMARK    4  A    between atoms: C_19  and  C_20
REMARK    5  A    between atoms: C_19  and  O_31
REMARK    6  A    between atoms: N_22  and  C_23
REMARK    7  A    between atoms: C_23  and  C_24
REMARK    8  A    between atoms: C_29  and  C_30
REMARK    9  A    between atoms: C_29  and  N_61
REMARK                            x       y       z     vdW  Elec       q    Type
REMARK                         _______ _______ _______ _____ _____    ______ ____
ROOT
ATOM      1  N   UNL     1       1.884   0.084   4.247  0.00  0.00    -0.214 N 
ATOM      2  C   UNL     1       2.353  -0.854   3.404  0.00  0.00    +0.314 C 
ATOM      3  O   UNL     1       2.327  -2.017   3.759  0.00  0.00    -0.252 OA
ATOM      4  N   UNL     1       2.847  -0.567   2.193  0.00  0.00    -0.269 N 
ATOM      5  C   UNL     1       2.922   0.734   1.693  0.00  0.00    +0.043 A 
ATOM      6  C   UNL     1       3.444   0.979   0.429  0.00  0.00    +0.025 A 
ATOM      7  C   UNL     1       3.509   2.273  -0.049  0.00  0.00    +0.017 A 
ATOM      8  C   UNL     1       3.056   3.327   0.724  0.00  0.00    +0.018 A 
ATOM      9  C   UNL     1       2.535   3.088   1.986  0.00  0.00    +0.025 A 
ATOM     10  C   UNL     1       2.469   1.799   2.463  0.00  0.00    +0.034 A 
ATOM     11  C   UNL     1       1.907   1.497   3.833  0.00  0.00    +0.247 C 
ATOM     12 BR   UNL     1       3.150   5.095   0.060  0.00  0.00    -0.050 Br
ATOM     13  H   UNL     1       3.168  -1.295   1.639  0.00  0.00    +0.156 HD
ENDROOT
BRANCH   1  17
ATOM     14  C   UNL     1       0.380  -0.997   7.979  0.00  0.00    -0.048 A 
ATOM     15  C   UNL     1      -0.309  -1.342   6.831  0.00  0.00    +0.005 A 
ATOM     16  C   UNL     1       0.186  -0.985   5.593  0.00  0.00    +0.024 A 
ATOM     17  C   UNL     1       1.379  -0.279   5.500  0.00  0.00    +0.041 A 
ATOM     18  C   UNL     1       2.072   0.061   6.655  0.00  0.00    +0.024 A 
ATOM     19  C   UNL     1       1.568  -0.293   7.891  0.00  0.00    +0.005 A 
BRANCH  14  21
ATOM     20  C   UNL     1       0.382  -2.761   9.721  0.00  0.00    +0.009 C 
ATOM     21  C   UNL     1      -0.164  -1.387   9.329  0.00  0.00    +0.032 C 
ENDBRANCH  14  21
ENDBRANCH   1  17
BRANCH  11  22
ATOM     22  C   UNL     1       0.494   2.019   3.882  0.00  0.00    +0.269 C 
ATOM     23  O   UNL     1       0.222   2.968   4.587  0.00  0.00    -0.270 OA
ATOM     24  N   UNL     1      -0.467   1.433   3.142  0.00  0.00    -0.313 N 
ATOM     25  H   UNL     1      -0.249   0.674   2.577  0.00  0.00    +0.149 HD
BRANCH  24  26
ATOM     26  C   UNL     1      -1.840   1.940   3.189  0.00  0.00    +0.089 C 
BRANCH  26  27
ATOM     27  C   UNL     1      -2.748   1.032   2.357  0.00  0.00    -0.051 C 
ATOM     28  C   UNL     1      -2.823  -0.370   2.998  0.00  0.00    -0.016 C 
ATOM     29  C   UNL     1      -4.306  -0.773   2.785  0.00  0.00    -0.020 C 
ATOM     30  C   UNL     1      -5.027   0.587   2.955  0.00  0.00    -0.078 C 
ATOM     31  N   UNL     1      -4.123   1.565   2.322  0.00  0.00    +0.382 N 
ATOM     32  H   UNL     1      -4.407   1.708   1.346  0.00  0.00    -0.081 HD
BRANCH  31  33
ATOM     33  C   UNL     1      -4.184   2.864   3.042  0.00  0.00    -0.082 C 
ATOM     34  C   UNL     1      -5.590   3.451   2.900  0.00  0.00    -0.017 C 
ENDBRANCH  31  33
ENDBRANCH  26  27
ENDBRANCH  24  26
ENDBRANCH  11  22
BRANCH  11  35
ATOM     35  O   UNL     1       2.675   2.225   4.794  0.00  0.00    -0.360 OA
ATOM     36  H   UNL     1       2.702   3.178   4.635  0.00  0.00    +0.213 HD
ENDBRANCH  11  35
TORSDOF 7
