REMARK  Name = ZINC39843496
REMARK  4 active torsions:
REMARK  status: ('A' for Active; 'I' for Inactive)
REMARK    1  A    between atoms: C_6  and  N_7
REMARK    2  A    between atoms: C_8  and  C_10
REMARK    3  A    between atoms: C_10  and  C_11
REMARK    4  A    between atoms: N_17  and  N_18
REMARK                            x       y       z     vdW  Elec       q    Type
REMARK                         _______ _______ _______ _____ _____    ______ ____
ROOT
ATOM      1  C   UNL     1      -2.182  -4.324  -0.316  0.00  0.00    +0.149 C 
ATOM      2  C   UNL     1      -3.464  -5.134  -0.451  0.00  0.00    +0.233 C 
ATOM      3  O   UNL     1      -4.233  -5.016  -1.381  0.00  0.00    -0.274 OA
ATOM      4  N   UNL     1      -3.655  -5.980   0.551  0.00  0.00    -0.263 N 
ATOM      5  C   UNL     1      -2.775  -6.096   1.589  0.00  0.00    +0.183 C 
ATOM      6  N   UNL     1      -2.873  -6.910   2.636  0.00  0.00    -0.126 NA
ATOM      7  S   UNL     1      -1.540  -4.998   1.269  0.00  0.00    -0.075 S 
ATOM      8  H   UNL     1      -4.448  -6.538   0.547  0.00  0.00    +0.157 HD
ENDROOT
BRANCH   6   9
ATOM      9  N   UNL     1      -3.885  -7.702   2.745  0.00  0.00    -0.142 NA
ATOM     10  C   UNL     1      -3.983  -8.512   3.787  0.00  0.00    +0.157 C 
ATOM     11  C   UNL     1      -5.060  -9.484   4.073  0.00  0.00    +0.029 A 
ATOM     12  C   UNL     1      -6.226  -9.840   3.402  0.00  0.00    +0.027 A 
ATOM     13  C   UNL     1      -7.053 -10.808   3.935  0.00  0.00    +0.019 A 
ATOM     14  C   UNL     1      -6.722 -11.422   5.133  0.00  0.00    +0.017 A 
ATOM     15  C   UNL     1      -5.568 -11.076   5.805  0.00  0.00    +0.025 A 
ATOM     16  C   UNL     1      -4.722 -10.103   5.284  0.00  0.00    +0.043 A 
ATOM     17  N   UNL     1      -3.522  -9.576   5.747  0.00  0.00    -0.280 N 
ATOM     18  C   UNL     1      -3.041  -8.644   4.906  0.00  0.00    +0.269 C 
ATOM     19  O   UNL     1      -2.007  -8.016   5.050  0.00  0.00    -0.268 OA
ATOM     20 BR   UNL     1      -8.640 -11.297   3.030  0.00  0.00    -0.050 Br
ATOM     21  H   UNL     1      -3.086  -9.848   6.569  0.00  0.00    +0.155 HD
ENDBRANCH   6   9
BRANCH   1  22
ATOM     22  C   UNL     1      -2.480  -2.828  -0.204  0.00  0.00    +0.120 C 
BRANCH  22  24
ATOM     23  N   UNL     1      -1.200  -0.722   0.010  0.00  0.00    -0.285 N 
ATOM     24  C   UNL     1      -1.184  -2.065  -0.099  0.00  0.00    +0.219 C 
ATOM     25  O   UNL     1      -0.127  -2.660  -0.113  0.00  0.00    -0.275 OA
ATOM     26  H   UNL     1      -2.045  -0.252   0.098  0.00  0.00    +0.155 HD
BRANCH  23  32
ATOM     27  C   UNL     1       1.071  -0.454  -0.766  0.00  0.00    +0.026 A 
ATOM     28  C   UNL     1       2.256   0.256  -0.779  0.00  0.00    +0.040 A 
ATOM     29  C   UNL     1       2.378   1.416  -0.032  0.00  0.00    +0.124 A 
ATOM     30  C   UNL     1       1.312   1.866   0.730  0.00  0.00    +0.040 A 
ATOM     31  C   UNL     1       0.126   1.159   0.745  0.00  0.00    +0.026 A 
ATOM     32  C   UNL     1       0.002  -0.004  -0.004  0.00  0.00    +0.034 A 
ATOM     33  F   UNL     1       3.538   2.108  -0.045  0.00  0.00    -0.205 F 
ENDBRANCH  23  32
ENDBRANCH  22  24
ENDBRANCH   1  22
TORSDOF 4
