REMARK  Name = ZINC27315112
REMARK  7 active torsions:
REMARK  status: ('A' for Active; 'I' for Inactive)
REMARK    1  A    between atoms: C_1  and  C_2
REMARK    2  A    between atoms: C_2  and  N_3
REMARK    3  A    between atoms: C_6  and  N_9
REMARK    4  A    between atoms: C_10  and  C_12
REMARK    5  A    between atoms: C_12  and  S_13
REMARK    6  A    between atoms: S_13  and  C_14
REMARK    7  A    between atoms: C_24  and  C_28
REMARK                            x       y       z     vdW  Elec       q    Type
REMARK                         _______ _______ _______ _____ _____    ______ ____
ROOT
ATOM      1  C   UNL     1       5.913   3.670   0.118  0.00  0.00    +0.191 A 
ATOM      2  N   UNL     1       6.066   2.392   0.436  0.00  0.00    -0.207 NA
ATOM      3  C   UNL     1       5.080   1.499   0.412  0.00  0.00    +0.129 A 
ATOM      4  C   UNL     1       3.802   1.990   0.015  0.00  0.00    +0.051 A 
ATOM      5  C   UNL     1       2.567   1.229  -0.096  0.00  0.00    -0.025 A 
ATOM      6  C   UNL     1       1.470   1.909  -0.496  0.00  0.00    -0.004 A 
ATOM      7  S   UNL     1       2.019   3.580  -0.742  0.00  0.00    -0.073 S 
ATOM      8  C   UNL     1       3.715   3.366  -0.310  0.00  0.00    +0.115 A 
ATOM      9  N   UNL     1       4.744   4.190  -0.261  0.00  0.00    -0.214 NA
ATOM     10  C   UNL     1       0.087   1.367  -0.690  0.00  0.00    +0.046 C 
ATOM     11  C   UNL     1       0.166  -0.166  -0.724  0.00  0.00    -0.009 C 
ATOM     12  C   UNL     1       1.021  -0.638   0.455  0.00  0.00    +0.008 C 
ATOM     13  C   UNL     1       2.484  -0.262   0.218  0.00  0.00    +0.037 C 
ATOM     14  C   UNL     1      -1.242  -0.754  -0.610  0.00  0.00    +0.008 C 
ATOM     15  N   UNL     1       5.283   0.174   0.753  0.00  0.00    -0.343 N 
ATOM     16  H   UNL     1       4.444  -0.537   0.722  0.00  0.00    +0.144 HD
ATOM     17  H   UNL     1       6.284  -0.169   1.055  0.00  0.00    +0.144 HD
ENDROOT
BRANCH   1  18
ATOM     18  S   UNL     1       7.318   4.730   0.200  0.00  0.00    -0.077 S 
BRANCH  18  19
ATOM     19  C   UNL     1       8.573   3.546   0.746  0.00  0.00    +0.173 C 
BRANCH  19  21
ATOM     20  N   UNL     1      10.987   3.562   1.287  0.00  0.00    -0.312 N 
ATOM     21  C   UNL     1       9.899   4.249   0.889  0.00  0.00    +0.224 C 
ATOM     22  O   UNL     1       9.986   5.434   0.645  0.00  0.00    -0.275 OA
ATOM     23  H   UNL     1      10.908   2.487   1.508  0.00  0.00    +0.149 HD
BRANCH  20  27
ATOM     24  N   UNL     1      15.154   4.181   1.203  0.00  0.00    +0.380 N 
ATOM     25  C   UNL     1      14.516   4.174   2.526  0.00  0.00    -0.077 C 
ATOM     26  C   UNL     1      13.150   3.490   2.430  0.00  0.00    +0.003 C 
ATOM     27  C   UNL     1      12.275   4.245   1.426  0.00  0.00    +0.069 C 
ATOM     28  C   UNL     1      12.985   4.281   0.069  0.00  0.00    +0.003 C 
ATOM     29  C   UNL     1      14.355   4.941   0.233  0.00  0.00    -0.077 C 
ATOM     30  H   UNL     1      15.208   3.141   0.851  0.00  0.00    -0.082 HD
BRANCH  24  32
ATOM     31  C   UNL     1      17.066   4.933  -0.130  0.00  0.00    -0.017 C 
ATOM     32  C   UNL     1      16.524   4.705   1.282  0.00  0.00    -0.082 C 
ENDBRANCH  24  32
ENDBRANCH  20  27
ENDBRANCH  19  21
ENDBRANCH  18  19
ENDBRANCH   1  18
TORSDOF 5
