REMARK  Name = ZINC35646078
REMARK  13 active torsions:
REMARK  status: ('A' for Active; 'I' for Inactive)
REMARK    1  A    between atoms: C_1  and  C_2
REMARK    2  A    between atoms: C_2  and  O_3
REMARK    3  A    between atoms: O_3  and  C_4
REMARK    4  A    between atoms: C_4  and  C_6
REMARK    5  A    between atoms: C_7  and  C_25
REMARK    6  A    between atoms: N_8  and  C_24
REMARK    7  A    between atoms: C_12  and  C_14
REMARK    8  A    between atoms: C_17  and  C_20
REMARK    9  A    between atoms: C_20  and  C_21
REMARK   10  A    between atoms: C_20  and  C_22
REMARK   11  A    between atoms: C_20  and  C_23
REMARK   12  A    between atoms: C_25  and  N_26
REMARK   13  A    between atoms: C_32  and  C_34
REMARK                            x       y       z     vdW  Elec       q    Type
REMARK                         _______ _______ _______ _____ _____    ______ ____
ROOT
ATOM      1  C   UNL     1      -2.882  -2.750   0.471  0.00  0.00    +0.080 C 
ATOM      2  C   UNL     1      -3.273  -3.990   0.108  0.00  0.00    +0.041 C 
ATOM      3  N   UNL     1      -4.591  -4.281  -0.101  0.00  0.00    -0.260 N 
ATOM      4  C   UNL     1      -5.579  -3.387   0.033  0.00  0.00    +0.307 C 
ATOM      5  O   UNL     1      -6.723  -3.741  -0.175  0.00  0.00    -0.252 OA
ATOM      6  N   UNL     1      -5.346  -2.109   0.389  0.00  0.00    -0.288 N 
ATOM      7  C   UNL     1      -3.956  -1.694   0.644  0.00  0.00    +0.144 C 
ATOM      8  C   UNL     1      -4.944  -5.648  -0.493  0.00  0.00    +0.139 C 
ATOM      9  H   UNL     1      -6.077  -1.477   0.480  0.00  0.00    +0.151 HD
ENDROOT
BRANCH   7  10
ATOM     10  C   UNL     1      -3.639  -0.552  -0.287  0.00  0.00    -0.022 A 
ATOM     11  C   UNL     1      -3.970  -0.639  -1.626  0.00  0.00    +0.006 A 
ATOM     12  C   UNL     1      -3.679   0.408  -2.479  0.00  0.00    +0.004 A 
ATOM     13  C   UNL     1      -3.058   1.544  -1.994  0.00  0.00    -0.042 A 
ATOM     14  C   UNL     1      -2.728   1.631  -0.654  0.00  0.00    +0.004 A 
ATOM     15  C   UNL     1      -3.022   0.585   0.200  0.00  0.00    +0.006 A 
BRANCH  13  16
ATOM     16  C   UNL     1      -2.740   2.686  -2.924  0.00  0.00    -0.013 C 
ATOM     17  C   UNL     1      -4.035   3.211  -3.548  0.00  0.00    +0.015 C 
ATOM     18  C   UNL     1      -2.059   3.809  -2.139  0.00  0.00    +0.015 C 
ATOM     19  C   UNL     1      -1.803   2.196  -4.031  0.00  0.00    +0.015 C 
ENDBRANCH  13  16
ENDBRANCH   7  10
BRANCH   1  20
ATOM     20  C   UNL     1      -1.518  -2.447   0.688  0.00  0.00    +0.339 C 
ATOM     21  O   UNL     1      -0.681  -3.329   0.625  0.00  0.00    -0.245 OA
BRANCH  20  22
ATOM     22  O   UNL     1      -1.143  -1.180   0.964  0.00  0.00    -0.462 OA
BRANCH  22  24
ATOM     23  C   UNL     1       0.481   0.536   1.471  0.00  0.00    +0.048 C 
ATOM     24  C   UNL     1       0.251  -0.947   1.172  0.00  0.00    +0.229 C 
ENDBRANCH  22  24
ENDBRANCH  20  22
ENDBRANCH   1  20
BRANCH   2  25
ATOM     25  C   UNL     1      -2.238  -5.071  -0.070  0.00  0.00    +0.136 C 
BRANCH  25  26
ATOM     26  N   UNL     1      -1.935  -5.679   1.232  0.00  0.00    -0.294 NA
ATOM     27  C   UNL     1      -3.127  -6.322   1.803  0.00  0.00    +0.104 C 
ATOM     28  C   UNL     1      -2.819  -6.782   3.232  0.00  0.00    +0.123 C 
ATOM     29  N   UNL     1      -1.613  -7.622   3.203  0.00  0.00    -0.295 N 
ATOM     30  C   UNL     1      -0.416  -7.099   2.526  0.00  0.00    +0.123 C 
ATOM     31  C   UNL     1      -0.818  -6.626   1.124  0.00  0.00    +0.104 C 
ATOM     32  C   UNL     1      -1.603  -8.839   3.782  0.00  0.00    +0.253 C 
ATOM     33  O   UNL     1      -2.633  -9.309   4.228  0.00  0.00    -0.269 OA
BRANCH  32  34
ATOM     34  C   UNL     1      -0.351  -9.597   3.875  0.00  0.00    +0.074 A 
ATOM     35  C   UNL     1      -0.151 -10.906   4.284  0.00  0.00    +0.021 A 
ATOM     36  C   UNL     1       1.151 -11.345   4.264  0.00  0.00    +0.008 A 
ATOM     37  C   UNL     1       2.127 -10.495   3.858  0.00  0.00    +0.046 A 
ATOM     38  S   UNL     1       1.308  -9.077   3.483  0.00  0.00    -0.092 S 
ENDBRANCH  32  34
ENDBRANCH  25  26
ENDBRANCH   2  25
TORSDOF 8
