REMARK  Name = ZINC15830681
REMARK  6 active torsions:
REMARK  status: ('A' for Active; 'I' for Inactive)
REMARK    1  A    between atoms: C_7  and  N_25
REMARK    2  A    between atoms: C_8  and  N_12
REMARK    3  A    between atoms: N_12  and  S_13
REMARK    4  A    between atoms: S_13  and  C_16
REMARK    5  A    between atoms: N_25  and  C_26
REMARK    6  A    between atoms: C_26  and  C_27
REMARK                            x       y       z     vdW  Elec       q    Type
REMARK                         _______ _______ _______ _____ _____    ______ ____
ROOT
ATOM      1  C   UNL     1      -6.457   1.752   3.495  0.00  0.00    +0.001 A 
ATOM      2  C   UNL     1      -6.852   0.602   2.827  0.00  0.00    +0.004 A 
ATOM      3  C   UNL     1      -5.923  -0.196   2.192  0.00  0.00    +0.047 A 
ATOM      4  C   UNL     1      -4.578   0.150   2.218  0.00  0.00    +0.141 A 
ATOM      5  C   UNL     1      -4.178   1.314   2.893  0.00  0.00    +0.040 A 
ATOM      6  C   UNL     1      -5.129   2.113   3.532  0.00  0.00    +0.013 A 
ATOM      7  C   UNL     1      -2.751   1.670   2.914  0.00  0.00    +0.068 A 
ATOM      8  C   UNL     1      -1.865   0.832   2.261  0.00  0.00    +0.154 A 
ATOM      9  C   UNL     1      -2.353  -0.312   1.603  0.00  0.00    +0.362 A 
ATOM     10  O   UNL     1      -1.567  -1.043   1.025  0.00  0.00    -0.243 OA
ATOM     11  O   UNL     1      -3.658  -0.623   1.601  0.00  0.00    -0.421 OA
ENDROOT
BRANCH   8  12
ATOM     12  N   UNL     1      -0.490   1.125   2.249  0.00  0.00    -0.208 N 
ATOM     13  H   UNL     1      -0.038   1.299   1.409  0.00  0.00    +0.174 HD
BRANCH  12  14
ATOM     14  S   UNL     1       0.359   1.171   3.671  0.00  0.00    +0.075 S 
ATOM     15  O   UNL     1      -0.419   1.933   4.583  0.00  0.00    -0.150 OA
ATOM     16  O   UNL     1       1.696   1.518   3.334  0.00  0.00    -0.150 OA
BRANCH  14  17
ATOM     17  C   UNL     1       0.409  -0.473   4.302  0.00  0.00    +0.137 A 
ATOM     18  C   UNL     1       1.583  -1.147   4.343  0.00  0.00    +0.031 A 
ATOM     19  C   UNL     1       1.659  -2.450   4.836  0.00  0.00    +0.004 A 
ATOM     20  C   UNL     1       0.563  -3.099   5.296  0.00  0.00    +0.031 A 
ATOM     21  C   UNL     1      -0.701  -2.454   5.283  0.00  0.00    +0.102 A 
ATOM     22  C   UNL     1      -0.780  -1.089   4.772  0.00  0.00    +0.126 A 
ATOM     23  N   UNL     1      -2.022  -0.610   4.814  0.00  0.00    -0.189 NA
ATOM     24  S   UNL     1      -2.909  -1.748   5.425  0.00  0.00    +0.117 S 
ATOM     25  N   UNL     1      -1.887  -2.908   5.684  0.00  0.00    -0.191 NA
ENDBRANCH  14  17
ENDBRANCH  12  14
ENDBRANCH   8  12
BRANCH   7  26
ATOM     26  N   UNL     1      -2.308   2.808   3.567  0.00  0.00    -0.341 N 
ATOM     27  H   UNL     1      -2.958   3.087   4.287  0.00  0.00    +0.146 HD
BRANCH  26  28
ATOM     28  C   UNL     1      -2.074   3.902   2.615  0.00  0.00    +0.105 C 
BRANCH  28  29
ATOM     29  C   UNL     1      -1.451   5.091   3.350  0.00  0.00    +0.006 C 
ATOM     30  C   UNL     1      -2.453   5.645   4.365  0.00  0.00    +0.005 C 
ATOM     31  C   UNL     1      -1.830   6.834   5.100  0.00  0.00    +0.000 C 
ATOM     32  C   UNL     1      -1.471   7.926   4.090  0.00  0.00    +0.000 C 
ATOM     33  C   UNL     1      -0.470   7.372   3.075  0.00  0.00    +0.000 C 
ATOM     34  C   UNL     1      -1.093   6.183   2.340  0.00  0.00    +0.005 C 
ENDBRANCH  28  29
ENDBRANCH  26  28
ENDBRANCH   7  26
TORSDOF 6
