REMARK  Name = ZINC02102579
REMARK  12 active torsions:
REMARK  status: ('A' for Active; 'I' for Inactive)
REMARK    1  A    between atoms: C_1  and  C_2
REMARK    2  A    between atoms: C_3  and  N_33
REMARK    3  A    between atoms: C_5  and  C_11
REMARK    4  A    between atoms: C_7  and  N_8
REMARK    5  A    between atoms: N_13  and  C_14
REMARK    6  A    between atoms: C_15  and  C_30
REMARK    7  A    between atoms: C_16  and  C_20
REMARK    8  A    between atoms: C_17  and  C_19
REMARK    9  A    between atoms: C_23  and  C_26
REMARK   10  A    between atoms: C_26  and  C_27
REMARK   11  A    between atoms: C_26  and  C_28
REMARK   12  A    between atoms: C_26  and  C_29
REMARK                            x       y       z     vdW  Elec       q    Type
REMARK                         _______ _______ _______ _____ _____    ______ ____
ROOT
ATOM      1  C   UNL     1      -1.948   2.497  -1.174  0.00  0.00    +0.085 A 
ATOM      2  C   UNL     1      -1.357   2.108   0.021  0.00  0.00    +0.073 A 
ATOM      3  C   UNL     1      -1.988   2.572   1.242  0.00  0.00    +0.006 A 
ATOM      4  C   UNL     1      -3.100   3.338   1.102  0.00  0.00    -0.003 A 
ATOM      5  S   UNL     1      -3.306   3.441  -0.664  0.00  0.00    -0.077 S 
ATOM      6  C   UNL     1      -3.954   3.953   2.180  0.00  0.00    +0.052 C 
ENDROOT
BRANCH   3   7
ATOM      7  C   UNL     1      -1.445   2.226   2.577  0.00  0.00    -0.016 A 
ATOM      8  C   UNL     1      -1.439   0.901   3.009  0.00  0.00    +0.009 A 
ATOM      9  C   UNL     1      -0.927   0.585   4.251  0.00  0.00    +0.005 A 
ATOM     10  C   UNL     1      -0.430   1.581   5.071  0.00  0.00    -0.042 A 
ATOM     11  C   UNL     1      -0.438   2.899   4.650  0.00  0.00    +0.005 A 
ATOM     12  C   UNL     1      -0.943   3.227   3.408  0.00  0.00    +0.009 A 
BRANCH  10  13
ATOM     13  C   UNL     1       0.122   1.230   6.428  0.00  0.00    -0.013 C 
ATOM     14  C   UNL     1      -0.678   1.960   7.509  0.00  0.00    +0.015 C 
ATOM     15  C   UNL     1       0.015  -0.280   6.647  0.00  0.00    +0.015 C 
ATOM     16  C   UNL     1       1.590   1.654   6.507  0.00  0.00    +0.015 C 
ENDBRANCH  10  13
ENDBRANCH   3   7
BRANCH   2  17
ATOM     17  C   UNL     1      -0.153   1.276   0.047  0.00  0.00    +0.244 C 
ATOM     18  O   UNL     1      -0.251   0.063   0.077  0.00  0.00    -0.270 OA
ATOM     19  N   UNL     1       1.065   1.853   0.032  0.00  0.00    -0.325 N 
ATOM     20  H   UNL     1       1.863   1.301   0.045  0.00  0.00    +0.145 HD
ATOM     21  H   UNL     1       1.144   2.819   0.008  0.00  0.00    +0.145 HD
ENDBRANCH   2  17
BRANCH   1  24
ATOM     22  C   UNL     1      -2.250   2.669  -3.515  0.00  0.00    +0.249 C 
ATOM     23  O   UNL     1      -3.237   3.353  -3.327  0.00  0.00    -0.270 OA
ATOM     24  N   UNL     1      -1.546   2.200  -2.466  0.00  0.00    -0.275 N 
ATOM     25  H   UNL     1      -0.759   1.653  -2.615  0.00  0.00    +0.156 HD
BRANCH  22  30
ATOM     26  C   UNL     1      -0.582   1.433  -8.882  0.00  0.00    +0.048 C 
ATOM     27  C   UNL     1      -1.019   1.756  -7.476  0.00  0.00    +0.010 A 
ATOM     28  C   UNL     1      -2.143   2.536  -7.266  0.00  0.00    +0.132 A 
ATOM     29  C   UNL     1      -2.549   2.836  -5.982  0.00  0.00    +0.046 A 
ATOM     30  C   UNL     1      -1.822   2.351  -4.893  0.00  0.00    +0.041 A 
ATOM     31  C   UNL     1      -0.686   1.570  -5.112  0.00  0.00    +0.046 A 
ATOM     32  C   UNL     1      -0.295   1.273  -6.401  0.00  0.00    +0.132 A 
BRANCH  32  33
ATOM     33  N   UNL     1       0.906   0.440  -6.635  0.00  0.00    +0.057 N 
ATOM     34  O   UNL     1       1.475  -0.087  -5.695  0.00  0.00    -0.126 OA
ATOM     35  O   UNL     1       1.326   0.280  -7.767  0.00  0.00    -0.126 OA
ENDBRANCH  32  33
BRANCH  28  36
ATOM     36  N   UNL     1      -2.912   3.049  -8.422  0.00  0.00    +0.057 N 
ATOM     37  O   UNL     1      -3.969   3.627  -8.242  0.00  0.00    -0.126 OA
ATOM     38  O   UNL     1      -2.489   2.892  -9.553  0.00  0.00    -0.126 OA
ENDBRANCH  28  36
ENDBRANCH  22  30
ENDBRANCH   1  24
TORSDOF 7
