REMARK  Name = ZINC05496135
REMARK  15 active torsions:
REMARK  status: ('A' for Active; 'I' for Inactive)
REMARK    1  A    between atoms: C_1  and  C_2
REMARK    2  A    between atoms: C_5  and  C_29
REMARK    3  A    between atoms: C_10  and  C_28
REMARK    4  A    between atoms: C_13  and  N_27
REMARK    5  A    between atoms: C_14  and  C_17
REMARK    6  A    between atoms: N_19  and  C_20
REMARK    7  A    between atoms: C_20  and  C_22
REMARK    8  A    between atoms: C_20  and  C_23
REMARK    9  A    between atoms: C_23  and  O_25
REMARK   10  A    between atoms: O_25  and  C_26
REMARK   11  A    between atoms: N_31  and  C_32
REMARK   12  A    between atoms: C_32  and  C_34
REMARK   13  A    between atoms: C_32  and  C_35
REMARK   14  A    between atoms: C_35  and  O_37
REMARK   15  A    between atoms: O_37  and  C_38
REMARK                            x       y       z     vdW  Elec       q    Type
REMARK                         _______ _______ _______ _____ _____    ______ ____
ROOT
ATOM      1  C   UNL     1      -2.523   1.245   0.044  0.00  0.00    +0.047 C 
ATOM      2  C   UNL     1      -1.233   2.024   0.030  0.00  0.00    -0.006 A 
ATOM      3  C   UNL     1      -1.265   3.402   0.033  0.00  0.00    +0.008 A 
ATOM      4  C   UNL     1      -0.089   4.139   0.026  0.00  0.00    +0.015 A 
ATOM      5  C   UNL     1       1.140   3.497   0.010  0.00  0.00    +0.066 A 
ATOM      6  C   UNL     1       1.189   2.079   0.002  0.00  0.00    +0.119 A 
ATOM      7  C   UNL     1      -0.016   1.347   0.009  0.00  0.00    +0.157 A 
ATOM      8  O   UNL     1       0.002  -0.004   0.002  0.00  0.00    -0.451 OA
ATOM      9  C   UNL     1       1.187  -0.649  -0.013  0.00  0.00    +0.161 A 
ATOM     10  C   UNL     1       1.240  -2.024  -0.022  0.00  0.00    +0.042 A 
ATOM     11  C   UNL     1       2.468  -2.694  -0.037  0.00  0.00    +0.207 A 
ATOM     12  O   UNL     1       2.488  -3.915  -0.044  0.00  0.00    -0.286 OA
ATOM     13  C   UNL     1       3.738  -1.947  -0.045  0.00  0.00    +0.087 A 
ATOM     14  C   UNL     1       3.724  -0.561  -0.038  0.00  0.00    +0.090 A 
ATOM     15  C   UNL     1       2.430   0.137  -0.021  0.00  0.00    +0.121 A 
ATOM     16  N   UNL     1       2.373   1.454  -0.014  0.00  0.00    -0.239 NA
ATOM     17  C   UNL     1      -0.041  -2.818  -0.013  0.00  0.00    +0.052 C 
ENDROOT
BRANCH  14  18
ATOM     18  C   UNL     1       4.983   0.199  -0.046  0.00  0.00    +0.249 C 
ATOM     19  O   UNL     1       5.514   0.508   1.004  0.00  0.00    -0.270 OA
ATOM     20  N   UNL     1       5.549   0.554  -1.217  0.00  0.00    -0.298 N 
ATOM     21  H   UNL     1       5.125   0.308  -2.054  0.00  0.00    +0.150 HD
BRANCH  20  22
ATOM     22  C   UNL     1       6.803   1.312  -1.225  0.00  0.00    +0.179 C 
ATOM     23  C   UNL     1       7.983   0.344  -1.116  0.00  0.00    +0.040 C 
BRANCH  22  24
ATOM     24  C   UNL     1       6.910   2.093  -2.509  0.00  0.00    +0.327 C 
ATOM     25  O   UNL     1       6.029   2.024  -3.333  0.00  0.00    -0.249 OA
BRANCH  24  26
ATOM     26  O   UNL     1       7.984   2.865  -2.737  0.00  0.00    -0.467 OA
ATOM     27  C   UNL     1       8.020   3.588  -3.996  0.00  0.00    +0.280 C 
ENDBRANCH  24  26
ENDBRANCH  22  24
ENDBRANCH  20  22
ENDBRANCH  14  18
BRANCH   5  28
ATOM     28  C   UNL     1       2.390   4.283   0.003  0.00  0.00    +0.247 C 
ATOM     29  O   UNL     1       3.465   3.716  -0.010  0.00  0.00    -0.270 OA
ATOM     30  N   UNL     1       2.338   5.630   0.011  0.00  0.00    -0.298 N 
ATOM     31  H   UNL     1       1.481   6.082   0.022  0.00  0.00    +0.150 HD
BRANCH  30  32
ATOM     32  C   UNL     1       3.578   6.410   0.004  0.00  0.00    +0.179 C 
ATOM     33  C   UNL     1       4.090   6.567   1.437  0.00  0.00    +0.040 C 
BRANCH  32  34
ATOM     34  C   UNL     1       3.312   7.771  -0.586  0.00  0.00    +0.327 C 
ATOM     35  O   UNL     1       2.201   8.059  -0.962  0.00  0.00    -0.249 OA
BRANCH  34  36
ATOM     36  O   UNL     1       4.310   8.662  -0.694  0.00  0.00    -0.467 OA
ATOM     37  C   UNL     1       3.980   9.953  -1.272  0.00  0.00    +0.280 C 
ENDBRANCH  34  36
ENDBRANCH  32  34
ENDBRANCH  30  32
ENDBRANCH   5  28
BRANCH  13  38
ATOM     38  N   UNL     1       4.936  -2.625  -0.061  0.00  0.00    -0.354 N 
ATOM     39  H   UNL     1       5.772  -2.132  -0.068  0.00  0.00    +0.142 HD
ATOM     40  H   UNL     1       4.945  -3.595  -0.067  0.00  0.00    +0.142 HD
ENDBRANCH  13  38
TORSDOF 9
