REMARK  Name = ZINC36586904
REMARK  13 active torsions:
REMARK  status: ('A' for Active; 'I' for Inactive)
REMARK    1  A    between atoms: C_1  and  C_2
REMARK    2  A    between atoms: C_2  and  C_3
REMARK    3  A    between atoms: C_2  and  C_4
REMARK    4  A    between atoms: C_2  and  N_5
REMARK    5  A    between atoms: N_5  and  C_6
REMARK    6  A    between atoms: C_6  and  C_8
REMARK    7  A    between atoms: C_6  and  C_21
REMARK    8  A    between atoms: C_8  and  C_9
REMARK    9  A    between atoms: C_8  and  C_15
REMARK   10  A    between atoms: N_23  and  C_24
REMARK   11  A    between atoms: C_30  and  C_32
REMARK   12  A    between atoms: C_36  and  O_39
REMARK   13  A    between atoms: C_37  and  O_38
REMARK                            x       y       z     vdW  Elec       q    Type
REMARK                         _______ _______ _______ _____ _____    ______ ____
ROOT
ATOM      1  C   UNL     1      -0.950   0.551  -2.811  0.00  0.00    +0.174 C 
ENDROOT
BRANCH   1   2
ATOM      2  C   UNL     1      -1.261   1.911  -2.242  0.00  0.00    +0.235 C 
ATOM      3  O   UNL     1      -1.559   2.026  -1.072  0.00  0.00    -0.274 OA
ATOM      4  N   UNL     1      -1.209   3.001  -3.034  0.00  0.00    -0.311 N 
ATOM      5  H   UNL     1      -0.971   2.909  -3.970  0.00  0.00    +0.149 HD
BRANCH   4   6
ATOM      6  C   UNL     1      -1.511   4.323  -2.481  0.00  0.00    +0.073 C 
ATOM      7  C   UNL     1      -3.023   4.555  -2.511  0.00  0.00    +0.022 C 
ATOM      8  C   UNL     1      -3.339   5.936  -1.934  0.00  0.00    +0.002 C 
ATOM      9  C   UNL     1      -2.641   7.011  -2.771  0.00  0.00    +0.000 C 
ATOM     10  C   UNL     1      -1.129   6.779  -2.741  0.00  0.00    +0.002 C 
ATOM     11  C   UNL     1      -0.814   5.397  -3.318  0.00  0.00    +0.022 C 
ENDBRANCH   4   6
ENDBRANCH   1   2
BRANCH   1  12
ATOM     12  N   UNL     1      -0.770  -0.406  -1.716  0.00  0.00    -0.280 N 
ATOM     13  C   UNL     1      -1.508  -1.533  -1.678  0.00  0.00    +0.251 C 
ATOM     14  O   UNL     1      -1.770  -2.124  -2.708  0.00  0.00    -0.270 OA
BRANCH  13  15
ATOM     15  C   UNL     1      -1.999  -2.051  -0.387  0.00  0.00    +0.082 A 
ATOM     16  C   UNL     1      -1.335  -1.724   0.799  0.00  0.00    +0.017 A 
ATOM     17  C   UNL     1      -1.796  -2.208   2.003  0.00  0.00    +0.005 A 
ATOM     18  C   UNL     1      -2.917  -3.020   2.048  0.00  0.00    +0.049 A 
ATOM     19  C   UNL     1      -3.586  -3.353   0.882  0.00  0.00    +0.159 A 
ATOM     20  C   UNL     1      -3.135  -2.867  -0.342  0.00  0.00    +0.171 A 
BRANCH  20  21
ATOM     21  O   UNL     1      -3.792  -3.186  -1.486  0.00  0.00    -0.503 OA
ATOM     22  H   UNL     1      -3.472  -3.994  -1.911  0.00  0.00    +0.292 HD
ENDBRANCH  20  21
BRANCH  19  23
ATOM     23  O   UNL     1      -4.686  -4.151   0.933  0.00  0.00    -0.503 OA
ATOM     24  H   UNL     1      -5.518  -3.668   1.039  0.00  0.00    +0.292 HD
ENDBRANCH  19  23
ENDBRANCH  13  15
BRANCH  12  26
ATOM     25  C   UNL     1       1.306   0.782  -1.208  0.00  0.00    +0.031 C 
ATOM     26  C   UNL     1       0.212  -0.139  -0.663  0.00  0.00    +0.030 C 
ATOM     27  C   UNL     1       0.838  -1.456  -0.202  0.00  0.00    +0.031 C 
ATOM     28  C   UNL     1      -0.481   0.539   0.521  0.00  0.00    +0.031 C 
ENDBRANCH  12  26
ENDBRANCH   1  12
BRANCH   1  29
ATOM     29  C   UNL     1       0.334   0.626  -3.639  0.00  0.00    +0.078 C 
BRANCH  29  30
ATOM     30  C   UNL     1       0.781  -0.768  -4.000  0.00  0.00    -0.038 A 
ATOM     31  C   UNL     1      -0.155  -1.729  -4.333  0.00  0.00    +0.004 A 
ATOM     32  C   UNL     1       0.255  -3.007  -4.664  0.00  0.00    +0.000 A 
ATOM     33  C   UNL     1       1.601  -3.323  -4.663  0.00  0.00    +0.000 A 
ATOM     34  C   UNL     1       2.536  -2.362  -4.331  0.00  0.00    +0.000 A 
ATOM     35  C   UNL     1       2.127  -1.082  -4.004  0.00  0.00    +0.004 A 
ENDBRANCH  29  30
BRANCH  29  36
ATOM     36  C   UNL     1       0.074   1.412  -4.898  0.00  0.00    -0.038 A 
ATOM     37  C   UNL     1      -0.936   1.025  -5.758  0.00  0.00    +0.004 A 
ATOM     38  C   UNL     1      -1.175   1.747  -6.913  0.00  0.00    +0.000 A 
ATOM     39  C   UNL     1      -0.403   2.855  -7.208  0.00  0.00    +0.000 A 
ATOM     40  C   UNL     1       0.607   3.242  -6.347  0.00  0.00    +0.000 A 
ATOM     41  C   UNL     1       0.843   2.523  -5.190  0.00  0.00    +0.004 A 
ENDBRANCH  29  36
ENDBRANCH   1  29
TORSDOF 10
