REMARK  Name = ZINC08789396
REMARK  8 active torsions:
REMARK  status: ('A' for Active; 'I' for Inactive)
REMARK    1  A    between atoms: C_1  and  C_2
REMARK    2  A    between atoms: C_2  and  O_3
REMARK    3  A    between atoms: O_3  and  C_4
REMARK    4  A    between atoms: C_4  and  C_6
REMARK    5  A    between atoms: C_9  and  N_12
REMARK    6  A    between atoms: C_17  and  C_35
REMARK    7  A    between atoms: C_28  and  C_33
REMARK    8  A    between atoms: C_35  and  C_36
REMARK                            x       y       z     vdW  Elec       q    Type
REMARK                         _______ _______ _______ _____ _____    ______ ____
ROOT
ATOM      1  N   UNL     1      -1.200  -0.718   0.010  0.00  0.00    -0.210 N 
ATOM      2  C   UNL     1      -2.393  -0.124   0.128  0.00  0.00    +0.228 C 
ATOM      3  O   UNL     1      -2.573   1.070   0.239  0.00  0.00    -0.275 OA
ATOM      4  C   UNL     1      -3.482  -1.173   0.099  0.00  0.00    +0.074 C 
ATOM      5  C   UNL     1      -4.133  -1.260   1.496  0.00  0.00    -0.049 C 
ATOM      6  C   UNL     1      -2.963  -3.267   1.245  0.00  0.00    +0.050 C 
ATOM      7  C   UNL     1      -2.693  -2.503  -0.056  0.00  0.00    +0.088 C 
ATOM      8  C   UNL     1      -1.251  -2.050  -0.095  0.00  0.00    +0.229 C 
ATOM      9  O   UNL     1      -0.290  -2.782  -0.205  0.00  0.00    -0.275 OA
ATOM     10  C   UNL     1      -3.067  -4.746   1.004  0.00  0.00    -0.027 A 
ATOM     11  C   UNL     1      -3.891  -5.523   0.220  0.00  0.00    +0.006 A 
ATOM     12  C   UNL     1      -3.740  -6.898   0.207  0.00  0.00    +0.020 A 
ATOM     13  C   UNL     1      -2.760  -7.491   0.985  0.00  0.00    +0.046 A 
ATOM     14  C   UNL     1      -1.933  -6.715   1.772  0.00  0.00    -0.011 A 
ATOM     15  C   UNL     1      -2.078  -5.330   1.789  0.00  0.00    +0.040 A 
ATOM     16  N   UNL     1      -1.375  -4.348   2.490  0.00  0.00    -0.286 N 
ATOM     17  C   UNL     1      -1.831  -3.109   2.223  0.00  0.00    +0.211 C 
ATOM     18  O   UNL     1      -1.411  -2.068   2.683  0.00  0.00    -0.277 OA
ATOM     19  C   UNL     1      -0.869  -7.370   2.615  0.00  0.00    +0.047 C 
ATOM     20 CL   UNL     1      -2.571  -9.216   0.970  0.00  0.00    -0.083 Cl
ATOM     21  H   UNL     1      -0.642  -4.535   3.097  0.00  0.00    +0.155 HD
ATOM     22  N   UNL     1      -4.193  -2.698   1.768  0.00  0.00    +0.394 N 
ATOM     23  H   UNL     1      -5.005  -3.115   1.297  0.00  0.00    -0.083 HD
ATOM     24  H   UNL     1      -4.260  -2.866   2.779  0.00  0.00    -0.083 HD
ENDROOT
BRANCH   1  28
ATOM     25  C   UNL     1       2.385   1.411  -0.013  0.00  0.00    +0.059 A 
ATOM     26  C   UNL     1       1.605   1.364   1.146  0.00  0.00    +0.017 A 
ATOM     27  C   UNL     1       0.422   0.660   1.150  0.00  0.00    +0.025 A 
ATOM     28  C   UNL     1       0.002  -0.004   0.002  0.00  0.00    +0.044 A 
ATOM     29  C   UNL     1       0.775   0.040  -1.153  0.00  0.00    +0.025 A 
ATOM     30  C   UNL     1       1.960   0.742  -1.165  0.00  0.00    +0.017 A 
BRANCH  25  31
ATOM     31  C   UNL     1       3.653   2.163  -0.021  0.00  0.00    +0.339 C 
ATOM     32  O   UNL     1       4.330   2.203  -1.030  0.00  0.00    -0.245 OA
BRANCH  31  33
ATOM     33  O   UNL     1       4.062   2.808   1.089  0.00  0.00    -0.461 OA
BRANCH  33  35
ATOM     34  C   UNL     1       5.615   4.191   2.356  0.00  0.00    +0.048 C 
ATOM     35  C   UNL     1       5.319   3.528   1.009  0.00  0.00    +0.229 C 
ENDBRANCH  33  35
ENDBRANCH  31  33
ENDBRANCH  25  31
ENDBRANCH   1  28
BRANCH   5  36
ATOM     36  C   UNL     1      -5.530  -0.637   1.472  0.00  0.00    +0.080 C 
BRANCH  36  37
ATOM     37  C   UNL     1      -6.097  -0.622   2.868  0.00  0.00    +0.209 C 
ATOM     38  O   UNL     1      -5.448  -1.066   3.791  0.00  0.00    -0.276 OA
ATOM     39  N   UNL     1      -7.326  -0.116   3.091  0.00  0.00    -0.329 N 
ATOM     40  H   UNL     1      -7.846   0.239   2.352  0.00  0.00    +0.145 HD
ATOM     41  H   UNL     1      -7.691  -0.106   3.989  0.00  0.00    +0.145 HD
ENDBRANCH  36  37
ENDBRANCH   5  36
TORSDOF 6
