REMARK  Name = ZINC39599075
REMARK  7 active torsions:
REMARK  status: ('A' for Active; 'I' for Inactive)
REMARK    1  A    between atoms: C_1  and  O_2
REMARK    2  A    between atoms: O_2  and  C_3
REMARK    3  A    between atoms: C_9  and  C_12
REMARK    4  A    between atoms: C_12  and  C_13
REMARK    5  A    between atoms: C_13  and  N_14
REMARK    6  A    between atoms: C_15  and  C_17
REMARK    7  A    between atoms: C_28  and  C_30
REMARK                            x       y       z     vdW  Elec       q    Type
REMARK                         _______ _______ _______ _____ _____    ______ ____
ROOT
ATOM      1  N   UNL     1      -1.517  -7.419   2.755  0.00  0.00    -0.315 N 
ATOM      2  C   UNL     1      -0.193  -7.260   2.565  0.00  0.00    +0.218 C 
ATOM      3  O   UNL     1       0.268  -6.150   2.405  0.00  0.00    -0.275 OA
ATOM      4  H   UNL     1      -1.886  -8.307   2.883  0.00  0.00    +0.149 HD
ENDROOT
BRANCH   2   5
ATOM      5  C   UNL     1       0.716  -8.463   2.550  0.00  0.00    +0.100 C 
ATOM      6  C   UNL     1       1.954  -8.190   1.667  0.00  0.00    +0.121 C 
ATOM      7  N   UNL     1       2.995  -7.726   2.615  0.00  0.00    -0.300 N 
ATOM      8  C   UNL     1       2.811  -8.582   3.812  0.00  0.00    +0.115 C 
ATOM      9  C   UNL     1       1.282  -8.723   3.955  0.00  0.00    -0.004 C 
ATOM     10  C   UNL     1       0.923 -10.132   4.417  0.00  0.00    -0.010 C 
ATOM     11  C   UNL     1       1.446 -10.347   5.840  0.00  0.00    -0.082 C 
ATOM     12  N   UNL     1       0.852  -9.350   6.738  0.00  0.00    +0.379 N 
ATOM     13  C   UNL     1       1.278  -8.002   6.342  0.00  0.00    -0.082 C 
ATOM     14  C   UNL     1       0.748  -7.688   4.941  0.00  0.00    -0.010 C 
ATOM     15  C   UNL     1       3.904  -6.748   2.431  0.00  0.00    +0.219 C 
ATOM     16  O   UNL     1       4.697  -6.484   3.309  0.00  0.00    -0.275 OA
ATOM     17  H   UNL     1      -0.154  -9.411   6.688  0.00  0.00    -0.086 HD
ATOM     18  H   UNL     1       1.151  -9.531   7.685  0.00  0.00    -0.086 HD
BRANCH  15  19
ATOM     19  C   UNL     1       3.935  -5.983   1.133  0.00  0.00    +0.075 C 
ATOM     20  C   UNL     1       4.702  -6.703   0.011  0.00  0.00    +0.013 C 
ATOM     21  C   UNL     1       5.266  -5.326  -0.378  0.00  0.00    +0.001 C 
ATOM     22  C   UNL     1       5.028  -4.903   1.081  0.00  0.00    +0.013 C 
ENDBRANCH  15  19
ENDBRANCH   2   5
BRANCH   1  23
ATOM     23  C   UNL     1      -2.401  -6.250   2.770  0.00  0.00    +0.109 C 
BRANCH  23  24
ATOM     24  C   UNL     1      -3.843  -6.704   3.002  0.00  0.00    +0.056 C 
BRANCH  24  31
ATOM     25  C   UNL     1      -5.997  -4.258  -0.384  0.00  0.00    +0.121 A 
ATOM     26  C   UNL     1      -6.752  -3.201   0.117  0.00  0.00    +0.047 A 
ATOM     27  C   UNL     1      -6.813  -2.962   1.472  0.00  0.00    +0.030 A 
ATOM     28  C   UNL     1      -6.115  -3.780   2.354  0.00  0.00    +0.047 A 
ATOM     29  N   UNL     1      -5.981  -3.795   3.726  0.00  0.00    -0.360 N 
ATOM     30  C   UNL     1      -5.165  -4.828   4.101  0.00  0.00    +0.087 A 
ATOM     31  C   UNL     1      -4.752  -5.502   3.017  0.00  0.00    -0.021 A 
ATOM     32  C   UNL     1      -5.351  -4.849   1.851  0.00  0.00    +0.006 A 
ATOM     33  C   UNL     1      -5.301  -5.085   0.476  0.00  0.00    +0.056 A 
ATOM     34  H   UNL     1      -6.401  -3.167   4.334  0.00  0.00    +0.165 HD
BRANCH  25  36
ATOM     35  C   UNL     1      -6.696  -3.591  -2.557  0.00  0.00    +0.277 C 
ATOM     36  O   UNL     1      -5.949  -4.480  -1.725  0.00  0.00    -0.495 OA
ENDBRANCH  25  36
ENDBRANCH  24  31
ENDBRANCH  23  24
ENDBRANCH   1  23
TORSDOF 6
