REMARK  Name = ZINC08413106
REMARK  7 active torsions:
REMARK  status: ('A' for Active; 'I' for Inactive)
REMARK    1  A    between atoms: C_1  and  C_2
REMARK    2  A    between atoms: C_3  and  C_24
REMARK    3  A    between atoms: C_4  and  C_14
REMARK    4  A    between atoms: C_16  and  O_22
REMARK    5  A    between atoms: C_19  and  O_20
REMARK    6  A    between atoms: O_20  and  C_21
REMARK    7  A    between atoms: O_22  and  C_23
REMARK                            x       y       z     vdW  Elec       q    Type
REMARK                         _______ _______ _______ _____ _____    ______ ____
ROOT
ATOM      1  C   UNL     1       0.025   4.116  -0.192  0.00  0.00    +0.061 C 
ATOM      2  C   UNL     1      -1.275   3.361  -0.091  0.00  0.00    +0.014 C 
ATOM      3  C   UNL     1      -1.261   2.021   0.011  0.00  0.00    +0.043 C 
ATOM      4  C   UNL     1      -2.536   1.235   0.115  0.00  0.00    +0.094 C 
ATOM      5  C   UNL     1      -3.718   2.058  -0.326  0.00  0.00    +0.024 C 
ATOM      6  C   UNL     1      -3.631   3.403  -0.408  0.00  0.00    +0.015 C 
ATOM      7  N   UNL     1      -2.460   4.043  -0.103  0.00  0.00    -0.321 N 
ATOM      8  C   UNL     1      -4.817   4.234  -0.831  0.00  0.00    +0.051 C 
ATOM      9  C   UNL     1      -5.684   3.432  -1.804  0.00  0.00    +0.014 C 
ATOM     10  C   UNL     1      -6.128   2.141  -1.110  0.00  0.00    +0.080 C 
ATOM     11  C   UNL     1      -4.910   1.387  -0.650  0.00  0.00    +0.162 C 
ATOM     12  O   UNL     1      -4.957   0.177  -0.558  0.00  0.00    -0.292 OA
ATOM     13  H   UNL     1      -2.478   5.117   0.132  0.00  0.00    +0.152 HD
ENDROOT
BRANCH   3  14
ATOM     14  C   UNL     1      -0.021   1.337   0.014  0.00  0.00    +0.248 C 
ATOM     15  O   UNL     1       0.398   0.831  -1.011  0.00  0.00    -0.270 OA
ATOM     16  N   UNL     1       0.693   1.242   1.154  0.00  0.00    -0.267 N 
ATOM     17  C   UNL     1       1.852   0.469   1.187  0.00  0.00    +0.125 A 
ATOM     18  C   UNL     1       2.522   0.284   2.391  0.00  0.00    +0.045 A 
ATOM     19  C   UNL     1       3.672  -0.485   2.410  0.00  0.00    +0.020 A 
ATOM     20  C   UNL     1       4.114  -1.045   1.218  0.00  0.00    +0.036 A 
ATOM     21  C   UNL     1       3.398  -0.820   0.059  0.00  0.00    +0.128 A 
ATOM     22  N   UNL     1       2.302  -0.085   0.072  0.00  0.00    -0.239 NA
ATOM     23 BR   UNL     1       5.679  -2.105   1.184  0.00  0.00    -0.049 Br
ATOM     24  H   UNL     1       0.360   1.773   2.057  0.00  0.00    +0.157 HD
ENDBRANCH   3  14
BRANCH   4  25
ATOM     25  C   UNL     1      -2.740   0.811   1.546  0.00  0.00    +0.010 A 
ATOM     26  C   UNL     1      -2.843   1.764   2.541  0.00  0.00    +0.053 A 
ATOM     27  C   UNL     1      -3.036   1.373   3.858  0.00  0.00    +0.121 A 
ATOM     28  C   UNL     1      -3.116   0.026   4.177  0.00  0.00    +0.049 A 
ATOM     29  C   UNL     1      -3.007  -0.927   3.183  0.00  0.00    +0.049 A 
ATOM     30  C   UNL     1      -2.820  -0.536   1.865  0.00  0.00    +0.124 A 
BRANCH  30  31
ATOM     31  O   UNL     1      -2.713  -1.474   0.886  0.00  0.00    -0.495 OA
ATOM     32  C   UNL     1      -2.804  -2.843   1.287  0.00  0.00    +0.277 C 
ENDBRANCH  30  31
BRANCH  27  33
ATOM     33  O   UNL     1      -3.144   2.311   4.836  0.00  0.00    -0.495 OA
ATOM     34  C   UNL     1      -3.337   1.838   6.171  0.00  0.00    +0.277 C 
ENDBRANCH  27  33
ENDBRANCH   4  25
TORSDOF 4
