REMARK  Name = ZINC02265142
REMARK  8 active torsions:
REMARK  status: ('A' for Active; 'I' for Inactive)
REMARK    1  A    between atoms: C_1  and  C_2
REMARK    2  A    between atoms: C_2  and  O_3
REMARK    3  A    between atoms: O_3  and  C_4
REMARK    4  A    between atoms: C_7  and  N_10
REMARK    5  A    between atoms: C_11  and  N_32
REMARK    6  A    between atoms: C_12  and  C_23
REMARK    7  A    between atoms: N_25  and  C_26
REMARK    8  A    between atoms: C_26  and  C_27
REMARK                            x       y       z     vdW  Elec       q    Type
REMARK                         _______ _______ _______ _____ _____    ______ ____
ROOT
ATOM      1  N   UNL     1      -3.160   2.975  -0.699  0.00  0.00    -0.280 N 
ATOM      2  C   UNL     1      -2.018   2.344  -1.090  0.00  0.00    +0.117 A 
ATOM      3  C   UNL     1      -1.290   1.927   0.019  0.00  0.00    +0.104 A 
ATOM      4  C   UNL     1      -2.053   2.350   1.204  0.00  0.00    +0.123 A 
ATOM      5  C   UNL     1      -3.246   3.020   0.680  0.00  0.00    +0.166 A 
ATOM      6  N   UNL     1      -4.133   3.512   1.518  0.00  0.00    -0.225 NA
ATOM      7  C   UNL     1      -3.938   3.398   2.838  0.00  0.00    +0.092 A 
ATOM      8  C   UNL     1      -4.881   3.922   3.741  0.00  0.00    +0.030 A 
ATOM      9  C   UNL     1      -4.675   3.802   5.081  0.00  0.00    +0.002 A 
ATOM     10  C   UNL     1      -3.538   3.166   5.577  0.00  0.00    +0.002 A 
ATOM     11  C   UNL     1      -2.605   2.647   4.735  0.00  0.00    +0.030 A 
ATOM     12  C   UNL     1      -2.783   2.751   3.343  0.00  0.00    +0.090 A 
ATOM     13  N   UNL     1      -1.870   2.244   2.505  0.00  0.00    -0.241 NA
ENDROOT
BRANCH   1  17
ATOM     14  C   UNL     1      -6.001   4.572  -3.304  0.00  0.00    +0.121 A 
ATOM     15  C   UNL     1      -4.720   5.102  -3.265  0.00  0.00    +0.047 A 
ATOM     16  C   UNL     1      -3.779   4.574  -2.402  0.00  0.00    +0.030 A 
ATOM     17  C   UNL     1      -4.116   3.512  -1.575  0.00  0.00    +0.050 A 
ATOM     18  C   UNL     1      -5.396   2.977  -1.618  0.00  0.00    +0.030 A 
ATOM     19  C   UNL     1      -6.337   3.510  -2.477  0.00  0.00    +0.047 A 
BRANCH  14  20
ATOM     20  O   UNL     1      -6.926   5.092  -4.152  0.00  0.00    -0.492 OA
BRANCH  20  22
ATOM     21  C   UNL     1      -9.123   5.210  -5.153  0.00  0.00    +0.048 C 
ATOM     22  C   UNL     1      -8.226   4.497  -4.140  0.00  0.00    +0.225 C 
ENDBRANCH  20  22
ENDBRANCH  14  20
ENDBRANCH   1  17
BRANCH   3  23
ATOM     23  C   UNL     1      -0.014   1.214   0.009  0.00  0.00    +0.250 C 
ATOM     24  O   UNL     1       0.002  -0.004   0.002  0.00  0.00    -0.270 OA
ATOM     25  N   UNL     1       1.143   1.903   0.001  0.00  0.00    -0.307 N 
ATOM     26  H   UNL     1       1.130   2.873   0.007  0.00  0.00    +0.149 HD
BRANCH  25  27
ATOM     27  C   UNL     1       2.422   1.188  -0.015  0.00  0.00    +0.147 C 
BRANCH  27  28
ATOM     28  C   UNL     1       3.554   2.183  -0.020  0.00  0.00    +0.007 A 
ATOM     29  C   UNL     1       4.202   2.745   1.030  0.00  0.00    +0.013 A 
ATOM     30  C   UNL     1       5.225   3.641   0.784  0.00  0.00    +0.008 A 
ATOM     31  C   UNL     1       5.544   3.939  -0.499  0.00  0.00    +0.045 A 
ATOM     32  S   UNL     1       4.385   2.933  -1.411  0.00  0.00    -0.100 S 
ENDBRANCH  27  28
ENDBRANCH  25  27
ENDBRANCH   3  23
BRANCH   2  33
ATOM     33  N   UNL     1      -1.641   2.146  -2.393  0.00  0.00    -0.343 N 
ATOM     34  H   UNL     1      -0.812   1.684  -2.593  0.00  0.00    +0.144 HD
ATOM     35  H   UNL     1      -2.204   2.468  -3.115  0.00  0.00    +0.144 HD
ENDBRANCH   2  33
TORSDOF 7
