REMARK  Name = ZINC36205855
REMARK  14 active torsions:
REMARK  status: ('A' for Active; 'I' for Inactive)
REMARK    1  A    between atoms: C_1  and  C_2
REMARK    2  A    between atoms: C_7  and  C_8
REMARK    3  A    between atoms: C_17  and  C_19
REMARK    4  A    between atoms: C_19  and  N_20
REMARK    5  A    between atoms: N_20  and  C_21
REMARK    6  A    between atoms: N_20  and  C_26
REMARK    7  A    between atoms: C_21  and  C_22
REMARK    8  A    between atoms: C_22  and  C_23
REMARK    9  A    between atoms: C_23  and  C_24
REMARK   10  A    between atoms: C_23  and  C_25
REMARK   11  A    between atoms: C_26  and  C_27
REMARK   12  A    between atoms: C_27  and  C_28
REMARK   13  A    between atoms: C_27  and  C_29
REMARK   14  A    between atoms: C_27  and  O_31
REMARK                            x       y       z     vdW  Elec       q    Type
REMARK                         _______ _______ _______ _____ _____    ______ ____
ROOT
ATOM      1  C   UNL     1      -4.550   8.855   2.670  0.00  0.00    +0.004 A 
ATOM      2  C   UNL     1      -3.958   9.822   3.411  0.00  0.00    +0.056 A 
ATOM      3  S   UNL     1      -3.314   8.932   4.814  0.00  0.00    -0.076 S 
ATOM      4  C   UNL     1      -3.849   7.297   4.378  0.00  0.00    +0.116 A 
ATOM      5  C   UNL     1      -4.519   7.481   3.157  0.00  0.00    +0.080 A 
ATOM      6  C   UNL     1      -5.069   6.298   2.568  0.00  0.00    +0.260 A 
ATOM      7  O   UNL     1      -5.664   6.355   1.506  0.00  0.00    -0.267 OA
ATOM      8  N   UNL     1      -4.917   5.121   3.204  0.00  0.00    -0.312 N 
ATOM      9  H   UNL     1      -5.288   4.317   2.809  0.00  0.00    +0.170 HD
ATOM     10  C   UNL     1      -4.256   5.039   4.386  0.00  0.00    +0.094 A 
ATOM     11  N   UNL     1      -3.736   6.099   4.945  0.00  0.00    -0.229 NA
ENDROOT
BRANCH   1  18
ATOM     12  C   UNL     1      -7.411   8.507   2.421  0.00  0.00    +0.044 C 
ATOM     13  C   UNL     1      -6.599   9.023   1.261  0.00  0.00    -0.043 A 
ATOM     14  C   UNL     1      -7.219   9.340   0.069  0.00  0.00    +0.004 A 
ATOM     15  C   UNL     1      -6.476   9.814  -0.996  0.00  0.00    +0.000 A 
ATOM     16  C   UNL     1      -5.107   9.973  -0.875  0.00  0.00    +0.001 A 
ATOM     17  C   UNL     1      -4.475   9.659   0.311  0.00  0.00    +0.009 A 
ATOM     18  C   UNL     1      -5.221   9.187   1.391  0.00  0.00    -0.014 A 
ENDBRANCH   1  18
BRANCH  10  19
ATOM     19  C   UNL     1      -4.111   3.700   5.062  0.00  0.00    -0.003 C 
BRANCH  19  20
ATOM     20  N   UNL     1      -3.485   3.880   6.379  0.00  0.00    +0.386 N 
ATOM     21  H   UNL     1      -2.615   4.379   6.272  0.00  0.00    -0.081 HD
BRANCH  20  22
ATOM     22  C   UNL     1      -4.386   4.649   7.248  0.00  0.00    -0.078 C 
BRANCH  22  23
ATOM     23  C   UNL     1      -3.685   4.944   8.575  0.00  0.00    -0.016 C 
BRANCH  23  24
ATOM     24  C   UNL     1      -4.624   5.745   9.480  0.00  0.00    -0.019 C 
ATOM     25  C   UNL     1      -3.972   5.933  10.852  0.00  0.00    +0.007 C 
ATOM     26  C   UNL     1      -4.894   7.113   8.852  0.00  0.00    +0.007 C 
ENDBRANCH  23  24
ENDBRANCH  22  23
ENDBRANCH  20  22
BRANCH  20  27
ATOM     27  C   UNL     1      -3.225   2.567   6.982  0.00  0.00    -0.039 C 
BRANCH  27  28
ATOM     28  C   UNL     1      -2.154   1.835   6.171  0.00  0.00    +0.067 C 
ATOM     29  C   UNL     1      -0.939   2.748   5.991  0.00  0.00    +0.044 C 
BRANCH  28  30
ATOM     30  C   UNL     1      -1.738   0.584   6.900  0.00  0.00    -0.003 C 
ATOM     31  C   UNL     1      -1.891  -0.587   6.332  0.00  0.00    +0.006 C 
ENDBRANCH  28  30
BRANCH  28  32
ATOM     32  O   UNL     1      -2.682   1.487   4.889  0.00  0.00    -0.387 OA
ATOM     33  H   UNL     1      -3.503   0.978   4.927  0.00  0.00    +0.210 HD
ENDBRANCH  28  32
ENDBRANCH  27  28
ENDBRANCH  20  27
ENDBRANCH  19  20
ENDBRANCH  10  19
TORSDOF 10
