REMARK  Name = ZINC62825588
REMARK  4 active torsions:
REMARK  status: ('A' for Active; 'I' for Inactive)
REMARK    1  A    between atoms: C_5  and  N_10
REMARK    2  A    between atoms: C_6  and  C_7
REMARK    3  A    between atoms: C_17  and  C_19
REMARK    4  A    between atoms: C_19  and  O_20
REMARK                            x       y       z     vdW  Elec       q    Type
REMARK                         _______ _______ _______ _____ _____    ______ ____
ROOT
ATOM      1  N   UNL     1       1.245  -2.074  -0.048  0.00  0.00    -0.268 N 
ATOM      2  C   UNL     1       2.408  -2.732   0.125  0.00  0.00    +0.307 C 
ATOM      3  O   UNL     1       3.422  -2.115   0.391  0.00  0.00    -0.252 OA
ATOM      4  N   UNL     1       2.448  -4.074   0.004  0.00  0.00    -0.280 N 
ATOM      5  C   UNL     1       1.301  -4.941  -0.319  0.00  0.00    +0.110 C 
ATOM      6  C   UNL     1       1.929  -6.214  -0.939  0.00  0.00    +0.021 C 
ATOM      7  C   UNL     1       3.215  -6.374  -0.086  0.00  0.00    +0.026 C 
ATOM      8  C   UNL     1       3.643  -4.914   0.167  0.00  0.00    +0.103 C 
ATOM      9  H   UNL     1       0.427  -2.569  -0.212  0.00  0.00    +0.156 HD
ENDROOT
BRANCH   1  14
ATOM     10  C   UNL     1       0.190   1.372   0.775  0.00  0.00    +0.032 A 
ATOM     11  C   UNL     1       1.162   2.094   0.116  0.00  0.00    +0.020 A 
ATOM     12  C   UNL     1       2.158   1.441  -0.595  0.00  0.00    +0.032 A 
ATOM     13  C   UNL     1       2.188   0.061  -0.651  0.00  0.00    +0.041 A 
ATOM     14  C   UNL     1       1.217  -0.683   0.007  0.00  0.00    +0.063 A 
ATOM     15  C   UNL     1       0.207  -0.026   0.728  0.00  0.00    +0.086 A 
ATOM     16 BR   UNL     1       3.552  -0.815  -1.624  0.00  0.00    -0.048 Br
ATOM     17 BR   UNL     1       1.137   3.983   0.181  0.00  0.00    -0.050 Br
BRANCH  15  18
ATOM     18  C   UNL     1      -0.827  -0.802   1.430  0.00  0.00    +0.388 C 
ATOM     19  O   UNL     1      -1.764  -0.228   1.968  0.00  0.00    -0.241 OA
ATOM     20  O   UNL     1      -0.750  -2.022   1.476  0.00  0.00    -0.241 OA
ENDBRANCH  15  18
ENDBRANCH   1  14
BRANCH   8  21
ATOM     21  C   UNL     1       4.189  -4.773   1.590  0.00  0.00    +0.178 C 
BRANCH  21  22
ATOM     22  O   UNL     1       4.673  -3.443   1.785  0.00  0.00    -0.393 OA
ATOM     23  H   UNL     1       5.034  -3.282   2.667  0.00  0.00    +0.209 HD
ENDBRANCH  21  22
ENDBRANCH   8  21
TORSDOF 4
