REMARK  Name = ZINC63642117
REMARK  14 active torsions:
REMARK  status: ('A' for Active; 'I' for Inactive)
REMARK    1  A    between atoms: C_1  and  C_2
REMARK    2  A    between atoms: C_2  and  C_3
REMARK    3  A    between atoms: C_3  and  C_4
REMARK    4  A    between atoms: N_6  and  C_7
REMARK    5  A    between atoms: C_11  and  N_14
REMARK    6  A    between atoms: C_12  and  C_13
REMARK    7  A    between atoms: N_14  and  C_15
REMARK    8  A    between atoms: C_15  and  C_16
REMARK    9  A    between atoms: C_15  and  C_17
REMARK   10  A    between atoms: N_19  and  C_20
REMARK   11  A    between atoms: C_21  and  C_28
REMARK   12  A    between atoms: C_25  and  C_26
REMARK   13  A    between atoms: C_26  and  C_27
REMARK   14  A    between atoms: C_28  and  C_29
REMARK                            x       y       z     vdW  Elec       q    Type
REMARK                         _______ _______ _______ _____ _____    ______ ____
ROOT
ATOM      1  N   UNL     1       1.357  -7.997   3.762  0.00  0.00    -0.333 N 
ATOM      2  H   UNL     1       1.030  -7.875   4.667  0.00  0.00    +0.147 HD
ENDROOT
BRANCH   1   7
ATOM      3  C   UNL     1      -0.294  -5.199   2.036  0.00  0.00    +0.038 A 
ATOM      4  C   UNL     1       0.178  -5.377   0.742  0.00  0.00    +0.024 A 
ATOM      5  C   UNL     1       1.036  -6.421   0.456  0.00  0.00    +0.004 A 
ATOM      6  C   UNL     1       1.429  -7.291   1.455  0.00  0.00    +0.023 A 
ATOM      7  C   UNL     1       0.961  -7.117   2.752  0.00  0.00    +0.032 A 
ATOM      8  C   UNL     1       0.102  -6.066   3.043  0.00  0.00    -0.008 A 
ATOM      9  C   UNL     1      -0.403  -5.872   4.450  0.00  0.00    +0.047 C 
BRANCH   3  12
ATOM     10  C   UNL     1      -1.177  -3.046   1.540  0.00  0.00    +0.217 C 
ATOM     11  O   UNL     1      -0.367  -2.932   0.644  0.00  0.00    -0.275 OA
ATOM     12  N   UNL     1      -1.163  -4.141   2.325  0.00  0.00    -0.285 N 
ATOM     13  H   UNL     1      -1.757  -4.196   3.090  0.00  0.00    +0.155 HD
BRANCH  10  14
ATOM     14  C   UNL     1      -2.197  -1.962   1.775  0.00  0.00    +0.096 C 
BRANCH  14  16
ATOM     15  C   UNL     1      -3.031   0.259   0.993  0.00  0.00    +0.004 C 
ATOM     16  C   UNL     1      -1.995  -0.841   0.754  0.00  0.00    +0.006 C 
ENDBRANCH  14  16
ENDBRANCH  10  14
ENDBRANCH   3  12
ENDBRANCH   1   7
BRANCH   1  17
ATOM     17  C   UNL     1       2.268  -9.103   3.454  0.00  0.00    +0.154 C 
ATOM     18  C   UNL     1       1.463 -10.296   2.933  0.00  0.00    +0.038 C 
BRANCH  17  19
ATOM     19  C   UNL     1       3.010  -9.504   4.702  0.00  0.00    +0.237 C 
ATOM     20  O   UNL     1       2.800  -8.924   5.746  0.00  0.00    -0.273 OA
ATOM     21  N   UNL     1       3.909 -10.508   4.659  0.00  0.00    -0.284 N 
ATOM     22  H   UNL     1       4.133 -10.922   3.811  0.00  0.00    +0.155 HD
BRANCH  21  23
ATOM     23  C   UNL     1       4.518 -10.954   5.837  0.00  0.00    +0.040 A 
ATOM     24  C   UNL     1       5.313 -10.090   6.579  0.00  0.00    -0.026 A 
ATOM     25  C   UNL     1       5.913 -10.533   7.741  0.00  0.00    +0.005 A 
ATOM     26  C   UNL     1       5.722 -11.835   8.167  0.00  0.00    +0.001 A 
ATOM     27  C   UNL     1       4.931 -12.697   7.430  0.00  0.00    +0.005 A 
ATOM     28  C   UNL     1       4.324 -12.259   6.270  0.00  0.00    -0.026 A 
BRANCH  28  29
ATOM     29  C   UNL     1       3.456 -13.198   5.472  0.00  0.00    +0.033 C 
ATOM     30  C   UNL     1       4.290 -13.845   4.364  0.00  0.00    +0.009 C 
ENDBRANCH  28  29
BRANCH  24  31
ATOM     31  C   UNL     1       5.521  -8.671   6.116  0.00  0.00    +0.033 C 
ATOM     32  C   UNL     1       4.807  -7.713   7.070  0.00  0.00    +0.009 C 
ENDBRANCH  24  31
ENDBRANCH  21  23
ENDBRANCH  17  19
ENDBRANCH   1  17
TORSDOF 9
