REMARK  Name = ZINC39601701
REMARK  10 active torsions:
REMARK  status: ('A' for Active; 'I' for Inactive)
REMARK    1  A    between atoms: C_1  and  C_2
REMARK    2  A    between atoms: C_3  and  C_14
REMARK    3  A    between atoms: C_4  and  C_7
REMARK    4  A    between atoms: C_18  and  C_27
REMARK    5  A    between atoms: N_29  and  C_30
REMARK    6  A    between atoms: C_30  and  C_31
REMARK    7  A    between atoms: C_31  and  O_32
REMARK    8  A    between atoms: O_32  and  C_33
REMARK    9  A    between atoms: C_33  and  C_34
REMARK   10  A    between atoms: C_34  and  O_35
REMARK                            x       y       z     vdW  Elec       q    Type
REMARK                         _______ _______ _______ _____ _____    ______ ____
ROOT
ATOM      1  C   UNL     1      -2.663  -0.382  -0.022  0.00  0.00    +0.252 C 
ATOM      2  O   UNL     1      -3.260  -0.141  -1.054  0.00  0.00    -0.270 OA
ATOM      3  N   UNL     1      -3.261  -0.170   1.167  0.00  0.00    -0.296 N 
ATOM      4  C   UNL     1      -2.699  -0.395   2.520  0.00  0.00    +0.121 C 
ATOM      5  C   UNL     1      -3.209   0.798   3.358  0.00  0.00    +0.100 C 
ATOM      6  C   UNL     1      -4.477   1.276   2.631  0.00  0.00    -0.004 C 
ATOM      7  C   UNL     1      -4.628   0.347   1.418  0.00  0.00    +0.115 C 
ATOM      8  C   UNL     1      -4.308   2.718   2.166  0.00  0.00    -0.010 C 
ATOM      9  C   UNL     1      -5.602   3.189   1.496  0.00  0.00    -0.082 C 
ATOM     10  N   UNL     1      -6.713   3.089   2.450  0.00  0.00    +0.379 N 
ATOM     11  C   UNL     1      -6.929   1.685   2.822  0.00  0.00    -0.082 C 
ATOM     12  C   UNL     1      -5.690   1.151   3.548  0.00  0.00    -0.010 C 
ATOM     13  H   UNL     1      -6.494   3.624   3.277  0.00  0.00    -0.086 HD
ATOM     14  H   UNL     1      -7.552   3.456   2.028  0.00  0.00    -0.086 HD
ENDROOT
BRANCH   1  17
ATOM     15  C   UNL     1      -0.051   1.334  -0.051  0.00  0.00    +0.090 C 
ATOM     16  C   UNL     1      -0.138  -0.170  -0.084  0.00  0.00    +0.147 A 
ATOM     17  C   UNL     1      -1.287  -0.904  -0.071  0.00  0.00    +0.106 A 
ATOM     18  C   UNL     1      -0.888  -2.319  -0.115  0.00  0.00    +0.127 A 
ATOM     19  N   UNL     1       0.421  -2.344  -0.150  0.00  0.00    -0.077 NA
ATOM     20  O   UNL     1       0.897  -1.013  -0.137  0.00  0.00    -0.359 OA
BRANCH  18  21
ATOM     21  C   UNL     1      -1.794  -3.493  -0.119  0.00  0.00    +0.023 A 
ATOM     22  C   UNL     1      -3.175  -3.311  -0.084  0.00  0.00    +0.011 A 
ATOM     23  C   UNL     1      -4.013  -4.407  -0.088  0.00  0.00    +0.001 A 
ATOM     24  C   UNL     1      -3.486  -5.686  -0.126  0.00  0.00    +0.001 A 
ATOM     25  C   UNL     1      -2.116  -5.874  -0.161  0.00  0.00    +0.020 A 
ATOM     26  C   UNL     1      -1.267  -4.784  -0.164  0.00  0.00    +0.050 A 
ATOM     27 CL   UNL     1       0.452  -5.021  -0.215  0.00  0.00    -0.083 Cl
ENDBRANCH  18  21
ENDBRANCH   1  17
BRANCH   5  28
ATOM     28  C   UNL     1      -3.541   0.352   4.759  0.00  0.00    +0.218 C 
ATOM     29  O   UNL     1      -3.932  -0.779   4.958  0.00  0.00    -0.275 OA
ATOM     30  N   UNL     1      -3.403   1.209   5.790  0.00  0.00    -0.313 N 
ATOM     31  H   UNL     1      -3.091   2.113   5.630  0.00  0.00    +0.149 HD
BRANCH  30  32
ATOM     32  C   UNL     1      -3.726   0.775   7.152  0.00  0.00    +0.132 C 
BRANCH  32  33
ATOM     33  C   UNL     1      -3.485   1.930   8.126  0.00  0.00    +0.178 C 
BRANCH  33  34
ATOM     34  O   UNL     1      -4.398   2.992   7.841  0.00  0.00    -0.376 OA
BRANCH  34  35
ATOM     35  C   UNL     1      -4.256   4.126   8.698  0.00  0.00    +0.187 C 
BRANCH  35  36
ATOM     36  C   UNL     1      -5.278   5.194   8.304  0.00  0.00    +0.184 C 
BRANCH  36  37
ATOM     37  O   UNL     1      -6.598   4.702   8.544  0.00  0.00    -0.393 OA
ATOM     38  H   UNL     1      -7.299   5.328   8.316  0.00  0.00    +0.209 HD
ENDBRANCH  36  37
ENDBRANCH  35  36
ENDBRANCH  34  35
ENDBRANCH  33  34
ENDBRANCH  32  33
ENDBRANCH  30  32
ENDBRANCH   5  28
TORSDOF 9
