REMARK  Name = ZINC02521815
REMARK  6 active torsions:
REMARK  status: ('A' for Active; 'I' for Inactive)
REMARK    1  A    between atoms: C_3  and  N_9
REMARK    2  A    between atoms: C_10  and  C_12
REMARK    3  A    between atoms: N_14  and  N_15
REMARK    4  A    between atoms: C_16  and  C_17
REMARK    5  A    between atoms: C_20  and  O_24
REMARK    6  A    between atoms: C_22  and  O_23
REMARK                            x       y       z     vdW  Elec       q    Type
REMARK                         _______ _______ _______ _____ _____    ______ ____
ROOT
ATOM      1  C   UNL     1      -2.551   5.449   0.061  0.00  0.00    +0.318 C 
ATOM      2  O   UNL     1      -1.506   6.068   0.063  0.00  0.00    -0.263 OA
ATOM      3  N   UNL     1      -2.536   4.102   0.059  0.00  0.00    -0.199 N 
ATOM      4  H   UNL     1      -3.371   3.608   0.058  0.00  0.00    +0.178 HD
ENDROOT
BRANCH   1   6
ATOM      5  N   UNL     1      -3.864   7.528   0.061  0.00  0.00    -0.276 N 
ATOM      6  C   UNL     1      -3.850   6.181   0.060  0.00  0.00    +0.305 C 
ATOM      7  O   UNL     1      -4.895   5.562   0.057  0.00  0.00    -0.265 OA
ATOM      8  H   UNL     1      -3.032   8.022   0.129  0.00  0.00    +0.155 HD
BRANCH   5  11
ATOM      9  C   UNL     1      -7.420   8.373   0.463  0.00  0.00    +0.003 A 
ATOM     10  C   UNL     1      -6.221   7.694   0.559  0.00  0.00    +0.025 A 
ATOM     11  C   UNL     1      -5.079   8.214  -0.035  0.00  0.00    +0.054 A 
ATOM     12  C   UNL     1      -5.144   9.422  -0.720  0.00  0.00    +0.080 A 
ATOM     13  C   UNL     1      -6.348  10.094  -0.818  0.00  0.00    +0.061 A 
ATOM     14  C   UNL     1      -7.484   9.571  -0.224  0.00  0.00    +0.021 A 
ATOM     15 CL   UNL     1      -6.435  11.599  -1.680  0.00  0.00    -0.082 Cl
ATOM     16 CL   UNL     1      -3.718  10.082  -1.458  0.00  0.00    -0.080 Cl
ENDBRANCH   5  11
ENDBRANCH   1   6
BRANCH   3  17
ATOM     17  N   UNL     1      -1.316   3.414   0.061  0.00  0.00    -0.187 NA
ATOM     18  C   UNL     1      -1.302   2.114   0.059  0.00  0.00    +0.142 C 
BRANCH  18  19
ATOM     19  C   UNL     1      -0.019   1.392   0.060  0.00  0.00    +0.036 A 
ATOM     20  C   UNL     1      -0.001  -0.006   0.059  0.00  0.00    +0.016 A 
ATOM     21  C   UNL     1       1.202  -0.677   0.054  0.00  0.00    +0.046 A 
ATOM     22  C   UNL     1       2.399   0.030   0.051  0.00  0.00    +0.120 A 
ATOM     23  C   UNL     1       2.392   1.417   0.052  0.00  0.00    +0.091 A 
ATOM     24  C   UNL     1       1.190   2.104   0.057  0.00  0.00    +0.129 A 
BRANCH  24  25
ATOM     25  O   UNL     1       1.181   3.462   0.058  0.00  0.00    -0.506 OA
ATOM     26  H   UNL     1       1.182   3.854   0.942  0.00  0.00    +0.292 HD
ENDBRANCH  24  25
BRANCH  22  27
ATOM     27  O   UNL     1       3.580  -0.640   0.046  0.00  0.00    -0.507 OA
ATOM     28  H   UNL     1       3.919  -0.833  -0.839  0.00  0.00    +0.292 HD
ENDBRANCH  22  27
ENDBRANCH  18  19
ENDBRANCH   3  17
TORSDOF 6
