REMARK  Name = ZINC38728350
REMARK  14 active torsions:
REMARK  status: ('A' for Active; 'I' for Inactive)
REMARK    1  A    between atoms: C_1  and  C_2
REMARK    2  A    between atoms: C_2  and  C_3
REMARK    3  A    between atoms: N_16  and  C_36
REMARK    4  A    between atoms: C_17  and  C_19
REMARK    5  A    between atoms: C_22  and  O_28
REMARK    6  A    between atoms: C_23  and  O_25
REMARK    7  A    between atoms: O_25  and  C_26
REMARK    8  A    between atoms: C_26  and  C_27
REMARK    9  A    between atoms: O_28  and  C_29
REMARK   10  A    between atoms: C_29  and  C_30
REMARK   11  A    between atoms: C_36  and  C_37
REMARK   12  A    between atoms: C_37  and  N_38
REMARK   13  A    between atoms: N_38  and  C_39
REMARK   14  A    between atoms: N_38  and  C_40
REMARK                            x       y       z     vdW  Elec       q    Type
REMARK                         _______ _______ _______ _____ _____    ______ ____
ROOT
ATOM      1  C   UNL     1       0.707  -0.490  -1.238  0.00  0.00    -0.047 A 
ATOM      2  C   UNL     1      -0.016  -0.719  -2.400  0.00  0.00    +0.007 A 
ATOM      3  C   UNL     1       0.609  -1.166  -3.543  0.00  0.00    +0.047 A 
ATOM      4  C   UNL     1       1.985  -1.393  -3.544  0.00  0.00    +0.139 A 
ATOM      5  C   UNL     1       2.707  -1.153  -2.364  0.00  0.00    +0.065 A 
ATOM      6  C   UNL     1       2.058  -0.699  -1.216  0.00  0.00    +0.019 A 
ATOM      7  C   UNL     1       4.175  -1.377  -2.359  0.00  0.00    +0.199 A 
ATOM      8  O   UNL     1       4.850  -1.357  -1.345  0.00  0.00    -0.287 OA
ATOM      9  C   UNL     1       4.734  -1.627  -3.692  0.00  0.00    +0.072 A 
ATOM     10  C   UNL     1       3.921  -1.838  -4.769  0.00  0.00    +0.199 A 
ATOM     11  O   UNL     1       2.576  -1.839  -4.675  0.00  0.00    -0.450 OA
ATOM     12  C   UNL     1       4.769  -2.048  -5.955  0.00  0.00    +0.283 C 
ATOM     13  O   UNL     1       4.356  -2.259  -7.078  0.00  0.00    -0.267 OA
ATOM     14  N   UNL     1       6.072  -1.972  -5.613  0.00  0.00    -0.285 N 
ATOM     15  C   UNL     1       6.148  -1.704  -4.167  0.00  0.00    +0.145 C 
ENDROOT
BRANCH  15  16
ATOM     16  C   UNL     1       6.852  -0.395  -3.918  0.00  0.00    -0.019 A 
ATOM     17  C   UNL     1       6.636   0.677  -4.764  0.00  0.00    +0.009 A 
ATOM     18  C   UNL     1       7.280   1.879  -4.539  0.00  0.00    +0.050 A 
ATOM     19  C   UNL     1       8.144   2.013  -3.463  0.00  0.00    +0.162 A 
ATOM     20  C   UNL     1       8.361   0.934  -2.612  0.00  0.00    +0.162 A 
ATOM     21  C   UNL     1       7.709  -0.267  -2.840  0.00  0.00    +0.055 A 
BRANCH  20  22
ATOM     22  O   UNL     1       9.207   1.060  -1.555  0.00  0.00    -0.489 OA
BRANCH  22  23
ATOM     23  C   UNL     1       9.382  -0.089  -0.723  0.00  0.00    +0.226 C 
ATOM     24  C   UNL     1      10.362   0.241   0.404  0.00  0.00    +0.048 C 
ENDBRANCH  22  23
ENDBRANCH  20  22
BRANCH  19  25
ATOM     25  O   UNL     1       8.778   3.195  -3.241  0.00  0.00    -0.484 OA
BRANCH  25  26
ATOM     26  C   UNL     1       8.508   4.258  -4.157  0.00  0.00    +0.264 C 
BRANCH  26  27
ATOM     27  C   UNL     1       9.294   5.479  -3.754  0.00  0.00    -0.010 A 
ATOM     28  C   UNL     1       8.745   6.397  -2.878  0.00  0.00    +0.007 A 
ATOM     29  C   UNL     1       9.466   7.517  -2.508  0.00  0.00    +0.000 A 
ATOM     30  C   UNL     1      10.736   7.720  -3.015  0.00  0.00    +0.000 A 
ATOM     31  C   UNL     1      11.285   6.802  -3.891  0.00  0.00    +0.000 A 
ATOM     32  C   UNL     1      10.566   5.680  -4.257  0.00  0.00    +0.007 A 
ENDBRANCH  26  27
ENDBRANCH  25  26
ENDBRANCH  19  25
ENDBRANCH  15  16
BRANCH   1  34
ATOM     33  C   UNL     1      -0.019   1.526   0.010  0.00  0.00    +0.009 C 
ATOM     34  C   UNL     1       0.002  -0.004   0.002  0.00  0.00    +0.032 C 
ENDBRANCH   1  34
BRANCH  14  35
ATOM     35  C   UNL     1       7.211  -2.129  -6.520  0.00  0.00    +0.090 C 
BRANCH  35  36
ATOM     36  C   UNL     1       7.594  -0.765  -7.099  0.00  0.00    -0.060 C 
BRANCH  36  37
ATOM     37  N   UNL     1       8.736  -0.922  -8.009  0.00  0.00    +0.377 N 
ATOM     38  C   UNL     1       8.334  -1.735  -9.164  0.00  0.00    -0.097 C 
ATOM     39  C   UNL     1       9.180   0.400  -8.471  0.00  0.00    -0.097 C 
ATOM     40  H   UNL     1       9.493  -1.380  -7.523  0.00  0.00    -0.083 HD
ENDBRANCH  36  37
ENDBRANCH  35  36
ENDBRANCH  14  35
TORSDOF 10
