REMARK  Name = ZINC36640362
REMARK  17 active torsions:
REMARK  status: ('A' for Active; 'I' for Inactive)
REMARK    1  A    between atoms: C_1  and  C_2
REMARK    2  A    between atoms: C_2  and  C_3
REMARK    3  A    between atoms: C_3  and  C_4
REMARK    4  A    between atoms: C_4  and  N_5
REMARK    5  A    between atoms: N_5  and  C_6
REMARK    6  A    between atoms: N_5  and  S_7
REMARK    7  A    between atoms: S_7  and  C_10
REMARK    8  A    between atoms: C_13  and  C_16
REMARK    9  A    between atoms: N_18  and  C_19
REMARK   10  A    between atoms: C_19  and  C_20
REMARK   11  A    between atoms: C_20  and  N_21
REMARK   12  A    between atoms: N_21  and  C_22
REMARK   13  A    between atoms: N_21  and  C_24
REMARK   14  A    between atoms: C_22  and  C_23
REMARK   15  A    between atoms: C_24  and  C_25
REMARK   16  A    between atoms: C_29  and  C_36
REMARK   17  A    between atoms: C_31  and  C_35
REMARK                            x       y       z     vdW  Elec       q    Type
REMARK                         _______ _______ _______ _____ _____    ______ ____
ROOT
ATOM      1  C   UNL     1      -6.358   2.184   3.493  0.00  0.00    +0.252 C 
ATOM      2  O   UNL     1      -5.848   2.905   4.327  0.00  0.00    -0.270 OA
ATOM      3  N   UNL     1      -7.673   2.296   3.218  0.00  0.00    -0.248 N 
ATOM      4  C   UNL     1      -8.414   3.320   3.784  0.00  0.00    +0.168 A 
ATOM      5  N   UNL     1      -8.017   4.269   4.600  0.00  0.00    -0.224 NA
ATOM      6  C   UNL     1      -8.857   5.212   5.079  0.00  0.00    +0.083 A 
ATOM      7  C   UNL     1      -8.561   6.280   5.957  0.00  0.00    -0.024 A 
ATOM      8  C   UNL     1      -9.539   7.156   6.349  0.00  0.00    +0.009 A 
ATOM      9  C   UNL     1     -10.847   7.029   5.903  0.00  0.00    -0.049 A 
ATOM     10  C   UNL     1     -11.172   5.996   5.044  0.00  0.00    +0.020 A 
ATOM     11  C   UNL     1     -10.199   5.114   4.646  0.00  0.00    +0.041 A 
ATOM     12  S   UNL     1     -10.151   3.689   3.586  0.00  0.00    -0.052 S 
ATOM     13  C   UNL     1     -11.902   8.007   6.352  0.00  0.00    +0.044 C 
ATOM     14  C   UNL     1      -7.154   6.457   6.467  0.00  0.00    +0.046 C 
ENDROOT
BRANCH   1  18
ATOM     15  C   UNL     1      -3.999  -0.694   1.446  0.00  0.00    +0.106 A 
ATOM     16  C   UNL     1      -3.450   0.530   1.786  0.00  0.00    +0.029 A 
ATOM     17  C   UNL     1      -4.212   1.469   2.451  0.00  0.00    +0.015 A 
ATOM     18  C   UNL     1      -5.537   1.182   2.780  0.00  0.00    +0.037 A 
ATOM     19  C   UNL     1      -6.084  -0.054   2.434  0.00  0.00    +0.015 A 
ATOM     20  C   UNL     1      -5.314  -0.983   1.765  0.00  0.00    +0.029 A 
BRANCH  15  21
ATOM     21  S   UNL     1      -3.020  -1.888   0.597  0.00  0.00    +0.061 S 
ATOM     22  O   UNL     1      -3.599  -3.156   0.870  0.00  0.00    -0.153 OA
ATOM     23  O   UNL     1      -1.663  -1.589   0.898  0.00  0.00    -0.153 OA
BRANCH  21  24
ATOM     24  N   UNL     1      -3.215  -1.617  -1.025  0.00  0.00    -0.180 NA
ATOM     25  C   UNL     1      -4.288  -2.296  -1.756  0.00  0.00    +0.131 C 
BRANCH  24  26
ATOM     26  C   UNL     1      -2.316  -0.699  -1.728  0.00  0.00    +0.109 C 
BRANCH  26  27
ATOM     27  C   UNL     1      -2.953   0.690  -1.791  0.00  0.00    +0.017 C 
BRANCH  27  29
ATOM     28  C   UNL     1      -2.651   3.039  -2.589  0.00  0.00    +0.004 C 
ATOM     29  C   UNL     1      -2.014   1.649  -2.526  0.00  0.00    -0.002 C 
ENDBRANCH  27  29
ENDBRANCH  26  27
ENDBRANCH  24  26
ENDBRANCH  21  24
ENDBRANCH  15  21
ENDBRANCH   1  18
BRANCH   3  30
ATOM     30  C   UNL     1      -8.318   1.336   2.319  0.00  0.00    +0.097 C 
BRANCH  30  31
ATOM     31  C   UNL     1      -9.291   0.465   3.117  0.00  0.00    -0.059 C 
BRANCH  31  32
ATOM     32  N   UNL     1      -9.985  -0.455   2.205  0.00  0.00    +0.380 N 
ATOM     33  H   UNL     1     -10.418   0.071   1.462  0.00  0.00    -0.082 HD
BRANCH  32  34
ATOM     34  C   UNL     1      -9.017  -1.402   1.635  0.00  0.00    -0.082 C 
ATOM     35  C   UNL     1      -8.432  -2.268   2.752  0.00  0.00    -0.017 C 
ENDBRANCH  32  34
BRANCH  32  36
ATOM     36  C   UNL     1     -11.015  -1.195   2.947  0.00  0.00    -0.082 C 
ATOM     37  C   UNL     1     -11.818  -2.062   1.976  0.00  0.00    -0.017 C 
ENDBRANCH  32  36
ENDBRANCH  31  32
ENDBRANCH  30  31
ENDBRANCH   3  30
TORSDOF 11
