REMARK  Name = ZINC39912247
REMARK  16 active torsions:
REMARK  status: ('A' for Active; 'I' for Inactive)
REMARK    1  A    between atoms: C_1  and  C_2
REMARK    2  A    between atoms: C_2  and  C_3
REMARK    3  A    between atoms: C_3  and  C_4
REMARK    4  A    between atoms: C_4  and  C_5
REMARK    5  A    between atoms: C_5  and  C_6
REMARK    6  A    between atoms: C_6  and  O_7
REMARK    7  A    between atoms: O_7  and  C_8
REMARK    8  A    between atoms: C_11  and  C_16
REMARK    9  A    between atoms: C_13  and  O_14
REMARK   10  A    between atoms: O_14  and  C_15
REMARK   11  A    between atoms: C_19  and  C_33
REMARK   12  A    between atoms: N_26  and  C_27
REMARK   13  A    between atoms: C_27  and  C_28
REMARK   14  A    between atoms: C_35  and  C_41
REMARK   15  A    between atoms: C_37  and  C_40
REMARK   16  A    between atoms: C_38  and  O_39
REMARK                            x       y       z     vdW  Elec       q    Type
REMARK                         _______ _______ _______ _____ _____    ______ ____
ROOT
ATOM      1  C   UNL     1      -4.713 -10.060  -0.896  0.00  0.00    +0.142 C 
ATOM      2  C   UNL     1      -4.572 -10.361  -2.363  0.00  0.00    +0.035 A 
ATOM      3  C   UNL     1      -5.055 -10.157  -3.660  0.00  0.00    +0.102 A 
ATOM      4  N   UNL     1      -4.293 -10.855  -4.479  0.00  0.00    -0.173 NA
ATOM      5  N   UNL     1      -3.377 -11.479  -3.827  0.00  0.00    -0.272 N 
ATOM      6  H   UNL     1      -2.703 -12.052  -4.225  0.00  0.00    +0.189 HD
ATOM      7  C   UNL     1      -3.493 -11.213  -2.492  0.00  0.00    +0.126 A 
ATOM      8  C   UNL     1      -2.938 -11.469  -1.159  0.00  0.00    +0.266 C 
ATOM      9  O   UNL     1      -1.979 -12.181  -0.931  0.00  0.00    -0.268 OA
ATOM     10  N   UNL     1      -3.640 -10.803  -0.222  0.00  0.00    -0.278 N 
ENDROOT
BRANCH   3  11
ATOM     11  C   UNL     1      -6.213  -9.311  -4.044  0.00  0.00    +0.044 A 
ATOM     12  C   UNL     1      -7.011  -8.730  -3.061  0.00  0.00    +0.017 A 
ATOM     13  C   UNL     1      -8.086  -7.944  -3.423  0.00  0.00    -0.049 A 
ATOM     14  C   UNL     1      -8.375  -7.732  -4.759  0.00  0.00    +0.010 A 
ATOM     15  C   UNL     1      -7.590  -8.304  -5.742  0.00  0.00    -0.008 A 
ATOM     16  C   UNL     1      -6.504  -9.090  -5.393  0.00  0.00    +0.129 A 
ATOM     17  C   UNL     1      -7.912  -8.068  -7.195  0.00  0.00    +0.047 C 
ATOM     18  C   UNL     1      -8.949  -7.317  -2.359  0.00  0.00    +0.044 C 
BRANCH  16  19
ATOM     19  O   UNL     1      -5.727  -9.648  -6.358  0.00  0.00    -0.506 OA
ATOM     20  H   UNL     1      -6.022 -10.523  -6.643  0.00  0.00    +0.292 HD
ENDBRANCH  16  19
ENDBRANCH   3  11
BRANCH   1  24
ATOM     21  C   UNL     1      -4.260  -5.864  -0.202  0.00  0.00    +0.162 A 
ATOM     22  C   UNL     1      -5.496  -6.468  -0.032  0.00  0.00    +0.050 A 
ATOM     23  C   UNL     1      -5.639  -7.825  -0.257  0.00  0.00    +0.009 A 
ATOM     24  C   UNL     1      -4.551  -8.581  -0.652  0.00  0.00    -0.019 A 
ATOM     25  C   UNL     1      -3.316  -7.985  -0.823  0.00  0.00    +0.055 A 
ATOM     26  C   UNL     1      -3.167  -6.625  -0.605  0.00  0.00    +0.162 A 
BRANCH  26  27
ATOM     27  O   UNL     1      -1.954  -6.035  -0.778  0.00  0.00    -0.491 OA
ATOM     28  C   UNL     1      -0.887  -6.869  -1.236  0.00  0.00    +0.277 C 
ENDBRANCH  26  27
BRANCH  21  29
ATOM     29  O   UNL     1      -4.118  -4.530   0.019  0.00  0.00    -0.488 OA
BRANCH  29  30
ATOM     30  C   UNL     1      -5.284  -3.812   0.431  0.00  0.00    +0.229 C 
BRANCH  30  31
ATOM     31  C   UNL     1      -4.931  -2.337   0.629  0.00  0.00    +0.041 C 
BRANCH  31  32
ATOM     32  C   UNL     1      -6.178  -1.569   1.070  0.00  0.00    +0.003 C 
BRANCH  32  33
ATOM     33  C   UNL     1      -5.826  -0.093   1.268  0.00  0.00    -0.000 C 
BRANCH  33  35
ATOM     34  C   UNL     1      -6.721   2.150   1.907  0.00  0.00    +0.004 C 
ATOM     35  C   UNL     1      -7.073   0.675   1.709  0.00  0.00    -0.003 C 
ENDBRANCH  33  35
ENDBRANCH  32  33
ENDBRANCH  31  32
ENDBRANCH  30  31
ENDBRANCH  29  30
ENDBRANCH  21  29
ENDBRANCH   1  24
BRANCH  10  36
ATOM     36  C   UNL     1      -3.379 -10.816   1.219  0.00  0.00    +0.183 C 
BRANCH  36  37
ATOM     37  C   UNL     1      -4.155 -11.938   1.860  0.00  0.00    +0.122 A 
ATOM     38  C   UNL     1      -3.716 -13.197   2.040  0.00  0.00    +0.046 A 
ATOM     39  C   UNL     1      -4.760 -13.909   2.673  0.00  0.00    +0.041 A 
ATOM     40  C   UNL     1      -5.776 -13.043   2.842  0.00  0.00    +0.195 A 
ATOM     41  O   UNL     1      -5.402 -11.849   2.353  0.00  0.00    -0.466 OA
ENDBRANCH  36  37
ENDBRANCH  10  36
TORSDOF 12
