REMARK  Name = ZINC11423705
REMARK  10 active torsions:
REMARK  status: ('A' for Active; 'I' for Inactive)
REMARK    1  A    between atoms: C_1  and  C_2
REMARK    2  A    between atoms: C_2  and  C_33
REMARK    3  A    between atoms: C_4  and  N_9
REMARK    4  A    between atoms: C_6  and  C_7
REMARK    5  A    between atoms: C_6  and  C_8
REMARK    6  A    between atoms: C_10  and  C_12
REMARK    7  A    between atoms: C_12  and  C_13
REMARK    8  A    between atoms: C_13  and  C_14
REMARK    9  A    between atoms: N_17  and  C_26
REMARK   10  A    between atoms: C_26  and  C_27
REMARK                            x       y       z     vdW  Elec       q    Type
REMARK                         _______ _______ _______ _____ _____    ______ ____
ROOT
ATOM      1  C   UNL     1       3.499   1.787  -0.021  0.00  0.00    +0.107 A 
ATOM      2  C   UNL     1       3.510   3.253  -0.013  0.00  0.00    +0.273 A 
ATOM      3  O   UNL     1       4.565   3.862  -0.020  0.00  0.00    -0.266 OA
ATOM      4  N   UNL     1       2.336   3.921   0.001  0.00  0.00    -0.301 N 
ATOM      5  C   UNL     1       1.158   3.201   0.008  0.00  0.00    +0.071 A 
ATOM      6  C   UNL     1      -0.068   3.860   0.024  0.00  0.00    +0.029 A 
ATOM      7  C   UNL     1      -1.238   3.132   0.031  0.00  0.00    +0.022 A 
ATOM      8  C   UNL     1      -1.204   1.742   0.017  0.00  0.00    +0.043 A 
ATOM      9  C   UNL     1      -0.013   1.076   0.008  0.00  0.00    +0.049 A 
ATOM     10  C   UNL     1       1.193   1.794   0.000  0.00  0.00    +0.089 A 
ATOM     11  N   UNL     1       2.369   1.139  -0.014  0.00  0.00    -0.245 NA
ATOM     12 CL   UNL     1      -2.690   0.846   0.019  0.00  0.00    -0.083 Cl
ENDROOT
BRANCH   1  13
ATOM     13  C   UNL     1       4.800   1.026  -0.037  0.00  0.00    +0.070 C 
BRANCH  13  14
ATOM     14  C   UNL     1       4.513  -0.476  -0.042  0.00  0.00    +0.102 C 
BRANCH  14  16
ATOM     15  N   UNL     1       5.807  -2.585  -0.065  0.00  0.00    -0.313 N 
ATOM     16  C   UNL     1       5.814  -1.237  -0.058  0.00  0.00    +0.214 C 
ATOM     17  O   UNL     1       6.867  -0.636  -0.065  0.00  0.00    -0.276 OA
ATOM     18  H   UNL     1       4.964  -3.065  -0.060  0.00  0.00    +0.149 HD
BRANCH  15  22
ATOM     19  C   UNL     1       9.093  -5.002   1.598  0.00  0.00    -0.010 C 
ATOM     20  C   UNL     1       8.153  -5.515   0.500  0.00  0.00    -0.072 C 
ATOM     21  C   UNL     1       6.855  -4.712   0.524  0.00  0.00    +0.009 C 
ATOM     22  C   UNL     1       7.074  -3.325  -0.081  0.00  0.00    +0.070 C 
ATOM     23  C   UNL     1       7.540  -3.495  -1.527  0.00  0.00    +0.009 C 
ATOM     24  C   UNL     1       8.848  -4.281  -1.574  0.00  0.00    -0.072 C 
ATOM     25  C   UNL     1      10.005  -3.379  -1.127  0.00  0.00    -0.010 C 
ATOM     26  C   UNL     1       9.109  -4.662  -3.049  0.00  0.00    -0.010 C 
ATOM     27  C   UNL     1       7.801  -6.979   0.846  0.00  0.00    -0.010 C 
ATOM     28  N   UNL     1       8.835  -5.564  -0.821  0.00  0.00    +0.386 N 
ATOM     29  H   UNL     1       8.359  -6.267  -1.399  0.00  0.00    -0.084 HD
ATOM     30  H   UNL     1       9.809  -5.851  -0.666  0.00  0.00    -0.084 HD
ENDBRANCH  15  22
ENDBRANCH  14  16
ENDBRANCH  13  14
ENDBRANCH   1  13
BRANCH   4  31
ATOM     31  C   UNL     1       2.313   5.386   0.009  0.00  0.00    +0.160 C 
BRANCH  31  32
ATOM     32  C   UNL     1       2.292   5.896  -1.409  0.00  0.00    -0.028 A 
ATOM     33  C   UNL     1       3.479   6.154  -2.068  0.00  0.00    +0.005 A 
ATOM     34  C   UNL     1       3.460   6.617  -3.370  0.00  0.00    +0.000 A 
ATOM     35  C   UNL     1       2.253   6.832  -4.010  0.00  0.00    +0.000 A 
ATOM     36  C   UNL     1       1.066   6.579  -3.349  0.00  0.00    +0.000 A 
ATOM     37  C   UNL     1       1.085   6.111  -2.048  0.00  0.00    +0.005 A 
ENDBRANCH  31  32
ENDBRANCH   4  31
TORSDOF 6
