REMARK  Name = ZINC40012609
REMARK  9 active torsions:
REMARK  status: ('A' for Active; 'I' for Inactive)
REMARK    1  A    between atoms: C_1  and  C_2
REMARK    2  A    between atoms: C_2  and  N_32
REMARK    3  A    between atoms: C_3  and  C_4
REMARK    4  A    between atoms: C_3  and  C_6
REMARK    5  A    between atoms: C_6  and  C_8
REMARK    6  A    between atoms: C_8  and  S_9
REMARK    7  A    between atoms: S_9  and  C_10
REMARK    8  A    between atoms: C_14  and  C_23
REMARK    9  A    between atoms: N_15  and  C_16
REMARK                            x       y       z     vdW  Elec       q    Type
REMARK                         _______ _______ _______ _____ _____    ______ ____
ROOT
ATOM      1  C   UNL     1       6.114  -0.701  -0.461  0.00  0.00    +0.241 C 
ATOM      2  N   UNL     1       6.039  -1.424  -1.742  0.00  0.00    -0.237 N 
ATOM      3  N   UNL     1       6.755  -2.614  -1.569  0.00  0.00    -0.169 NA
ATOM      4  C   UNL     1       7.247  -2.701  -0.361  0.00  0.00    +0.151 C 
ATOM      5  N   UNL     1       6.916  -1.578   0.408  0.00  0.00    -0.254 N 
ATOM      6  H   UNL     1       5.583  -1.132  -2.546  0.00  0.00    +0.171 HD
ENDROOT
BRANCH   4   7
ATOM      7  C   UNL     1       8.011  -3.782   0.106  0.00  0.00    +0.022 C 
ATOM      8  C   UNL     1       8.461  -4.877  -0.630  0.00  0.00    +0.006 A 
ATOM      9  C   UNL     1       8.312  -5.241  -1.986  0.00  0.00    +0.010 A 
ATOM     10  C   UNL     1       8.871  -6.392  -2.440  0.00  0.00    +0.001 A 
ATOM     11  C   UNL     1       9.597  -7.235  -1.596  0.00  0.00    +0.002 A 
ATOM     12  C   UNL     1       9.780  -6.949  -0.283  0.00  0.00    +0.026 A 
ATOM     13  C   UNL     1       9.225  -5.763   0.264  0.00  0.00    +0.043 A 
ATOM     14  N   UNL     1       9.260  -5.266   1.485  0.00  0.00    -0.380 N 
ATOM     15  C   UNL     1       8.524  -3.998   1.513  0.00  0.00    +0.152 C 
ATOM     16  H   UNL     1       9.705  -5.674   2.244  0.00  0.00    +0.160 HD
ENDBRANCH   4   7
BRANCH   5  17
ATOM     17  C   UNL     1       7.274  -1.337   1.737  0.00  0.00    +0.038 A 
ATOM     18  C   UNL     1       8.429  -0.621   2.027  0.00  0.00    +0.025 A 
ATOM     19  C   UNL     1       8.781  -0.384   3.341  0.00  0.00    +0.022 A 
ATOM     20  C   UNL     1       7.984  -0.859   4.369  0.00  0.00    +0.041 A 
ATOM     21  C   UNL     1       6.833  -1.572   4.082  0.00  0.00    +0.022 A 
ATOM     22  C   UNL     1       6.473  -1.806   2.770  0.00  0.00    +0.025 A 
ATOM     23 CL   UNL     1       8.429  -0.559   6.019  0.00  0.00    -0.084 Cl
ENDBRANCH   5  17
BRANCH   1  24
ATOM     24  S   UNL     1       4.454  -0.467   0.233  0.00  0.00    -0.110 S 
BRANCH  24  25
ATOM     25  C   UNL     1       3.790  -2.150   0.359  0.00  0.00    +0.153 C 
BRANCH  25  26
ATOM     26  C   UNL     1       2.396  -2.098   0.930  0.00  0.00    +0.185 C 
ATOM     27  O   UNL     1       1.899  -1.029   1.222  0.00  0.00    -0.290 OA
BRANCH  26  30
ATOM     28  C   UNL     1       0.128  -2.591  -0.723  0.00  0.00    +0.061 C 
ATOM     29  C   UNL     1       0.524  -3.538   0.381  0.00  0.00    +0.019 C 
ATOM     30  C   UNL     1       1.665  -3.295   1.124  0.00  0.00    +0.111 C 
BRANCH  29  31
ATOM     31  N   UNL     1      -0.235  -4.622   0.645  0.00  0.00    -0.360 N 
ATOM     32  H   UNL     1      -1.035  -4.792   0.124  0.00  0.00    +0.142 HD
ATOM     33  H   UNL     1       0.020  -5.231   1.355  0.00  0.00    +0.142 HD
ENDBRANCH  29  31
BRANCH  30  34
ATOM     34  C   UNL     1       2.108  -4.255   2.090  0.00  0.00    +0.104 C 
ATOM     35  N   UNL     1       2.460  -5.016   2.857  0.00  0.00    -0.191 NA
ENDBRANCH  30  34
ENDBRANCH  26  30
ENDBRANCH  25  26
ENDBRANCH  24  25
ENDBRANCH   1  24
TORSDOF 8
