REMARK  Name = ZINC22681788
REMARK  13 active torsions:
REMARK  status: ('A' for Active; 'I' for Inactive)
REMARK    1  A    between atoms: C_1  and  C_2
REMARK    2  A    between atoms: C_2  and  N_3
REMARK    3  A    between atoms: N_3  and  C_4
REMARK    4  A    between atoms: N_3  and  C_6
REMARK    5  A    between atoms: C_4  and  C_5
REMARK    6  A    between atoms: C_6  and  C_8
REMARK    7  A    between atoms: C_6  and  C_24
REMARK    8  A    between atoms: C_8  and  N_9
REMARK    9  A    between atoms: C_10  and  C_12
REMARK   10  A    between atoms: C_12  and  C_13
REMARK   11  A    between atoms: C_13  and  C_14
REMARK   12  A    between atoms: C_17  and  S_20
REMARK   13  A    between atoms: S_20  and  N_23
REMARK                            x       y       z     vdW  Elec       q    Type
REMARK                         _______ _______ _______ _____ _____    ______ ____
ROOT
ATOM      1  N   UNL     1      -1.478   1.863  -3.286  0.00  0.00    -0.317 N 
ATOM      2  C   UNL     1      -0.951   1.367  -2.149  0.00  0.00    +0.213 C 
ATOM      3  O   UNL     1      -0.194   0.421  -2.195  0.00  0.00    -0.276 OA
ATOM      4  H   UNL     1      -2.127   2.751  -3.250  0.00  0.00    +0.149 HD
ENDROOT
BRANCH   1   5
ATOM      5  C   UNL     1      -1.187   1.220  -4.570  0.00  0.00    +0.093 C 
BRANCH   5   6
ATOM      6  C   UNL     1      -1.953   1.937  -5.684  0.00  0.00    -0.019 C 
BRANCH   6   7
ATOM      7  C   UNL     1      -2.169   0.988  -6.835  0.00  0.00    -0.041 A 
ATOM      8  C   UNL     1      -1.086   0.515  -7.553  0.00  0.00    +0.003 A 
ATOM      9  C   UNL     1      -1.283  -0.354  -8.609  0.00  0.00    +0.000 A 
ATOM     10  C   UNL     1      -2.564  -0.752  -8.948  0.00  0.00    +0.001 A 
ATOM     11  C   UNL     1      -3.647  -0.279  -8.232  0.00  0.00    +0.020 A 
ATOM     12  C   UNL     1      -3.449   0.587  -7.171  0.00  0.00    +0.043 A 
ATOM     13 CL   UNL     1      -4.809   1.175  -6.266  0.00  0.00    -0.083 Cl
ENDBRANCH   6   7
BRANCH   6  14
ATOM     14  N   UNL     1      -1.178   3.097  -6.144  0.00  0.00    +0.385 N 
ATOM     15  H   UNL     1      -0.290   2.722  -6.675  0.00  0.00    -0.081 HD
BRANCH  14  17
ATOM     16  C   UNL     1      -1.783   3.358  -8.502  0.00  0.00    -0.017 C 
ATOM     17  C   UNL     1      -1.957   3.911  -7.086  0.00  0.00    -0.081 C 
ENDBRANCH  14  17
BRANCH  14  18
ATOM     18  C   UNL     1      -0.716   3.905  -5.007  0.00  0.00    -0.081 C 
ATOM     19  C   UNL     1       0.793   4.129  -5.121  0.00  0.00    -0.017 C 
ENDBRANCH  14  18
ENDBRANCH   6  14
ENDBRANCH   5   6
ENDBRANCH   1   5
BRANCH   2  20
ATOM     20  C   UNL     1      -1.304   1.988  -0.822  0.00  0.00    +0.100 C 
BRANCH  20  21
ATOM     21  C   UNL     1      -0.681   1.164   0.307  0.00  0.00    +0.044 C 
BRANCH  21  22
ATOM     22  C   UNL     1      -1.033   1.784   1.635  0.00  0.00    -0.047 A 
ATOM     23  C   UNL     1      -0.204   2.739   2.193  0.00  0.00    +0.005 A 
ATOM     24  C   UNL     1      -0.529   3.312   3.409  0.00  0.00    +0.029 A 
ATOM     25  C   UNL     1      -1.679   2.923   4.070  0.00  0.00    +0.105 A 
ATOM     26  C   UNL     1      -2.505   1.964   3.514  0.00  0.00    +0.029 A 
ATOM     27  C   UNL     1      -2.182   1.395   2.296  0.00  0.00    +0.005 A 
BRANCH  25  28
ATOM     28  S   UNL     1      -2.091   3.649   5.621  0.00  0.00    +0.056 S 
ATOM     29  O   UNL     1      -1.441   4.912   5.664  0.00  0.00    -0.153 OA
ATOM     30  O   UNL     1      -3.498   3.510   5.774  0.00  0.00    -0.153 OA
BRANCH  28  31
ATOM     31  N   UNL     1      -1.394   2.717   6.799  0.00  0.00    -0.204 NA
ATOM     32  H   UNL     1      -1.629   3.139   7.788  0.00  0.00    +0.144 HD
ATOM     33  H   UNL     1      -0.303   2.702   6.657  0.00  0.00    +0.144 HD
ENDBRANCH  28  31
ENDBRANCH  25  28
ENDBRANCH  21  22
ENDBRANCH  20  21
ENDBRANCH   2  20
TORSDOF 11
