REMARK  Name = ZINC35744369
REMARK  9 active torsions:
REMARK  status: ('A' for Active; 'I' for Inactive)
REMARK    1  A    between atoms: C_4  and  C_7
REMARK    2  A    between atoms: C_7  and  C_8
REMARK    3  A    between atoms: C_8  and  C_10
REMARK    4  A    between atoms: C_8  and  O_34
REMARK    5  A    between atoms: C_10  and  N_11
REMARK    6  A    between atoms: N_11  and  C_12
REMARK    7  A    between atoms: N_11  and  C_19
REMARK    8  A    between atoms: C_12  and  C_13
REMARK    9  A    between atoms: C_19  and  C_20
REMARK                            x       y       z     vdW  Elec       q    Type
REMARK                         _______ _______ _______ _____ _____    ______ ____
ROOT
ATOM      1  N   UNL     1       5.828  -1.830   2.941  0.00  0.00    +0.389 N 
ATOM      2  H   UNL     1       5.804  -1.036   3.563  0.00  0.00    -0.081 HD
ENDROOT
BRANCH   1   3
ATOM      3  C   UNL     1       5.386  -1.418   1.602  0.00  0.00    -0.046 C 
BRANCH   3   4
ATOM      4  C   UNL     1       4.134  -0.547   1.724  0.00  0.00    +0.102 C 
BRANCH   4   5
ATOM      5  O   UNL     1       3.045  -1.342   2.199  0.00  0.00    -0.393 OA
ATOM      6  H   UNL     1       2.843  -2.106   1.641  0.00  0.00    +0.210 HD
ENDBRANCH   4   5
BRANCH   4   7
ATOM      7  C   UNL     1       3.781   0.033   0.353  0.00  0.00    +0.064 C 
BRANCH   7  11
ATOM      8  C   UNL     1       0.498   2.737   0.751  0.00  0.00    +0.000 A 
ATOM      9  C   UNL     1       1.795   3.201   0.873  0.00  0.00    +0.000 A 
ATOM     10  C   UNL     1       2.857   2.326   0.744  0.00  0.00    +0.004 A 
ATOM     11  C   UNL     1       2.623   0.987   0.494  0.00  0.00    -0.045 A 
ATOM     12  C   UNL     1       1.327   0.523   0.373  0.00  0.00    +0.004 A 
ATOM     13  C   UNL     1       0.264   1.398   0.501  0.00  0.00    +0.000 A 
ENDBRANCH   7  11
ENDBRANCH   4   7
ENDBRANCH   3   4
ENDBRANCH   1   3
BRANCH   1  14
ATOM     14  C   UNL     1       4.934  -2.878   3.451  0.00  0.00    -0.042 C 
BRANCH  14  15
ATOM     15  C   UNL     1       5.100  -4.127   2.624  0.00  0.00    -0.064 A 
ATOM     16  C   UNL     1       4.365  -4.290   1.465  0.00  0.00    +0.002 A 
ATOM     17  C   UNL     1       4.518  -5.436   0.706  0.00  0.00    +0.000 A 
ATOM     18  C   UNL     1       5.405  -6.417   1.106  0.00  0.00    +0.000 A 
ATOM     19  C   UNL     1       6.141  -6.253   2.265  0.00  0.00    +0.000 A 
ATOM     20  C   UNL     1       5.991  -5.106   3.021  0.00  0.00    +0.002 A 
ENDBRANCH  14  15
ENDBRANCH   1  14
BRANCH   1  21
ATOM     21  C   UNL     1       7.199  -2.351   2.866  0.00  0.00    -0.003 C 
BRANCH  21  22
ATOM     22  C   UNL     1       7.715  -2.612   4.258  0.00  0.00    +0.094 A 
ATOM     23  N   UNL     1       8.978  -3.084   4.423  0.00  0.00    -0.312 N 
ATOM     24  H   UNL     1       9.530  -3.245   3.642  0.00  0.00    +0.170 HD
ATOM     25  C   UNL     1       9.478  -3.331   5.648  0.00  0.00    +0.260 A 
ATOM     26  O   UNL     1      10.613  -3.755   5.781  0.00  0.00    -0.267 OA
ATOM     27  C   UNL     1       8.651  -3.088   6.792  0.00  0.00    +0.075 A 
ATOM     28  C   UNL     1       8.985  -3.284   8.211  0.00  0.00    -0.023 A 
ATOM     29  C   UNL     1       8.030  -2.982   9.107  0.00  0.00    -0.004 A 
ATOM     30  S   UNL     1       6.649  -2.423   8.136  0.00  0.00    -0.073 S 
ATOM     31  C   UNL     1       7.365  -2.602   6.524  0.00  0.00    +0.116 A 
ATOM     32  N   UNL     1       6.941  -2.376   5.283  0.00  0.00    -0.229 NA
ATOM     33  C   UNL     1       8.481  -3.226  10.522  0.00  0.00    +0.043 C 
ATOM     34  C   UNL     1       9.719  -4.139  10.382  0.00  0.00    +0.010 C 
ATOM     35  C   UNL     1      10.221  -3.772   8.972  0.00  0.00    +0.037 C 
ENDBRANCH  21  22
ENDBRANCH   1  21
TORSDOF 9
