REMARK  Name = ZINC28847420
REMARK  8 active torsions:
REMARK  status: ('A' for Active; 'I' for Inactive)
REMARK    1  A    between atoms: C_1  and  C_2
REMARK    2  A    between atoms: C_5  and  N_9
REMARK    3  A    between atoms: C_10  and  C_25
REMARK    4  A    between atoms: C_13  and  S_14
REMARK    5  A    between atoms: S_14  and  C_15
REMARK    6  A    between atoms: C_15  and  C_17
REMARK    7  A    between atoms: C_15  and  C_18
REMARK    8  A    between atoms: N_23  and  C_24
REMARK                            x       y       z     vdW  Elec       q    Type
REMARK                         _______ _______ _______ _____ _____    ______ ____
ROOT
ATOM      1  N   UNL     1       0.035  -4.174  -0.060  0.00  0.00    -0.270 N 
ATOM      2  C   UNL     1      -0.882  -5.022   0.521  0.00  0.00    +0.169 A 
ATOM      3  N   UNL     1      -0.454  -6.247   0.323  0.00  0.00    -0.128 NA
ATOM      4  N   UNL     1       0.652  -6.226  -0.332  0.00  0.00    -0.122 NA
ATOM      5  C   UNL     1       0.996  -4.985  -0.599  0.00  0.00    +0.197 A 
ENDROOT
BRANCH   1  10
ATOM      6  C   UNL     1      -0.150   1.497  -0.213  0.00  0.00    +0.045 C 
ATOM      7  C   UNL     1      -0.100  -0.008  -0.172  0.00  0.00    -0.032 A 
ATOM      8  C   UNL     1      -0.263  -0.736  -1.337  0.00  0.00    +0.007 A 
ATOM      9  C   UNL     1      -0.218  -2.116  -1.302  0.00  0.00    +0.026 A 
ATOM     10  C   UNL     1      -0.010  -2.773  -0.097  0.00  0.00    +0.052 A 
ATOM     11  C   UNL     1       0.153  -2.041   1.071  0.00  0.00    +0.046 A 
ATOM     12  C   UNL     1       0.113  -0.660   1.030  0.00  0.00    +0.046 A 
ATOM     13 CL   UNL     1       0.324   0.258   2.488  0.00  0.00    -0.083 Cl
ENDBRANCH   1  10
BRANCH   2  14
ATOM     14  C   UNL     1      -2.115  -4.627   1.234  0.00  0.00    +0.020 A 
ATOM     15  C   UNL     1      -2.648  -3.348   1.058  0.00  0.00    +0.013 A 
ATOM     16  C   UNL     1      -3.799  -2.986   1.726  0.00  0.00    +0.021 A 
ATOM     17  C   UNL     1      -4.426  -3.887   2.570  0.00  0.00    +0.041 A 
ATOM     18  C   UNL     1      -3.903  -5.156   2.749  0.00  0.00    +0.021 A 
ATOM     19  C   UNL     1      -2.756  -5.533   2.082  0.00  0.00    +0.013 A 
ATOM     20 CL   UNL     1      -5.874  -3.422   3.408  0.00  0.00    -0.084 Cl
ENDBRANCH   2  14
BRANCH   5  21
ATOM     21  S   UNL     1       2.430  -4.465  -1.481  0.00  0.00    -0.073 S 
BRANCH  21  22
ATOM     22  C   UNL     1       3.267  -6.016  -1.911  0.00  0.00    +0.137 C 
ATOM     23  C   UNL     1       2.390  -6.818  -2.875  0.00  0.00    +0.029 C 
BRANCH  22  24
ATOM     24  C   UNL     1       4.586  -5.708  -2.571  0.00  0.00    +0.233 C 
ATOM     25  O   UNL     1       4.779  -4.616  -3.062  0.00  0.00    -0.274 OA
ATOM     26  N   UNL     1       5.553  -6.646  -2.616  0.00  0.00    -0.239 N 
ATOM     27  C   UNL     1       6.733  -6.371  -3.206  0.00  0.00    +0.306 C 
ATOM     28  O   UNL     1       6.926  -5.276  -3.697  0.00  0.00    -0.252 OA
ATOM     29  N   UNL     1       7.699  -7.309  -3.250  0.00  0.00    -0.302 N 
ATOM     30  C   UNL     1       8.982  -7.010  -3.891  0.00  0.00    +0.129 C 
ATOM     31  H   UNL     1       5.399  -7.520  -2.223  0.00  0.00    +0.159 HD
ATOM     32  H   UNL     1       7.545  -8.183  -2.858  0.00  0.00    +0.150 HD
ENDBRANCH  22  24
ENDBRANCH  21  22
ENDBRANCH   5  21
TORSDOF 5
