REMARK  Name = ZINC35358306
REMARK  5 active torsions:
REMARK  status: ('A' for Active; 'I' for Inactive)
REMARK    1  A    between atoms: C_3  and  N_20
REMARK    2  A    between atoms: C_8  and  S_11
REMARK    3  A    between atoms: S_11  and  N_14
REMARK    4  A    between atoms: N_14  and  C_15
REMARK    5  A    between atoms: N_20  and  N_21
REMARK                            x       y       z     vdW  Elec       q    Type
REMARK                         _______ _______ _______ _____ _____    ______ ____
ROOT
ATOM      1  C   UNL     1      -0.017   1.405   0.010  0.00  0.00    +0.013 A 
ATOM      2  C   UNL     1       1.174   2.067   0.002  0.00  0.00    +0.045 A 
ATOM      3  C   UNL     1       2.375   1.344  -0.013  0.00  0.00    +0.133 A 
ATOM      4  N   UNL     1       2.386   0.027  -0.021  0.00  0.00    -0.231 NA
ATOM      5  C   UNL     1       1.248  -0.677  -0.014  0.00  0.00    +0.073 A 
ATOM      6  C   UNL     1       0.002  -0.004   0.002  0.00  0.00    +0.002 A 
ATOM      7  C   UNL     1      -1.188  -0.749   0.009  0.00  0.00    +0.039 A 
ATOM      8  C   UNL     1      -1.131  -2.110   0.001  0.00  0.00    +0.111 A 
ATOM      9  C   UNL     1       0.094  -2.773  -0.014  0.00  0.00    +0.031 A 
ATOM     10  C   UNL     1       1.267  -2.082  -0.023  0.00  0.00    +0.030 A 
ENDROOT
BRANCH   8  11
ATOM     11  S   UNL     1      -2.625  -3.043   0.009  0.00  0.00    +0.093 S 
ATOM     12  O   UNL     1      -2.305  -4.317   0.550  0.00  0.00    -0.148 OA
ATOM     13  O   UNL     1      -3.624  -2.205   0.574  0.00  0.00    -0.148 OA
BRANCH  11  14
ATOM     14  N   UNL     1      -3.055  -3.293  -1.570  0.00  0.00    -0.070 NA
BRANCH  14  15
ATOM     15  C   UNL     1      -4.205  -4.007  -1.871  0.00  0.00    +0.201 A 
ATOM     16  N   UNL     1      -5.070  -4.550  -1.042  0.00  0.00    -0.231 NA
ATOM     17  C   UNL     1      -6.127  -5.205  -1.491  0.00  0.00    +0.120 A 
ATOM     18  C   UNL     1      -6.273  -5.289  -2.835  0.00  0.00    +0.068 A 
ATOM     19  S   UNL     1      -4.836  -4.384  -3.385  0.00  0.00    -0.058 S 
ENDBRANCH  14  15
ENDBRANCH  11  14
ENDBRANCH   8  11
BRANCH   3  20
ATOM     20  N   UNL     1       3.579   2.032  -0.021  0.00  0.00    -0.268 N 
ATOM     21  H   UNL     1       3.584   3.002  -0.016  0.00  0.00    +0.167 HD
BRANCH  20  22
ATOM     22  N   UNL     1       4.759   1.343  -0.036  0.00  0.00    -0.255 NA
ATOM     23  H   UNL     1       5.546   1.974  -0.040  0.00  0.00    +0.140 HD
ATOM     24  H   UNL     1       4.813   0.702   0.741  0.00  0.00    +0.140 HD
ENDBRANCH  20  22
ENDBRANCH   3  20
TORSDOF 5
