REMARK  Name = ZINC12909576
REMARK  12 active torsions:
REMARK  status: ('A' for Active; 'I' for Inactive)
REMARK    1  A    between atoms: C_1  and  C_2
REMARK    2  A    between atoms: C_5  and  C_39
REMARK    3  A    between atoms: C_6  and  N_8
REMARK    4  A    between atoms: C_13  and  C_15
REMARK    5  A    between atoms: N_17  and  C_18
REMARK    6  A    between atoms: N_17  and  C_22
REMARK    7  A    between atoms: C_18  and  C_19
REMARK    8  A    between atoms: C_19  and  C_20
REMARK    9  A    between atoms: C_19  and  C_21
REMARK   10  A    between atoms: C_23  and  N_38
REMARK   11  A    between atoms: N_24  and  C_31
REMARK   12  A    between atoms: C_31  and  C_32
REMARK                            x       y       z     vdW  Elec       q    Type
REMARK                         _______ _______ _______ _____ _____    ______ ____
ROOT
ATOM      1  C   UNL     1      -2.025  -5.049   4.223  0.00  0.00    +0.267 C 
ATOM      2  O   UNL     1      -2.347  -5.172   5.390  0.00  0.00    -0.268 OA
ATOM      3  N   UNL     1      -2.665  -5.753   3.268  0.00  0.00    -0.259 N 
ENDROOT
BRANCH   3   4
ATOM      4  C   UNL     1      -3.638  -6.708   3.630  0.00  0.00    +0.140 A 
ATOM      5  C   UNL     1      -3.481  -8.035   3.286  0.00  0.00    +0.128 A 
ATOM      6  N   UNL     1      -4.447  -8.943   3.653  0.00  0.00    -0.276 N 
ATOM      7  C   UNL     1      -5.532  -8.541   4.340  0.00  0.00    +0.331 A 
ATOM      8  O   UNL     1      -6.375  -9.359   4.656  0.00  0.00    -0.246 OA
ATOM      9  N   UNL     1      -5.702  -7.252   4.685  0.00  0.00    -0.273 N 
ATOM     10  H   UNL     1      -6.493  -6.989   5.180  0.00  0.00    +0.173 HD
ATOM     11  C   UNL     1      -4.783  -6.324   4.354  0.00  0.00    +0.277 A 
ATOM     12  O   UNL     1      -4.944  -5.159   4.675  0.00  0.00    -0.266 OA
BRANCH   5  13
ATOM     13  N   UNL     1      -2.373  -8.445   2.584  0.00  0.00    -0.343 N 
ATOM     14  H   UNL     1      -1.657  -7.817   2.397  0.00  0.00    +0.144 HD
ATOM     15  H   UNL     1      -2.307  -9.362   2.275  0.00  0.00    +0.144 HD
ENDBRANCH   5  13
BRANCH   6  16
ATOM     16  C   UNL     1      -4.294 -10.355   3.294  0.00  0.00    +0.163 C 
BRANCH  16  17
ATOM     17  C   UNL     1      -3.555 -11.075   4.393  0.00  0.00    -0.028 A 
ATOM     18  C   UNL     1      -2.175 -11.151   4.362  0.00  0.00    +0.005 A 
ATOM     19  C   UNL     1      -1.497 -11.812   5.370  0.00  0.00    +0.000 A 
ATOM     20  C   UNL     1      -2.199 -12.396   6.407  0.00  0.00    +0.000 A 
ATOM     21  C   UNL     1      -3.579 -12.319   6.438  0.00  0.00    +0.000 A 
ATOM     22  C   UNL     1      -4.257 -11.655   5.433  0.00  0.00    +0.005 A 
ENDBRANCH  16  17
ENDBRANCH   6  16
ENDBRANCH   3   4
BRANCH   1  28
ATOM     23  N   UNL     1       1.324  -3.754   3.353  0.00  0.00    -0.160 N 
ATOM     24  C   UNL     1       1.226  -2.423   3.539  0.00  0.00    +0.240 C 
ATOM     25  O   UNL     1       2.151  -1.697   3.240  0.00  0.00    -0.273 OA
ATOM     26  C   UNL     1      -0.036  -1.839   4.120  0.00  0.00    +0.104 C 
ATOM     27  C   UNL     1      -1.235  -2.671   3.659  0.00  0.00    +0.072 C 
ATOM     28  C   UNL     1      -0.939  -4.134   3.854  0.00  0.00    +0.122 C 
ATOM     29  N   UNL     1       0.262  -4.596   3.696  0.00  0.00    -0.172 NA
BRANCH  23  35
ATOM     30  C   UNL     1       3.999  -4.936  -0.600  0.00  0.00    +0.044 C 
ATOM     31  C   UNL     1       3.816  -4.882   0.895  0.00  0.00    -0.049 A 
ATOM     32  C   UNL     1       4.806  -5.368   1.730  0.00  0.00    +0.004 A 
ATOM     33  C   UNL     1       4.642  -5.320   3.102  0.00  0.00    +0.005 A 
ATOM     34  C   UNL     1       3.489  -4.786   3.643  0.00  0.00    -0.027 A 
ATOM     35  C   UNL     1       2.494  -4.296   2.808  0.00  0.00    +0.063 A 
ATOM     36  C   UNL     1       2.664  -4.341   1.430  0.00  0.00    +0.029 A 
ATOM     37  C   UNL     1       3.311  -4.734   5.139  0.00  0.00    +0.046 C 
ENDBRANCH  23  35
ENDBRANCH   1  28
BRANCH   3  38
ATOM     38  C   UNL     1      -2.350  -5.527   1.856  0.00  0.00    +0.117 C 
BRANCH  38  39
ATOM     39  C   UNL     1      -3.169  -4.344   1.334  0.00  0.00    +0.001 C 
ATOM     40  C   UNL     1      -2.739  -4.019  -0.098  0.00  0.00    +0.009 C 
ATOM     41  C   UNL     1      -4.655  -4.705   1.351  0.00  0.00    +0.009 C 
ENDBRANCH  38  39
ENDBRANCH   3  38
TORSDOF 8
