REMARK  Name = ZINC32594334
REMARK  15 active torsions:
REMARK  status: ('A' for Active; 'I' for Inactive)
REMARK    1  A    between atoms: C_1  and  C_2
REMARK    2  A    between atoms: C_2  and  C_3
REMARK    3  A    between atoms: C_3  and  C_5
REMARK    4  A    between atoms: C_3  and  N_6
REMARK    5  A    between atoms: C_7  and  C_31
REMARK    6  A    between atoms: N_9  and  C_12
REMARK    7  A    between atoms: C_14  and  N_27
REMARK    8  A    between atoms: C_16  and  O_26
REMARK    9  A    between atoms: C_18  and  O_25
REMARK   10  A    between atoms: C_20  and  C_23
REMARK   11  A    between atoms: C_23  and  O_24
REMARK   12  A    between atoms: C_28  and  C_30
REMARK   13  A    between atoms: C_31  and  O_32
REMARK   14  A    between atoms: O_32  and  C_33
REMARK   15  A    between atoms: C_38  and  C_39
REMARK                            x       y       z     vdW  Elec       q    Type
REMARK                         _______ _______ _______ _____ _____    ______ ____
ROOT
ATOM      1  N   UNL     1       1.054   2.521   0.005  0.00  0.00    -0.301 N 
ATOM      2  C   UNL     1       0.613   3.821   0.016  0.00  0.00    +0.170 A 
ATOM      3  N   UNL     1      -0.681   3.823   0.028  0.00  0.00    -0.150 NA
ATOM      4  N   UNL     1      -1.119   2.492   0.020  0.00  0.00    -0.209 N 
ATOM      5  C   UNL     1      -0.021   1.708   0.011  0.00  0.00    +0.181 A 
ATOM      6  S   UNL     1       0.002  -0.004   0.002  0.00  0.00    -0.011 S 
ENDROOT
BRANCH   4   7
ATOM      7  C   UNL     1      -2.512   2.036   0.024  0.00  0.00    +0.262 C 
ATOM      8  C   UNL     1      -3.107   2.227   1.422  0.00  0.00    +0.155 C 
ATOM      9  C   UNL     1      -4.580   1.805   1.403  0.00  0.00    +0.170 C 
ATOM     10  C   UNL     1      -5.320   2.621   0.339  0.00  0.00    +0.176 C 
ATOM     11  C   UNL     1      -4.639   2.415  -1.017  0.00  0.00    +0.177 C 
ATOM     12  O   UNL     1      -3.265   2.798  -0.921  0.00  0.00    -0.345 OA
BRANCH   8  13
ATOM     13  N   UNL     1      -2.373   1.401   2.383  0.00  0.00    -0.306 N 
ATOM     14  C   UNL     1      -2.348   1.745   3.686  0.00  0.00    +0.210 C 
ATOM     15  O   UNL     1      -2.933   2.739   4.062  0.00  0.00    -0.276 OA
ATOM     16  C   UNL     1      -1.593   0.895   4.676  0.00  0.00    +0.109 C 
ATOM     17  H   UNL     1      -1.843   0.499   2.042  0.00  0.00    +0.149 HD
ENDBRANCH   8  13
BRANCH  10  18
ATOM     18  O   UNL     1      -6.678   2.185   0.262  0.00  0.00    -0.387 OA
ATOM     19  H   UNL     1      -7.369   2.659  -0.452  0.00  0.00    +0.210 HD
ENDBRANCH  10  18
BRANCH   9  20
ATOM     20  O   UNL     1      -5.163   2.048   2.684  0.00  0.00    -0.387 OA
ATOM     21  H   UNL     1      -6.222   1.806   2.861  0.00  0.00    +0.210 HD
ENDBRANCH   9  20
BRANCH  11  22
ATOM     22  C   UNL     1      -5.335   3.275  -2.074  0.00  0.00    +0.190 C 
BRANCH  22  23
ATOM     23  O   UNL     1      -4.776   2.997  -3.359  0.00  0.00    -0.392 OA
ATOM     24  H   UNL     1      -5.152   3.523  -4.248  0.00  0.00    +0.210 HD
ENDBRANCH  22  23
ENDBRANCH  11  22
ENDBRANCH   4   7
BRANCH   1  25
ATOM     25  C   UNL     1       2.455   2.090  -0.009  0.00  0.00    +0.088 C 
ATOM     26  C   UNL     1       2.719   1.257  -1.266  0.00  0.00    +0.031 C 
BRANCH  25  28
ATOM     27  C   UNL     1       4.231   0.899   1.282  0.00  0.00    +0.006 C 
ATOM     28  C   UNL     1       2.741   1.244   1.233  0.00  0.00    +0.021 C 
ENDBRANCH  25  28
ENDBRANCH   1  25
BRANCH   2  29
ATOM     29  C   UNL     1       1.492   5.045   0.013  0.00  0.00    +0.305 C 
BRANCH  29  30
ATOM     30  O   UNL     1       1.757   5.438  -1.335  0.00  0.00    -0.484 OA
BRANCH  30  31
ATOM     31  C   UNL     1       2.541   6.534  -1.516  0.00  0.00    +0.124 A 
ATOM     32  C   UNL     1       3.041   7.219  -0.418  0.00  0.00    +0.046 A 
ATOM     33  C   UNL     1       3.842   8.329  -0.604  0.00  0.00    +0.004 A 
ATOM     34  C   UNL     1       4.137   8.763  -1.883  0.00  0.00    +0.000 A 
ATOM     35  C   UNL     1       3.636   8.085  -2.979  0.00  0.00    +0.007 A 
ATOM     36  C   UNL     1       2.838   6.971  -2.798  0.00  0.00    -0.009 A 
ATOM     37  C   UNL     1       2.293   6.232  -3.993  0.00  0.00    +0.047 C 
ENDBRANCH  30  31
ENDBRANCH  29  30
ENDBRANCH   2  29
TORSDOF 11
