REMARK  Name = ZINC35483401
REMARK  18 active torsions:
REMARK  status: ('A' for Active; 'I' for Inactive)
REMARK    1  A    between atoms: C_1  and  C_2
REMARK    2  A    between atoms: C_2  and  C_3
REMARK    3  A    between atoms: C_3  and  C_4
REMARK    4  A    between atoms: C_4  and  C_5
REMARK    5  A    between atoms: C_5  and  O_6
REMARK    6  A    between atoms: O_6  and  C_7
REMARK    7  A    between atoms: C_10  and  C_16
REMARK    8  A    between atoms: C_12  and  O_13
REMARK    9  A    between atoms: O_13  and  C_14
REMARK   10  A    between atoms: C_14  and  C_15
REMARK   11  A    between atoms: N_31  and  C_32
REMARK   12  A    between atoms: C_32  and  C_33
REMARK   13  A    between atoms: C_33  and  C_34
REMARK   14  A    between atoms: C_34  and  N_35
REMARK   15  A    between atoms: N_35  and  C_36
REMARK   16  A    between atoms: N_35  and  C_38
REMARK   17  A    between atoms: C_36  and  C_37
REMARK   18  A    between atoms: C_38  and  C_39
REMARK                            x       y       z     vdW  Elec       q    Type
REMARK                         _______ _______ _______ _____ _____    ______ ____
ROOT
ATOM      1  C   UNL     1       4.034  -7.221  -8.333  0.00  0.00    +0.145 C 
ATOM      2  C   UNL     1       3.440  -7.240  -9.704  0.00  0.00    +0.072 A 
ATOM      3  C   UNL     1       2.290  -7.969 -10.248  0.00  0.00    +0.199 A 
ATOM      4  O   UNL     1       1.502  -8.587  -9.553  0.00  0.00    -0.287 OA
ATOM      5  C   UNL     1       2.177  -7.883 -11.726  0.00  0.00    +0.064 A 
ATOM      6  C   UNL     1       1.260  -8.679 -12.412  0.00  0.00    +0.015 A 
ATOM      7  C   UNL     1       1.171  -8.591 -13.773  0.00  0.00    +0.001 A 
ATOM      8  C   UNL     1       1.990  -7.714 -14.472  0.00  0.00    +0.004 A 
ATOM      9  C   UNL     1       2.899  -6.920 -13.810  0.00  0.00    +0.047 A 
ATOM     10  C   UNL     1       3.007  -6.989 -12.421  0.00  0.00    +0.139 A 
ATOM     11  O   UNL     1       3.900  -6.192 -11.791  0.00  0.00    -0.450 OA
ATOM     12  C   UNL     1       4.181  -6.404 -10.490  0.00  0.00    +0.199 A 
ATOM     13  C   UNL     1       5.263  -5.834  -9.668  0.00  0.00    +0.283 C 
ATOM     14  O   UNL     1       6.103  -5.053 -10.069  0.00  0.00    -0.267 OA
ATOM     15  N   UNL     1       5.185  -6.306  -8.406  0.00  0.00    -0.284 N 
ENDROOT
BRANCH   1  19
ATOM     16  C   UNL     1       1.173  -5.767  -5.507  0.00  0.00    +0.162 A 
ATOM     17  C   UNL     1       1.843  -4.882  -6.337  0.00  0.00    +0.050 A 
ATOM     18  C   UNL     1       2.768  -5.355  -7.249  0.00  0.00    +0.009 A 
ATOM     19  C   UNL     1       3.026  -6.710  -7.337  0.00  0.00    -0.019 A 
ATOM     20  C   UNL     1       2.360  -7.599  -6.512  0.00  0.00    +0.055 A 
ATOM     21  C   UNL     1       1.437  -7.130  -5.591  0.00  0.00    +0.162 A 
BRANCH  16  22
ATOM     22  O   UNL     1       0.264  -5.303  -4.609  0.00  0.00    -0.488 OA
BRANCH  22  23
ATOM     23  C   UNL     1       0.044  -3.891  -4.578  0.00  0.00    +0.229 C 
BRANCH  23  24
ATOM     24  C   UNL     1      -1.004  -3.561  -3.513  0.00  0.00    +0.041 C 
BRANCH  24  25
ATOM     25  C   UNL     1      -1.239  -2.050  -3.480  0.00  0.00    +0.003 C 
BRANCH  25  27
ATOM     26  C   UNL     1      -2.522  -0.208  -2.383  0.00  0.00    +0.004 C 
ATOM     27  C   UNL     1      -2.287  -1.720  -2.416  0.00  0.00    -0.003 C 
ENDBRANCH  25  27
ENDBRANCH  24  25
ENDBRANCH  23  24
ENDBRANCH  22  23
ENDBRANCH  16  22
BRANCH  21  28
ATOM     28  O   UNL     1       0.786  -8.002  -4.776  0.00  0.00    -0.489 OA
BRANCH  28  29
ATOM     29  C   UNL     1       1.107  -9.387  -4.918  0.00  0.00    +0.226 C 
ATOM     30  C   UNL     1       0.281 -10.207  -3.924  0.00  0.00    +0.048 C 
ENDBRANCH  28  29
ENDBRANCH  21  28
ENDBRANCH   1  19
BRANCH  15  31
ATOM     31  C   UNL     1       6.086  -5.966  -7.301  0.00  0.00    +0.107 C 
BRANCH  31  32
ATOM     32  C   UNL     1       7.255  -6.953  -7.276  0.00  0.00    +0.000 C 
BRANCH  32  33
ATOM     33  C   UNL     1       8.196  -6.598  -6.122  0.00  0.00    -0.077 C 
BRANCH  33  34
ATOM     34  N   UNL     1       9.319  -7.545  -6.098  0.00  0.00    +0.379 N 
ATOM     35  H   UNL     1       8.963  -8.488  -6.051  0.00  0.00    -0.082 HD
BRANCH  34  36
ATOM     36  C   UNL     1      10.122  -7.385  -7.317  0.00  0.00    -0.082 C 
ATOM     37  C   UNL     1      11.205  -8.464  -7.361  0.00  0.00    -0.017 C 
ENDBRANCH  34  36
BRANCH  34  38
ATOM     38  C   UNL     1      10.157  -7.280  -4.921  0.00  0.00    -0.082 C 
ATOM     39  C   UNL     1       9.363  -7.585  -3.650  0.00  0.00    -0.017 C 
ENDBRANCH  34  38
ENDBRANCH  33  34
ENDBRANCH  32  33
ENDBRANCH  31  32
ENDBRANCH  15  31
TORSDOF 14
