REMARK  Name = ZINC39626663
REMARK  9 active torsions:
REMARK  status: ('A' for Active; 'I' for Inactive)
REMARK    1  A    between atoms: C_1  and  C_2
REMARK    2  A    between atoms: C_2  and  N_3
REMARK    3  A    between atoms: N_3  and  C_4
REMARK    4  A    between atoms: N_3  and  C_6
REMARK    5  A    between atoms: C_4  and  C_5
REMARK    6  A    between atoms: C_6  and  C_7
REMARK    7  A    between atoms: C_7  and  N_8
REMARK    8  A    between atoms: C_9  and  C_11
REMARK    9  A    between atoms: C_22  and  C_24
REMARK                            x       y       z     vdW  Elec       q    Type
REMARK                         _______ _______ _______ _____ _____    ______ ____
ROOT
ATOM      1  C   UNL     1      -3.932  -6.213   0.911  0.00  0.00    +0.100 C 
ATOM      2  C   UNL     1      -3.533  -6.597   2.353  0.00  0.00    +0.121 C 
ATOM      3  N   UNL     1      -4.813  -6.933   3.020  0.00  0.00    -0.296 N 
ATOM      4  C   UNL     1      -5.586  -7.663   1.988  0.00  0.00    +0.115 C 
ATOM      5  C   UNL     1      -5.279  -6.918   0.674  0.00  0.00    -0.004 C 
ATOM      6  C   UNL     1      -5.160  -7.908  -0.481  0.00  0.00    -0.010 C 
ATOM      7  C   UNL     1      -6.526  -8.553  -0.736  0.00  0.00    -0.082 C 
ATOM      8  N   UNL     1      -7.509  -7.511  -1.057  0.00  0.00    +0.379 N 
ATOM      9  C   UNL     1      -7.685  -6.617   0.093  0.00  0.00    -0.082 C 
ATOM     10  C   UNL     1      -6.369  -5.890   0.384  0.00  0.00    -0.010 C 
ATOM     11  C   UNL     1      -5.189  -6.640   4.281  0.00  0.00    +0.249 C 
ATOM     12  O   UNL     1      -6.282  -6.987   4.685  0.00  0.00    -0.270 OA
ATOM     13  H   UNL     1      -7.184  -6.978  -1.850  0.00  0.00    -0.086 HD
ATOM     14  H   UNL     1      -8.392  -7.943  -1.285  0.00  0.00    -0.086 HD
ENDROOT
BRANCH  11  15
ATOM     15  C   UNL     1      -4.274  -5.897   5.171  0.00  0.00    +0.073 A 
ATOM     16  C   UNL     1      -4.316  -4.501   5.215  0.00  0.00    +0.054 A 
ATOM     17  C   UNL     1      -3.458  -3.814   6.050  0.00  0.00    +0.021 A 
ATOM     18  C   UNL     1      -2.557  -4.504   6.842  0.00  0.00    +0.003 A 
ATOM     19  C   UNL     1      -2.509  -5.886   6.803  0.00  0.00    +0.021 A 
ATOM     20  C   UNL     1      -3.365  -6.588   5.978  0.00  0.00    +0.054 A 
ATOM     21 CL   UNL     1      -3.308  -8.322   5.937  0.00  0.00    -0.083 Cl
ATOM     22 CL   UNL     1      -5.445  -3.633   4.222  0.00  0.00    -0.083 Cl
ENDBRANCH  11  15
BRANCH   1  24
ATOM     23  N   UNL     1      -4.015  -4.128  -0.417  0.00  0.00    -0.317 N 
ATOM     24  C   UNL     1      -4.093  -4.719   0.792  0.00  0.00    +0.218 C 
ATOM     25  O   UNL     1      -4.294  -4.050   1.783  0.00  0.00    -0.275 OA
ATOM     26  H   UNL     1      -3.854  -4.663  -1.209  0.00  0.00    +0.149 HD
BRANCH  23  27
ATOM     27  C   UNL     1      -4.171  -2.676  -0.533  0.00  0.00    +0.085 C 
BRANCH  27  28
ATOM     28  C   UNL     1      -4.040  -2.264  -2.000  0.00  0.00    -0.060 C 
BRANCH  28  29
ATOM     29  N   UNL     1      -4.303  -0.825  -2.131  0.00  0.00    +0.380 N 
ATOM     30  H   UNL     1      -5.203  -0.610  -1.728  0.00  0.00    -0.082 HD
BRANCH  29  32
ATOM     31  C   UNL     1      -3.599   1.421  -1.456  0.00  0.00    -0.017 C 
ATOM     32  C   UNL     1      -3.258  -0.070  -1.427  0.00  0.00    -0.082 C 
ENDBRANCH  29  32
BRANCH  29  33
ATOM     33  C   UNL     1      -4.302  -0.454  -3.553  0.00  0.00    -0.082 C 
ATOM     34  C   UNL     1      -5.492  -1.113  -4.253  0.00  0.00    -0.017 C 
ENDBRANCH  29  33
ENDBRANCH  28  29
ENDBRANCH  27  28
ENDBRANCH  23  27
ENDBRANCH   1  24
TORSDOF 7
