REMARK  Name = ZINC00678752
REMARK  14 active torsions:
REMARK  status: ('A' for Active; 'I' for Inactive)
REMARK    1  A    between atoms: C_1  and  C_2
REMARK    2  A    between atoms: C_3  and  C_35
REMARK    3  A    between atoms: C_4  and  C_25
REMARK    4  A    between atoms: C_10  and  C_15
REMARK    5  A    between atoms: C_18  and  O_23
REMARK    6  A    between atoms: C_19  and  O_21
REMARK    7  A    between atoms: O_21  and  C_22
REMARK    8  A    between atoms: O_23  and  C_24
REMARK    9  A    between atoms: C_29  and  O_33
REMARK   10  A    between atoms: C_30  and  O_31
REMARK   11  A    between atoms: O_31  and  C_32
REMARK   12  A    between atoms: O_33  and  C_34
REMARK   13  A    between atoms: C_35  and  O_37
REMARK   14  A    between atoms: O_37  and  C_38
REMARK                            x       y       z     vdW  Elec       q    Type
REMARK                         _______ _______ _______ _____ _____    ______ ____
ROOT
ATOM      1  C   UNL     1      -1.064   1.308  -0.790  0.00  0.00    +0.061 C 
ATOM      2  C   UNL     1      -0.521  -0.041  -0.393  0.00  0.00    +0.016 C 
ATOM      3  C   UNL     1      -1.317  -1.123  -0.444  0.00  0.00    +0.065 C 
ATOM      4  C   UNL     1      -0.813  -2.479  -0.049  0.00  0.00    +0.096 C 
ATOM      5  C   UNL     1       0.695  -2.514  -0.038  0.00  0.00    +0.024 C 
ATOM      6  C   UNL     1       1.411  -1.370   0.000  0.00  0.00    +0.016 C 
ATOM      7  N   UNL     1       0.780  -0.157   0.010  0.00  0.00    -0.321 N 
ATOM      8  C   UNL     1       2.919  -1.398   0.030  0.00  0.00    +0.059 C 
ATOM      9  C   UNL     1       3.425  -2.629  -0.725  0.00  0.00    +0.032 C 
ATOM     10  C   UNL     1       2.831  -3.880  -0.070  0.00  0.00    +0.088 C 
ATOM     11  C   UNL     1       1.331  -3.768  -0.069  0.00  0.00    +0.162 C 
ATOM     12  O   UNL     1       0.657  -4.778  -0.094  0.00  0.00    -0.292 OA
ATOM     13  H   UNL     1       1.262   0.630   0.311  0.00  0.00    +0.152 HD
ENDROOT
BRANCH   9  14
ATOM     14  C   UNL     1       4.929  -2.682  -0.656  0.00  0.00    -0.040 A 
ATOM     15  C   UNL     1       5.561  -2.767   0.571  0.00  0.00    +0.008 A 
ATOM     16  C   UNL     1       6.941  -2.816   0.639  0.00  0.00    +0.049 A 
ATOM     17  C   UNL     1       7.694  -2.780  -0.523  0.00  0.00    +0.161 A 
ATOM     18  C   UNL     1       7.058  -2.694  -1.758  0.00  0.00    +0.162 A 
ATOM     19  C   UNL     1       5.675  -2.650  -1.820  0.00  0.00    +0.053 A 
BRANCH  18  20
ATOM     20  O   UNL     1       7.793  -2.658  -2.902  0.00  0.00    -0.491 OA
ATOM     21  C   UNL     1       7.073  -2.570  -4.133  0.00  0.00    +0.277 C 
ENDBRANCH  18  20
BRANCH  17  22
ATOM     22  O   UNL     1       9.052  -2.827  -0.457  0.00  0.00    -0.491 OA
ATOM     23  C   UNL     1       9.635  -2.914   0.844  0.00  0.00    +0.277 C 
ENDBRANCH  17  22
ENDBRANCH   9  14
BRANCH   4  24
ATOM     24  C   UNL     1      -1.325  -2.816   1.328  0.00  0.00    +0.010 A 
ATOM     25  C   UNL     1      -2.328  -3.756   1.482  0.00  0.00    +0.008 A 
ATOM     26  C   UNL     1      -2.799  -4.067   2.743  0.00  0.00    +0.004 A 
ATOM     27  C   UNL     1      -2.271  -3.440   3.857  0.00  0.00    +0.049 A 
ATOM     28  C   UNL     1      -1.266  -2.498   3.709  0.00  0.00    +0.162 A 
ATOM     29  C   UNL     1      -0.787  -2.189   2.440  0.00  0.00    +0.166 A 
BRANCH  29  30
ATOM     30  O   UNL     1       0.203  -1.269   2.290  0.00  0.00    -0.491 OA
ATOM     31  C   UNL     1      -0.159   0.105   2.447  0.00  0.00    +0.277 C 
ENDBRANCH  29  30
BRANCH  28  32
ATOM     32  O   UNL     1      -0.746  -1.880   4.803  0.00  0.00    -0.491 OA
ATOM     33  C   UNL     1      -1.282  -2.251   6.075  0.00  0.00    +0.277 C 
ENDBRANCH  28  32
ENDBRANCH   4  24
BRANCH   3  34
ATOM     34  C   UNL     1      -2.656  -0.979  -0.877  0.00  0.00    +0.338 C 
ATOM     35  O   UNL     1      -3.077   0.116  -1.199  0.00  0.00    -0.245 OA
BRANCH  34  36
ATOM     36  O   UNL     1      -3.466  -2.056  -0.932  0.00  0.00    -0.458 OA
BRANCH  36  37
ATOM     37  C   UNL     1      -4.806  -1.838  -1.379  0.00  0.00    +0.177 C 
ATOM     38  C   UNL     1      -5.731  -1.585  -0.171  0.00  0.00    +0.044 C 
ATOM     39  C   UNL     1      -7.057  -2.288  -0.554  0.00  0.00    +0.004 C 
ATOM     40  C   UNL     1      -6.569  -3.566  -1.280  0.00  0.00    +0.004 C 
ATOM     41  C   UNL     1      -5.339  -3.098  -2.084  0.00  0.00    +0.044 C 
ENDBRANCH  36  37
ENDBRANCH  34  36
ENDBRANCH   3  34
TORSDOF 9
