REMARK  Name = ZINC10033381
REMARK  9 active torsions:
REMARK  status: ('A' for Active; 'I' for Inactive)
REMARK    1  A    between atoms: C_1  and  C_2
REMARK    2  A    between atoms: C_5  and  N_12
REMARK    3  A    between atoms: C_8  and  C_10
REMARK    4  A    between atoms: C_8  and  C_11
REMARK    5  A    between atoms: C_13  and  C_15
REMARK    6  A    between atoms: N_17  and  C_18
REMARK    7  A    between atoms: N_22  and  C_23
REMARK    8  A    between atoms: C_26  and  O_29
REMARK    9  A    between atoms: O_29  and  C_30
REMARK                            x       y       z     vdW  Elec       q    Type
REMARK                         _______ _______ _______ _____ _____    ______ ____
ROOT
ATOM      1  C   UNL     1      -3.664   9.273   1.430  0.00  0.00    +0.134 A 
ATOM      2  C   UNL     1      -2.971  10.065   2.319  0.00  0.00    +0.038 A 
ATOM      3  C   UNL     1      -3.145  11.383   1.936  0.00  0.00    +0.091 A 
ATOM      4  N   UNL     1      -3.914  11.406   0.856  0.00  0.00    -0.168 NA
ATOM      5  N   UNL     1      -4.246  10.093   0.519  0.00  0.00    -0.218 N 
ATOM      6  C   UNL     1      -2.455  12.444   2.792  0.00  0.00    +0.223 C 
ATOM      7  S   UNL     1      -2.038  11.491   4.309  0.00  0.00    -0.021 S 
ATOM      8  O   UNL     1      -3.090  11.626   5.255  0.00  0.00    -0.174 OA
ATOM      9  O   UNL     1      -0.701  11.778   4.696  0.00  0.00    -0.174 OA
ATOM     10  C   UNL     1      -2.109   9.815   3.554  0.00  0.00    +0.206 C 
ENDROOT
BRANCH   5  11
ATOM     11  C   UNL     1      -5.040   9.693  -0.566  0.00  0.00    +0.068 A 
ATOM     12  C   UNL     1      -4.706   8.556  -1.289  0.00  0.00    +0.031 A 
ATOM     13  C   UNL     1      -5.492   8.160  -2.353  0.00  0.00    +0.048 A 
ATOM     14  C   UNL     1      -6.609   8.903  -2.706  0.00  0.00    +0.120 A 
ATOM     15  C   UNL     1      -6.940  10.042  -1.987  0.00  0.00    +0.048 A 
ATOM     16  C   UNL     1      -6.158  10.437  -0.919  0.00  0.00    +0.031 A 
BRANCH  14  17
ATOM     17  O   UNL     1      -7.379   8.515  -3.757  0.00  0.00    -0.495 OA
ATOM     18  C   UNL     1      -6.979   7.333  -4.453  0.00  0.00    +0.277 C 
ENDBRANCH  14  17
ENDBRANCH   5  11
BRANCH   1  21
ATOM     19  C   UNL     1      -2.752   7.160   2.004  0.00  0.00    +0.304 C 
ATOM     20  O   UNL     1      -1.746   7.713   2.399  0.00  0.00    -0.265 OA
ATOM     21  N   UNL     1      -3.748   7.884   1.458  0.00  0.00    -0.262 N 
ATOM     22  H   UNL     1      -4.524   7.438   1.085  0.00  0.00    +0.157 HD
BRANCH  19  24
ATOM     23  N   UNL     1      -1.888   4.953   2.669  0.00  0.00    -0.305 N 
ATOM     24  C   UNL     1      -2.885   5.678   2.123  0.00  0.00    +0.300 C 
ATOM     25  O   UNL     1      -3.890   5.125   1.728  0.00  0.00    -0.265 OA
ATOM     26  H   UNL     1      -1.084   5.395   2.985  0.00  0.00    +0.149 HD
BRANCH  23  30
ATOM     27  C   UNL     1      -1.281   0.663   0.287  0.00  0.00    +0.007 C 
ATOM     28  C   UNL     1      -1.718   1.321   1.598  0.00  0.00    -0.012 C 
ATOM     29  C   UNL     1      -1.581   2.841   1.476  0.00  0.00    +0.025 C 
ATOM     30  C   UNL     1      -2.018   3.499   2.786  0.00  0.00    +0.074 C 
ATOM     31  C   UNL     1      -1.133   2.997   3.929  0.00  0.00    +0.028 C 
ATOM     32  C   UNL     1      -1.269   1.478   4.051  0.00  0.00    -0.033 C 
ATOM     33  C   UNL     1      -0.832   0.820   2.740  0.00  0.00    +0.009 C 
ATOM     34  C   UNL     1      -2.728   1.119   4.340  0.00  0.00    +0.011 C 
ATOM     35  C   UNL     1      -0.384   0.977   5.193  0.00  0.00    +0.011 C 
ENDBRANCH  23  30
ENDBRANCH  19  24
ENDBRANCH   1  21
TORSDOF 5
