REMARK  Name = ZINC39712499
REMARK  7 active torsions:
REMARK  status: ('A' for Active; 'I' for Inactive)
REMARK    1  A    between atoms: C_1  and  C_2
REMARK    2  A    between atoms: C_4  and  C_32
REMARK    3  A    between atoms: C_8  and  C_12
REMARK    4  A    between atoms: C_12  and  C_14
REMARK    5  A    between atoms: C_12  and  S_15
REMARK    6  A    between atoms: S_15  and  C_16
REMARK    7  A    between atoms: C_20  and  C_22
REMARK                            x       y       z     vdW  Elec       q    Type
REMARK                         _______ _______ _______ _____ _____    ______ ____
ROOT
ATOM      1  C   UNL     1      -3.982  -4.357   6.851  0.00  0.00    +0.340 C 
ATOM      2  N   UNL     1      -2.962  -3.832   7.774  0.00  0.00    -0.219 N 
ATOM      3  N   UNL     1      -2.088  -4.902   8.017  0.00  0.00    -0.145 NA
ATOM      4  C   UNL     1      -2.478  -5.959   7.356  0.00  0.00    +0.238 C 
ATOM      5  O   UNL     1      -3.603  -5.723   6.633  0.00  0.00    -0.443 OA
ATOM      6  H   UNL     1      -2.905  -2.934   8.138  0.00  0.00    +0.173 HD
ENDROOT
BRANCH   4   7
ATOM      7  C   UNL     1      -1.814  -7.193   7.389  0.00  0.00    +0.043 C 
ATOM      8  C   UNL     1      -0.663  -7.513   8.111  0.00  0.00    +0.008 A 
ATOM      9  C   UNL     1       0.157  -6.761   8.980  0.00  0.00    +0.010 A 
ATOM     10  C   UNL     1       1.240  -7.344   9.556  0.00  0.00    +0.001 A 
ATOM     11  C   UNL     1       1.569  -8.678   9.311  0.00  0.00    +0.002 A 
ATOM     12  C   UNL     1       0.827  -9.459   8.487  0.00  0.00    +0.026 A 
ATOM     13  C   UNL     1      -0.320  -8.920   7.849  0.00  0.00    +0.043 A 
ATOM     14  N   UNL     1      -1.191  -9.460   7.019  0.00  0.00    -0.380 N 
ATOM     15  C   UNL     1      -2.199  -8.459   6.657  0.00  0.00    +0.154 C 
ATOM     16  H   UNL     1      -1.169 -10.376   6.701  0.00  0.00    +0.160 HD
ENDBRANCH   4   7
BRANCH   1  17
ATOM     17  S   UNL     1      -3.956  -3.436   5.288  0.00  0.00    -0.086 S 
BRANCH  17  18
ATOM     18  C   UNL     1      -2.262  -3.654   4.678  0.00  0.00    +0.114 C 
ATOM     19  C   UNL     1      -2.022  -5.130   4.356  0.00  0.00    +0.027 C 
BRANCH  18  26
ATOM     20  C   UNL     1      -0.019   1.526   0.010  0.00  0.00    +0.024 C 
ATOM     21  C   UNL     1       0.002  -0.004   0.002  0.00  0.00    +0.076 C 
ATOM     22  C   UNL     1      -1.399  -0.565   0.089  0.00  0.00    -0.045 C 
ATOM     23  C   UNL     1      -1.704  -1.321   1.155  0.00  0.00    +0.071 C 
ATOM     24  C   UNL     1      -0.645  -1.546   2.162  0.00  0.00    +0.111 C 
ATOM     25  N   UNL     1      -0.881  -2.276   3.226  0.00  0.00    -0.226 NA
ATOM     26  C   UNL     1      -2.066  -2.829   3.432  0.00  0.00    +0.136 C 
ATOM     27  N   UNL     1      -3.079  -2.698   2.609  0.00  0.00    -0.160 NA
ATOM     28  C   UNL     1      -3.005  -1.988   1.478  0.00  0.00    +0.271 C 
ATOM     29  O   UNL     1      -3.966  -1.886   0.735  0.00  0.00    -0.268 OA
ATOM     30  S   UNL     1       0.764  -0.661   1.541  0.00  0.00    -0.098 S 
ATOM     31  C   UNL     1      -2.419  -0.284  -0.984  0.00  0.00    +0.041 C 
ENDBRANCH  18  26
ENDBRANCH  17  18
ENDBRANCH   1  17
TORSDOF 4
