REMARK  Name = ZINC20750304
REMARK  6 active torsions:
REMARK  status: ('A' for Active; 'I' for Inactive)
REMARK    1  A    between atoms: C_1  and  C_2
REMARK    2  A    between atoms: C_2  and  C_3
REMARK    3  A    between atoms: C_2  and  C_4
REMARK    4  A    between atoms: C_4  and  O_5
REMARK    5  A    between atoms: O_5  and  C_6
REMARK    6  A    between atoms: C_13  and  C_22
REMARK                            x       y       z     vdW  Elec       q    Type
REMARK                         _______ _______ _______ _____ _____    ______ ____
ROOT
ATOM      1  C   UNL     1      -5.486   3.742  -2.090  0.00  0.00    +0.142 A 
ATOM      2  C   UNL     1      -6.750   4.302  -2.141  0.00  0.00    +0.047 A 
ATOM      3  C   UNL     1      -7.256   4.953  -1.032  0.00  0.00    +0.004 A 
ATOM      4  C   UNL     1      -6.504   5.042   0.121  0.00  0.00    +0.006 A 
ATOM      5  C   UNL     1      -5.233   4.483   0.185  0.00  0.00    -0.016 A 
ATOM      6  C   UNL     1      -4.723   3.830  -0.922  0.00  0.00    +0.074 A 
ATOM      7  N   UNL     1      -3.465   3.262  -0.924  0.00  0.00    -0.334 N 
ATOM      8  C   UNL     1      -2.554   3.870   0.045  0.00  0.00    +0.108 C 
ATOM      9  C   UNL     1      -3.168   3.787   1.444  0.00  0.00    +0.029 C 
ATOM     10  C   UNL     1      -4.469   4.620   1.468  0.00  0.00    +0.049 C 
ATOM     11  C   UNL     1      -3.991   6.042   1.654  0.00  0.00    -0.023 C 
ATOM     12  C   UNL     1      -2.785   6.057   2.165  0.00  0.00    -0.030 C 
ATOM     13  C   UNL     1      -2.277   4.625   2.405  0.00  0.00    +0.033 C 
ATOM     14  H   UNL     1      -3.118   2.435  -1.562  0.00  0.00    +0.147 HD
ENDROOT
BRANCH   8  15
ATOM     15  C   UNL     1      -1.239   3.134   0.030  0.00  0.00    +0.010 A 
ATOM     16  C   UNL     1      -1.220   1.751   0.017  0.00  0.00    +0.047 A 
ATOM     17  C   UNL     1      -0.013   1.076   0.008  0.00  0.00    +0.020 A 
ATOM     18  C   UNL     1       1.175   1.783   0.000  0.00  0.00    +0.003 A 
ATOM     19  C   UNL     1       1.157   3.165   0.008  0.00  0.00    +0.020 A 
ATOM     20  C   UNL     1      -0.050   3.841   0.022  0.00  0.00    +0.047 A 
ATOM     21 CL   UNL     1      -0.072   5.577   0.031  0.00  0.00    -0.083 Cl
ATOM     22 CL   UNL     1      -2.712   0.863   0.020  0.00  0.00    -0.083 Cl
ENDBRANCH   8  15
BRANCH   1  23
ATOM     23  O   UNL     1      -4.985   3.102  -3.180  0.00  0.00    -0.490 OA
BRANCH  23  24
ATOM     24  C   UNL     1      -5.817   3.047  -4.341  0.00  0.00    +0.232 C 
BRANCH  24  26
ATOM     25  C   UNL     1      -4.883   0.837  -5.037  0.00  0.00    +0.010 C 
ATOM     26  C   UNL     1      -5.088   2.294  -5.456  0.00  0.00    +0.020 C 
ATOM     27  C   UNL     1      -5.925   2.343  -6.735  0.00  0.00    +0.010 C 
ENDBRANCH  24  26
ENDBRANCH  23  24
ENDBRANCH   1  23
TORSDOF 4
