REMARK  Name = ZINC59385109
REMARK  6 active torsions:
REMARK  status: ('A' for Active; 'I' for Inactive)
REMARK    1  A    between atoms: C_1  and  C_2
REMARK    2  A    between atoms: C_3  and  C_17
REMARK    3  A    between atoms: C_4  and  C_10
REMARK    4  A    between atoms: C_13  and  O_16
REMARK    5  A    between atoms: N_19  and  N_20
REMARK    6  A    between atoms: C_21  and  C_22
REMARK                            x       y       z     vdW  Elec       q    Type
REMARK                         _______ _______ _______ _____ _____    ______ ____
ROOT
ATOM      1  C   UNL     1       0.658   1.368   0.084  0.00  0.00    +0.061 C 
ATOM      2  C   UNL     1       0.360  -0.109   0.047  0.00  0.00    +0.017 C 
ATOM      3  C   UNL     1      -0.922  -0.526  -0.023  0.00  0.00    +0.057 C 
ATOM      4  C   UNL     1      -1.177  -2.019  -0.059  0.00  0.00    +0.139 C 
ATOM      5  N   UNL     1       0.002  -2.899  -0.015  0.00  0.00    -0.315 N 
ATOM      6  C   UNL     1       1.223  -2.332   0.054  0.00  0.00    +0.135 C 
ATOM      7  S   UNL     1       2.604  -3.343   0.106  0.00  0.00    -0.019 S 
ATOM      8  N   UNL     1       1.391  -1.004   0.078  0.00  0.00    -0.300 N 
ATOM      9  H   UNL     1      -0.097  -3.864  -0.034  0.00  0.00    +0.149 HD
ATOM     10  H   UNL     1       2.296  -0.658   0.125  0.00  0.00    +0.154 HD
ENDROOT
BRANCH   4  11
ATOM     11  C   UNL     1      -1.941  -2.329  -1.321  0.00  0.00    -0.022 A 
ATOM     12  C   UNL     1      -1.292  -2.312  -2.541  0.00  0.00    +0.009 A 
ATOM     13  C   UNL     1      -1.990  -2.595  -3.700  0.00  0.00    +0.046 A 
ATOM     14  C   UNL     1      -3.342  -2.899  -3.637  0.00  0.00    +0.117 A 
ATOM     15  C   UNL     1      -3.990  -2.917  -2.411  0.00  0.00    +0.046 A 
ATOM     16  C   UNL     1      -3.287  -2.637  -1.255  0.00  0.00    +0.009 A 
BRANCH  14  17
ATOM     17  O   UNL     1      -4.030  -3.178  -4.775  0.00  0.00    -0.507 OA
ATOM     18  H   UNL     1      -4.033  -4.115  -5.013  0.00  0.00    +0.292 HD
ENDBRANCH  14  17
ENDBRANCH   4  11
BRANCH   3  19
ATOM     19  C   UNL     1      -1.992   0.401  -0.060  0.00  0.00    +0.263 C 
ATOM     20  O   UNL     1      -2.657   0.605   0.940  0.00  0.00    -0.269 OA
ATOM     21  N   UNL     1      -2.275   1.058  -1.202  0.00  0.00    -0.203 N 
ATOM     22  H   UNL     1      -1.795   0.843  -2.017  0.00  0.00    +0.178 HD
BRANCH  21  23
ATOM     23  N   UNL     1      -3.263   2.051  -1.213  0.00  0.00    -0.187 NA
ATOM     24  C   UNL     1      -3.535   2.684  -2.313  0.00  0.00    +0.138 C 
BRANCH  24  25
ATOM     25  C   UNL     1      -4.574   3.730  -2.324  0.00  0.00    -0.004 A 
ATOM     26  C   UNL     1      -5.264   4.046  -1.151  0.00  0.00    +0.009 A 
ATOM     27  C   UNL     1      -6.235   5.026  -1.168  0.00  0.00    +0.002 A 
ATOM     28  C   UNL     1      -6.527   5.695  -2.344  0.00  0.00    +0.015 A 
ATOM     29  C   UNL     1      -5.848   5.387  -3.510  0.00  0.00    +0.018 A 
ATOM     30  C   UNL     1      -4.870   4.413  -3.506  0.00  0.00    +0.024 A 
ATOM     31 BR   UNL     1      -6.256   6.307  -5.111  0.00  0.00    -0.050 Br
ENDBRANCH  24  25
ENDBRANCH  21  23
ENDBRANCH   3  19
TORSDOF 5
