REMARK  Name = ZINC15226167
REMARK  6 active torsions:
REMARK  status: ('A' for Active; 'I' for Inactive)
REMARK    1  A    between atoms: C_1  and  O_2
REMARK    2  A    between atoms: O_2  and  C_3
REMARK    3  A    between atoms: C_8  and  N_9
REMARK    4  A    between atoms: N_9  and  S_10
REMARK    5  A    between atoms: S_10  and  C_13
REMARK    6  A    between atoms: C_26  and  C_29
REMARK                            x       y       z     vdW  Elec       q    Type
REMARK                         _______ _______ _______ _____ _____    ______ ____
ROOT
ATOM      1  C   UNL     1      -3.191   2.337   2.491  0.00  0.00    +0.109 A 
ATOM      2  C   UNL     1      -2.487   1.177   2.757  0.00  0.00    +0.030 A 
ATOM      3  C   UNL     1      -2.015   0.929   4.029  0.00  0.00    +0.025 A 
ATOM      4  C   UNL     1      -2.256   1.835   5.056  0.00  0.00    +0.031 A 
ATOM      5  C   UNL     1      -2.966   3.008   4.778  0.00  0.00    -0.018 A 
ATOM      6  C   UNL     1      -3.429   3.249   3.503  0.00  0.00    +0.034 A 
ATOM      7  C   UNL     1      -3.176   3.959   5.892  0.00  0.00    +0.049 C 
ATOM      8  C   UNL     1      -4.328   4.896   5.916  0.00  0.00    -0.023 C 
ATOM      9  C   UNL     1      -4.676   5.109   7.179  0.00  0.00    -0.030 C 
ATOM     10  C   UNL     1      -3.785   4.287   8.113  0.00  0.00    +0.033 C 
ATOM     11  C   UNL     1      -3.365   3.129   7.197  0.00  0.00    +0.029 C 
ATOM     12  C   UNL     1      -2.017   2.485   7.467  0.00  0.00    +0.105 C 
ATOM     13  N   UNL     1      -1.792   1.547   6.346  0.00  0.00    -0.336 N 
ATOM     14  H   UNL     1      -1.316   0.718   6.507  0.00  0.00    +0.147 HD
ENDROOT
BRANCH  12  15
ATOM     15  C   UNL     1      -0.935   3.534   7.493  0.00  0.00    -0.026 A 
ATOM     16  C   UNL     1      -0.267   3.867   6.329  0.00  0.00    +0.005 A 
ATOM     17  C   UNL     1       0.721   4.833   6.351  0.00  0.00    +0.001 A 
ATOM     18  C   UNL     1       1.049   5.460   7.539  0.00  0.00    +0.015 A 
ATOM     19  C   UNL     1       0.385   5.123   8.705  0.00  0.00    +0.018 A 
ATOM     20  C   UNL     1      -0.608   4.160   8.681  0.00  0.00    +0.020 A 
ATOM     21 BR   UNL     1       0.833   5.979  10.330  0.00  0.00    -0.050 Br
ENDBRANCH  12  15
BRANCH   1  22
ATOM     22  S   UNL     1      -3.792   2.650   0.864  0.00  0.00    +0.072 S 
ATOM     23  O   UNL     1      -4.893   3.538   1.002  0.00  0.00    -0.150 OA
ATOM     24  O   UNL     1      -3.908   1.387   0.224  0.00  0.00    -0.150 OA
BRANCH  22  25
ATOM     25  N   UNL     1      -2.610   3.483   0.057  0.00  0.00    -0.213 N 
ATOM     26  H   UNL     1      -2.792   4.371  -0.288  0.00  0.00    +0.174 HD
BRANCH  25  32
ATOM     27  C   UNL     1      -0.205   3.700  -0.100  0.00  0.00    +0.142 A 
ATOM     28  C   UNL     1       1.040   3.124  -0.288  0.00  0.00    +0.047 A 
ATOM     29  C   UNL     1       1.147   1.762  -0.503  0.00  0.00    +0.004 A 
ATOM     30  C   UNL     1       0.012   0.972  -0.531  0.00  0.00    +0.002 A 
ATOM     31  C   UNL     1      -1.234   1.539  -0.343  0.00  0.00    +0.028 A 
ATOM     32  C   UNL     1      -1.349   2.905  -0.127  0.00  0.00    +0.090 A 
BRANCH  27  34
ATOM     33  C   UNL     1       0.903   5.793   0.127  0.00  0.00    +0.277 C 
ATOM     34  O   UNL     1      -0.312   5.040   0.112  0.00  0.00    -0.493 OA
ENDBRANCH  27  34
ENDBRANCH  25  32
ENDBRANCH  22  25
ENDBRANCH   1  22
TORSDOF 5
