REMARK  Name = ZINC36309844
REMARK  17 active torsions:
REMARK  status: ('A' for Active; 'I' for Inactive)
REMARK    1  A    between atoms: C_1  and  C_2
REMARK    2  A    between atoms: C_2  and  C_3
REMARK    3  A    between atoms: C_2  and  C_4
REMARK    4  A    between atoms: C_4  and  C_5
REMARK    5  A    between atoms: C_5  and  N_6
REMARK    6  A    between atoms: N_6  and  C_7
REMARK    7  A    between atoms: N_6  and  C_16
REMARK    8  A    between atoms: C_7  and  C_8
REMARK    9  A    between atoms: C_8  and  C_10
REMARK   10  A    between atoms: C_8  and  O_15
REMARK   11  A    between atoms: C_10  and  O_11
REMARK   12  A    between atoms: O_11  and  C_12
REMARK   13  A    between atoms: C_12  and  C_13
REMARK   14  A    between atoms: C_16  and  C_17
REMARK   15  A    between atoms: C_27  and  C_29
REMARK   16  A    between atoms: C_29  and  O_30
REMARK   17  A    between atoms: O_30  and  C_31
REMARK                            x       y       z     vdW  Elec       q    Type
REMARK                         _______ _______ _______ _____ _____    ______ ____
ROOT
ATOM      1  C   UNL     1      -4.167  -0.547   1.260  0.00  0.00    +0.200 C 
ATOM      2  O   UNL     1      -3.428  -1.495   1.423  0.00  0.00    -0.278 OA
ATOM      3  N   UNL     1      -4.761   0.034   2.321  0.00  0.00    -0.292 N 
ATOM      4  C   UNL     1      -5.664   1.180   2.135  0.00  0.00    +0.113 C 
ATOM      5  C   UNL     1      -7.076   0.756   2.568  0.00  0.00    +0.061 C 
ATOM      6  C   UNL     1      -6.974  -0.022   3.840  0.00  0.00    -0.004 A 
ATOM      7  C   UNL     1      -5.865  -0.596   4.382  0.00  0.00    -0.014 A 
ATOM      8  C   UNL     1      -6.040  -1.280   5.584  0.00  0.00    +0.013 A 
ATOM      9  C   UNL     1      -7.264  -1.345   6.154  0.00  0.00    +0.046 A 
ATOM     10  S   UNL     1      -8.259  -0.418   4.995  0.00  0.00    -0.101 S 
ATOM     11  C   UNL     1      -4.520  -0.472   3.679  0.00  0.00    +0.144 C 
ENDROOT
BRANCH   1  12
ATOM     12  C   UNL     1      -4.422  -0.020  -0.129  0.00  0.00    +0.019 C 
BRANCH  12  13
ATOM     13  N   UNL     1      -3.567  -0.732  -1.088  0.00  0.00    +0.387 N 
ATOM     14  H   UNL     1      -3.689  -1.727  -0.972  0.00  0.00    -0.081 HD
BRANCH  13  15
ATOM     15  C   UNL     1      -2.162  -0.380  -0.847  0.00  0.00    -0.078 C 
BRANCH  15  16
ATOM     16  C   UNL     1      -1.944   1.099  -1.170  0.00  0.00    -0.016 C 
BRANCH  16  18
ATOM     17  C   UNL     1       0.485   0.748  -1.640  0.00  0.00    +0.007 C 
ATOM     18  C   UNL     1      -0.523   1.505  -0.772  0.00  0.00    -0.019 C 
ATOM     19  C   UNL     1      -0.346   3.010  -0.980  0.00  0.00    +0.007 C 
ENDBRANCH  16  18
ENDBRANCH  15  16
ENDBRANCH  13  15
BRANCH  13  20
ATOM     20  C   UNL     1      -3.941  -0.349  -2.455  0.00  0.00    -0.044 C 
BRANCH  20  21
ATOM     21  C   UNL     1      -3.186  -1.227  -3.456  0.00  0.00    +0.124 C 
BRANCH  21  22
ATOM     22  O   UNL     1      -1.802  -0.874  -3.450  0.00  0.00    -0.391 OA
ATOM     23  H   UNL     1      -1.629   0.046  -3.692  0.00  0.00    +0.210 HD
ENDBRANCH  21  22
BRANCH  21  24
ATOM     24  C   UNL     1      -3.761  -1.013  -4.857  0.00  0.00    +0.189 C 
BRANCH  24  25
ATOM     25  O   UNL     1      -3.137  -1.917  -5.771  0.00  0.00    -0.373 OA
BRANCH  25  26
ATOM     26  C   UNL     1      -3.605  -1.800  -7.116  0.00  0.00    +0.186 C 
BRANCH  26  27
ATOM     27  C   UNL     1      -2.882  -2.794  -7.988  0.00  0.00    -0.007 C 
ATOM     28  C   UNL     1      -3.552  -3.514  -8.854  0.00  0.00    +0.006 C 
ENDBRANCH  26  27
ENDBRANCH  25  26
ENDBRANCH  24  25
ENDBRANCH  21  24
ENDBRANCH  20  21
ENDBRANCH  13  20
ENDBRANCH  12  13
ENDBRANCH   1  12
BRANCH  11  29
ATOM     29  C   UNL     1      -3.628   0.507   4.446  0.00  0.00    +0.256 C 
BRANCH  29  30
ATOM     30  O   UNL     1      -4.322   1.744   4.625  0.00  0.00    -0.490 OA
BRANCH  30  31
ATOM     31  C   UNL     1      -3.665   2.729   5.292  0.00  0.00    +0.121 A 
ATOM     32  C   UNL     1      -2.377   2.512   5.760  0.00  0.00    +0.048 A 
ATOM     33  C   UNL     1      -1.711   3.514   6.438  0.00  0.00    +0.042 A 
ATOM     34  C   UNL     1      -2.328   4.735   6.651  0.00  0.00    +0.124 A 
ATOM     35  C   UNL     1      -3.613   4.953   6.185  0.00  0.00    +0.042 A 
ATOM     36  C   UNL     1      -4.279   3.955   5.501  0.00  0.00    +0.048 A 
ATOM     37  F   UNL     1      -1.675   5.714   7.314  0.00  0.00    -0.205 F 
ENDBRANCH  30  31
ENDBRANCH  29  30
ENDBRANCH  11  29
TORSDOF 15
