REMARK  Name = ZINC22912053
REMARK  11 active torsions:
REMARK  status: ('A' for Active; 'I' for Inactive)
REMARK    1  A    between atoms: C_1  and  C_2
REMARK    2  A    between atoms: C_2  and  C_4
REMARK    3  A    between atoms: C_2  and  N_19
REMARK    4  A    between atoms: N_6  and  C_7
REMARK    5  A    between atoms: C_7  and  C_8
REMARK    6  A    between atoms: C_8  and  C_9
REMARK    7  A    between atoms: C_12  and  S_15
REMARK    8  A    between atoms: S_15  and  N_18
REMARK    9  A    between atoms: N_22  and  C_25
REMARK   10  A    between atoms: C_25  and  C_26
REMARK   11  A    between atoms: N_28  and  C_29
REMARK                            x       y       z     vdW  Elec       q    Type
REMARK                         _______ _______ _______ _____ _____    ______ ____
ROOT
ATOM      1  C   UNL     1       0.002  -0.004   0.002  0.00  0.00    +0.230 C 
ATOM      2  O   UNL     1      -0.506  -0.622   0.913  0.00  0.00    -0.274 OA
ATOM      3  N   UNL     1       0.585  -0.664  -1.018  0.00  0.00    -0.314 N 
ATOM      4  H   UNL     1       1.046  -0.104  -1.845  0.00  0.00    +0.149 HD
ENDROOT
BRANCH   1   6
ATOM      5  C   UNL     1      -0.758   2.010  -1.229  0.00  0.00    +0.034 C 
ATOM      6  C   UNL     1      -0.018   1.503   0.010  0.00  0.00    +0.140 C 
BRANCH   6   7
ATOM      7  N   UNL     1      -0.706   1.976   1.219  0.00  0.00    -0.295 NA
ATOM      8  C   UNL     1      -2.099   1.510   1.249  0.00  0.00    +0.066 C 
ATOM      9  C   UNL     1      -2.755   1.956   2.558  0.00  0.00    -0.063 C 
ATOM     10  N   UNL     1      -2.691   3.421   2.661  0.00  0.00    +0.387 N 
ATOM     11  C   UNL     1      -1.298   3.887   2.630  0.00  0.00    -0.063 C 
ATOM     12  C   UNL     1      -0.642   3.441   1.321  0.00  0.00    +0.066 C 
ATOM     13  H   UNL     1      -3.211   3.845   1.789  0.00  0.00    -0.081 HD
BRANCH  10  14
ATOM     14  C   UNL     1      -3.379   3.894   3.869  0.00  0.00    +0.019 C 
BRANCH  14  15
ATOM     15  C   UNL     1      -4.854   3.611   3.752  0.00  0.00    +0.197 C 
ATOM     16  O   UNL     1      -5.290   3.068   2.759  0.00  0.00    -0.278 OA
ATOM     17  N   UNL     1      -5.689   3.961   4.750  0.00  0.00    -0.314 N 
ATOM     18  H   UNL     1      -5.294   4.454   5.650  0.00  0.00    +0.149 HD
BRANCH  17  19
ATOM     19  C   UNL     1      -7.124   3.685   4.635  0.00  0.00    +0.073 C 
ATOM     20  C   UNL     1      -8.092   4.791   5.061  0.00  0.00    +0.024 C 
ATOM     21  C   UNL     1      -7.922   3.545   5.933  0.00  0.00    +0.024 C 
ENDBRANCH  17  19
ENDBRANCH  14  15
ENDBRANCH  10  14
ENDBRANCH   6   7
ENDBRANCH   1   6
BRANCH   3  22
ATOM     22  C   UNL     1       0.605  -2.129  -1.026  0.00  0.00    +0.109 C 
BRANCH  22  23
ATOM     23  C   UNL     1       1.321  -2.623  -2.285  0.00  0.00    +0.054 C 
BRANCH  23  24
ATOM     24  C   UNL     1       1.341  -4.130  -2.293  0.00  0.00    -0.046 A 
ATOM     25  C   UNL     1       2.396  -4.810  -1.713  0.00  0.00    +0.005 A 
ATOM     26  C   UNL     1       2.413  -6.192  -1.717  0.00  0.00    +0.029 A 
ATOM     27  C   UNL     1       1.379  -6.894  -2.309  0.00  0.00    +0.105 A 
ATOM     28  C   UNL     1       0.327  -6.214  -2.893  0.00  0.00    +0.029 A 
ATOM     29  C   UNL     1       0.309  -4.832  -2.886  0.00  0.00    +0.005 A 
BRANCH  27  30
ATOM     30  S   UNL     1       1.403  -8.656  -2.317  0.00  0.00    +0.056 S 
ATOM     31  O   UNL     1       2.222  -9.056  -1.228  0.00  0.00    -0.153 OA
ATOM     32  O   UNL     1       0.053  -9.079  -2.451  0.00  0.00    -0.153 OA
BRANCH  30  33
ATOM     33  N   UNL     1       2.186  -9.128  -3.698  0.00  0.00    -0.204 NA
ATOM     34  H   UNL     1       2.222 -10.227  -3.741  0.00  0.00    +0.144 HD
ATOM     35  H   UNL     1       3.210  -8.728  -3.693  0.00  0.00    +0.144 HD
ENDBRANCH  30  33
ENDBRANCH  27  30
ENDBRANCH  23  24
ENDBRANCH  22  23
ENDBRANCH   3  22
TORSDOF 10
