REMARK  Name = ZINC39972002
REMARK  16 active torsions:
REMARK  status: ('A' for Active; 'I' for Inactive)
REMARK    1  A    between atoms: C_1  and  C_2
REMARK    2  A    between atoms: C_2  and  C_3
REMARK    3  A    between atoms: C_4  and  C_36
REMARK    4  A    between atoms: C_6  and  N_13
REMARK    5  A    between atoms: C_7  and  C_8
REMARK    6  A    between atoms: C_8  and  O_10
REMARK    7  A    between atoms: O_10  and  C_11
REMARK    8  A    between atoms: C_11  and  C_12
REMARK    9  A    between atoms: C_14  and  C_16
REMARK   10  A    between atoms: C_16  and  N_17
REMARK   11  A    between atoms: N_20  and  S_23
REMARK   12  A    between atoms: S_23  and  C_26
REMARK   13  A    between atoms: C_29  and  C_32
REMARK   14  A    between atoms: C_32  and  C_33
REMARK   15  A    between atoms: C_33  and  C_34
REMARK   16  A    between atoms: C_33  and  C_35
REMARK                            x       y       z     vdW  Elec       q    Type
REMARK                         _______ _______ _______ _____ _____    ______ ____
ROOT
ATOM      1  N   UNL     1      -7.804  -2.872  -2.216  0.00  0.00    -0.291 NA
ATOM      2  C   UNL     1      -8.465  -1.786  -1.481  0.00  0.00    +0.102 C 
ATOM      3  C   UNL     1      -9.667  -2.350  -0.716  0.00  0.00    +0.125 C 
ATOM      4  N   UNL     1     -10.528  -3.073  -1.665  0.00  0.00    -0.174 NA
ATOM      5  C   UNL     1      -9.908  -4.083  -2.536  0.00  0.00    +0.125 C 
ATOM      6  C   UNL     1      -8.696  -3.451  -3.229  0.00  0.00    +0.102 C 
ENDROOT
BRANCH   4   7
ATOM      7  S   UNL     1     -12.151  -2.759  -1.750  0.00  0.00    +0.061 S 
ATOM      8  O   UNL     1     -12.763  -3.923  -2.288  0.00  0.00    -0.153 OA
ATOM      9  O   UNL     1     -12.526  -2.213  -0.492  0.00  0.00    -0.153 OA
BRANCH   7  10
ATOM     10  C   UNL     1     -12.372  -1.478  -2.940  0.00  0.00    +0.105 A 
ATOM     11  C   UNL     1     -12.339  -0.154  -2.544  0.00  0.00    +0.029 A 
ATOM     12  C   UNL     1     -12.512   0.851  -3.478  0.00  0.00    +0.005 A 
ATOM     13  C   UNL     1     -12.718   0.532  -4.807  0.00  0.00    -0.047 A 
ATOM     14  C   UNL     1     -12.750  -0.792  -5.202  0.00  0.00    +0.005 A 
ATOM     15  C   UNL     1     -12.572  -1.797  -4.270  0.00  0.00    +0.029 A 
BRANCH  13  16
ATOM     16  C   UNL     1     -12.908   1.627  -5.824  0.00  0.00    +0.038 C 
BRANCH  16  17
ATOM     17  C   UNL     1     -11.548   2.032  -6.397  0.00  0.00    -0.013 C 
ATOM     18  C   UNL     1     -10.951   0.857  -7.174  0.00  0.00    +0.007 C 
ATOM     19  C   UNL     1     -11.726   3.227  -7.336  0.00  0.00    +0.007 C 
ENDBRANCH  16  17
ENDBRANCH  13  16
ENDBRANCH   7  10
ENDBRANCH   4   7
BRANCH   1  20
ATOM     20  C   UNL     1      -6.549  -2.408  -2.824  0.00  0.00    +0.180 C 
BRANCH  20  22
ATOM     21  N   UNL     1      -4.340  -1.597  -2.061  0.00  0.00    -0.278 N 
ATOM     22  C   UNL     1      -5.567  -2.050  -1.738  0.00  0.00    +0.232 C 
ATOM     23  O   UNL     1      -5.882  -2.170  -0.573  0.00  0.00    -0.274 OA
ATOM     24  H   UNL     1      -4.088  -1.501  -2.993  0.00  0.00    +0.155 HD
BRANCH  21  28
ATOM     25  C   UNL     1      -1.412  -0.526   0.013  0.00  0.00    -0.022 A 
ATOM     26  C   UNL     1      -2.073  -0.774   1.158  0.00  0.00    -0.008 A 
ATOM     27  S   UNL     1      -3.659  -1.356   0.598  0.00  0.00    -0.078 S 
ATOM     28  C   UNL     1      -3.437  -1.268  -1.063  0.00  0.00    +0.086 A 
ATOM     29  C   UNL     1      -2.144  -0.785  -1.207  0.00  0.00    +0.091 A 
ATOM     30  C   UNL     1      -1.588  -0.600   2.574  0.00  0.00    +0.052 C 
BRANCH  25  32
ATOM     31  C   UNL     1      -0.019   1.526   0.010  0.00  0.00    +0.009 C 
ATOM     32  C   UNL     1       0.002  -0.004   0.002  0.00  0.00    +0.033 C 
ENDBRANCH  25  32
BRANCH  29  33
ATOM     33  C   UNL     1      -1.550  -0.554  -2.525  0.00  0.00    +0.342 C 
ATOM     34  O   UNL     1      -0.939  -1.447  -3.082  0.00  0.00    -0.245 OA
BRANCH  33  35
ATOM     35  O   UNL     1      -1.681   0.648  -3.123  0.00  0.00    -0.461 OA
BRANCH  35  36
ATOM     36  C   UNL     1      -1.076   0.803  -4.408  0.00  0.00    +0.229 C 
ATOM     37  C   UNL     1      -1.328   2.221  -4.923  0.00  0.00    +0.048 C 
ENDBRANCH  35  36
ENDBRANCH  33  35
ENDBRANCH  29  33
ENDBRANCH  21  28
ENDBRANCH  20  22
ENDBRANCH   1  20
TORSDOF 11
