REMARK  Name = ZINC17157335
REMARK  5 active torsions:
REMARK  status: ('A' for Active; 'I' for Inactive)
REMARK    1  A    between atoms: C_1  and  C_2
REMARK    2  A    between atoms: N_11  and  C_15
REMARK    3  A    between atoms: C_15  and  C_16
REMARK    4  A    between atoms: N_18  and  N_19
REMARK    5  A    between atoms: C_20  and  C_22
REMARK                            x       y       z     vdW  Elec       q    Type
REMARK                         _______ _______ _______ _____ _____    ______ ____
ROOT
ATOM      1  C   UNL     1       2.907   1.266  -1.441  0.00  0.00    +0.247 C 
ATOM      2  O   UNL     1       2.163   1.556  -2.354  0.00  0.00    -0.273 OA
ATOM      3  N   UNL     1       4.140   0.787  -1.702  0.00  0.00    -0.233 N 
ATOM      4  H   UNL     1       4.735   0.555  -0.972  0.00  0.00    +0.173 HD
ENDROOT
BRANCH   3   5
ATOM      5  N   UNL     1       4.562   0.625  -3.028  0.00  0.00    -0.234 N 
ATOM      6  C   UNL     1       5.794   0.147  -3.289  0.00  0.00    +0.235 C 
ATOM      7  O   UNL     1       6.538  -0.144  -2.377  0.00  0.00    -0.274 OA
ATOM      8  H   UNL     1       3.967   0.858  -3.758  0.00  0.00    +0.173 HD
BRANCH   6   9
ATOM      9  C   UNL     1       6.248  -0.027  -4.716  0.00  0.00    +0.049 C 
ATOM     10  C   UNL     1       5.313  -1.003  -5.433  0.00  0.00    +0.019 C 
ATOM     11  C   UNL     1       5.774  -1.180  -6.881  0.00  0.00    -0.009 C 
ATOM     12  C   UNL     1       7.200  -1.734  -6.899  0.00  0.00    +0.007 C 
ATOM     13  C   UNL     1       8.135  -0.758  -6.181  0.00  0.00    -0.009 C 
ATOM     14  C   UNL     1       7.674  -0.581  -4.733  0.00  0.00    +0.019 C 
ATOM     15  C   UNL     1       8.105   0.595  -6.895  0.00  0.00    +0.007 C 
ATOM     16  C   UNL     1       6.679   1.149  -6.878  0.00  0.00    -0.009 C 
ATOM     17  C   UNL     1       5.744   0.173  -7.595  0.00  0.00    +0.007 C 
ATOM     18  C   UNL     1       6.218   1.326  -5.429  0.00  0.00    +0.019 C 
ENDBRANCH   6   9
ENDBRANCH   3   5
BRANCH   1  19
ATOM     19  C   UNL     1       2.453   1.440  -0.014  0.00  0.00    +0.215 C 
BRANCH  19  29
ATOM     20  C   UNL     1      -0.712   3.293   2.520  0.00  0.00    +0.010 C 
ATOM     21  C   UNL     1      -1.213   4.053   1.290  0.00  0.00    +0.018 C 
ATOM     22  C   UNL     1      -2.743   4.086   1.300  0.00  0.00    +0.006 C 
ATOM     23  C   UNL     1      -3.244   4.828   0.059  0.00  0.00    +0.000 C 
ATOM     24  C   UNL     1      -2.767   4.099  -1.199  0.00  0.00    +0.003 C 
ATOM     25  C   UNL     1      -1.237   4.066  -1.219  0.00  0.00    +0.035 C 
ATOM     26  C   UNL     1      -0.725   3.352   0.027  0.00  0.00    +0.115 C 
ATOM     27  C   UNL     1       0.785   3.285   0.012  0.00  0.00    +0.247 C 
ATOM     28  O   UNL     1       1.561   4.217   0.010  0.00  0.00    -0.273 OA
ATOM     29  N   UNL     1       1.088   1.971   0.002  0.00  0.00    -0.215 N 
ATOM     30  C   UNL     1      -0.014   1.211   0.009  0.00  0.00    +0.310 C 
ATOM     31  O   UNL     1       0.002  -0.004   0.002  0.00  0.00    -0.252 OA
ATOM     32  N   UNL     1      -1.144   1.945   0.018  0.00  0.00    -0.285 N 
ATOM     33  H   UNL     1      -2.054   1.610   0.019  0.00  0.00    +0.151 HD
ENDBRANCH  19  29
ENDBRANCH   1  19
TORSDOF 4
