REMARK  Name = ZINC59170592
REMARK  9 active torsions:
REMARK  status: ('A' for Active; 'I' for Inactive)
REMARK    1  A    between atoms: C_1  and  C_2
REMARK    2  A    between atoms: C_2  and  O_3
REMARK    3  A    between atoms: O_3  and  C_4
REMARK    4  A    between atoms: C_8  and  N_10
REMARK    5  A    between atoms: C_11  and  C_13
REMARK    6  A    between atoms: C_17  and  N_34
REMARK    7  A    between atoms: N_23  and  C_24
REMARK    8  A    between atoms: C_27  and  S_30
REMARK    9  A    between atoms: S_30  and  N_33
REMARK                            x       y       z     vdW  Elec       q    Type
REMARK                         _______ _______ _______ _____ _____    ______ ____
ROOT
ATOM      1  C   UNL     1       3.175  -6.076  -4.933  0.00  0.00    +0.098 A 
ATOM      2  C   UNL     1       3.282  -7.448  -5.119  0.00  0.00    +0.030 A 
ATOM      3  C   UNL     1       4.025  -7.912  -6.292  0.00  0.00    +0.020 A 
ATOM      4  C   UNL     1       3.958  -9.249  -6.701  0.00  0.00    +0.044 A 
ATOM      5  C   UNL     1       4.659  -9.657  -7.801  0.00  0.00    +0.127 A 
ATOM      6  C   UNL     1       5.435  -8.757  -8.517  0.00  0.00    +0.036 A 
ATOM      7  C   UNL     1       5.516  -7.434  -8.130  0.00  0.00    +0.049 A 
ATOM      8  C   UNL     1       4.815  -6.998  -7.015  0.00  0.00    +0.138 A 
ATOM      9  O   UNL     1       4.888  -5.705  -6.616  0.00  0.00    -0.439 OA
ATOM     10  C   UNL     1       3.816  -5.208  -5.941  0.00  0.00    +0.212 A 
ATOM     11  N   UNL     1       3.368  -3.994  -6.173  0.00  0.00    -0.325 N 
ATOM     12  H   UNL     1       2.543  -3.694  -5.761  0.00  0.00    +0.169 HD
ENDROOT
BRANCH  11  13
ATOM     13  C   UNL     1       4.066  -3.154  -6.996  0.00  0.00    +0.042 A 
ATOM     14  C   UNL     1       5.453  -3.043  -6.873  0.00  0.00    +0.027 A 
ATOM     15  C   UNL     1       6.150  -2.193  -7.707  0.00  0.00    +0.030 A 
ATOM     16  C   UNL     1       5.479  -1.451  -8.662  0.00  0.00    +0.105 A 
ATOM     17  C   UNL     1       4.105  -1.556  -8.790  0.00  0.00    +0.030 A 
ATOM     18  C   UNL     1       3.396  -2.406  -7.968  0.00  0.00    +0.027 A 
BRANCH  16  19
ATOM     19  S   UNL     1       6.378  -0.368  -9.722  0.00  0.00    +0.056 S 
ATOM     20  O   UNL     1       5.459   0.622 -10.165  0.00  0.00    -0.153 OA
ATOM     21  O   UNL     1       7.581  -0.040  -9.041  0.00  0.00    -0.153 OA
BRANCH  19  22
ATOM     22  N   UNL     1       6.814  -1.241 -11.059  0.00  0.00    -0.204 NA
ATOM     23  H   UNL     1       6.562  -2.175 -11.132  0.00  0.00    +0.144 HD
ATOM     24  H   UNL     1       7.322  -0.819 -11.770  0.00  0.00    +0.144 HD
ENDBRANCH  19  22
ENDBRANCH  16  19
ENDBRANCH  11  13
BRANCH   1  26
ATOM     25  N   UNL     1       2.477  -4.183  -3.555  0.00  0.00    -0.281 N 
ATOM     26  C   UNL     1       2.447  -5.511  -3.784  0.00  0.00    +0.253 C 
ATOM     27  O   UNL     1       1.820  -6.243  -3.042  0.00  0.00    -0.270 OA
ATOM     28  H   UNL     1       2.932  -3.594  -4.176  0.00  0.00    +0.155 HD
BRANCH  25  33
ATOM     29  C   UNL     1       1.779  -2.041  -0.645  0.00  0.00    +0.122 A 
ATOM     30  C   UNL     1       0.605  -2.615  -0.176  0.00  0.00    +0.046 A 
ATOM     31  C   UNL     1       0.057  -3.703  -0.827  0.00  0.00    +0.005 A 
ATOM     32  C   UNL     1       0.675  -4.225  -1.947  0.00  0.00    +0.023 A 
ATOM     33  C   UNL     1       1.850  -3.655  -2.421  0.00  0.00    +0.037 A 
ATOM     34  C   UNL     1       2.399  -2.558  -1.772  0.00  0.00    +0.069 A 
BRANCH  29  35
ATOM     35  O   UNL     1       2.317  -0.971  -0.004  0.00  0.00    -0.492 OA
BRANCH  35  37
ATOM     36  C   UNL     1       2.374   0.709   1.733  0.00  0.00    +0.048 C 
ATOM     37  C   UNL     1       1.624  -0.491   1.151  0.00  0.00    +0.225 C 
ENDBRANCH  35  37
ENDBRANCH  29  35
ENDBRANCH  25  33
ENDBRANCH   1  26
BRANCH   5  38
ATOM     38  N   UNL     1       4.589 -11.071  -8.233  0.00  0.00    +0.056 N 
ATOM     39  O   UNL     1       3.914 -11.860  -7.613  0.00  0.00    -0.126 OA
ATOM     40  O   UNL     1       5.207 -11.438  -9.206  0.00  0.00    -0.126 OA
ENDBRANCH   5  38
TORSDOF 8
