REMARK  Name = ZINC24981810
REMARK  8 active torsions:
REMARK  status: ('A' for Active; 'I' for Inactive)
REMARK    1  A    between atoms: C_1  and  O_2
REMARK    2  A    between atoms: O_2  and  C_3
REMARK    3  A    between atoms: N_15  and  C_19
REMARK    4  A    between atoms: C_19  and  C_20
REMARK    5  A    between atoms: C_20  and  C_22
REMARK    6  A    between atoms: C_20  and  O_31
REMARK    7  A    between atoms: C_22  and  O_23
REMARK    8  A    between atoms: O_23  and  C_24
REMARK                            x       y       z     vdW  Elec       q    Type
REMARK                         _______ _______ _______ _____ _____    ______ ____
ROOT
ATOM      1  C   UNL     1      -4.937   0.781   1.177  0.00  0.00    +0.120 A 
ATOM      2  C   UNL     1      -4.296   1.099   2.366  0.00  0.00    +0.046 A 
ATOM      3  C   UNL     1      -2.941   1.350   2.366  0.00  0.00    +0.010 A 
ATOM      4  C   UNL     1      -2.210   1.289   1.186  0.00  0.00    -0.012 A 
ATOM      5  C   UNL     1      -2.844   0.970   0.004  0.00  0.00    -0.038 A 
ATOM      6  C   UNL     1      -4.208   0.718   0.002  0.00  0.00    +0.049 A 
ATOM      7  C   UNL     1      -2.109   0.879  -1.308  0.00  0.00    +0.036 C 
ATOM      8  C   UNL     1      -0.765   1.599  -1.226  0.00  0.00    +0.008 C 
ATOM      9  C   UNL     1      -0.013   1.086   0.008  0.00  0.00    +0.040 C 
ATOM     10  C   UNL     1      -0.736   1.582   1.254  0.00  0.00    +0.138 C 
ATOM     11  C   UNL     1      -0.507   3.066   1.437  0.00  0.00    +0.251 C 
ATOM     12  O   UNL     1      -0.829   3.957   0.680  0.00  0.00    -0.272 OA
ATOM     13  N   UNL     1       0.131   3.190   2.619  0.00  0.00    -0.221 N 
ATOM     14  C   UNL     1       0.331   2.000   3.197  0.00  0.00    +0.310 C 
ATOM     15  O   UNL     1       0.887   1.855   4.269  0.00  0.00    -0.252 OA
ATOM     16  N   UNL     1      -0.151   0.982   2.460  0.00  0.00    -0.281 N 
ATOM     17  H   UNL     1      -0.175  -0.109   2.598  0.00  0.00    +0.152 HD
ENDROOT
BRANCH   1  19
ATOM     18  C   UNL     1      -6.959   0.618   2.417  0.00  0.00    +0.277 C 
ATOM     19  O   UNL     1      -6.273   0.534   1.166  0.00  0.00    -0.495 OA
ENDBRANCH   1  19
BRANCH  13  20
ATOM     20  C   UNL     1       0.551   4.468   3.197  0.00  0.00    +0.152 C 
BRANCH  20  21
ATOM     21  C   UNL     1       1.968   4.800   2.726  0.00  0.00    +0.170 C 
BRANCH  21  22
ATOM     22  O   UNL     1       2.864   3.769   3.147  0.00  0.00    -0.387 OA
ATOM     23  H   UNL     1       3.933   3.834   2.899  0.00  0.00    +0.210 HD
ENDBRANCH  21  22
BRANCH  21  24
ATOM     24  C   UNL     1       2.407   6.135   3.330  0.00  0.00    +0.261 C 
BRANCH  24  25
ATOM     25  O   UNL     1       3.683   6.502   2.800  0.00  0.00    -0.489 OA
BRANCH  25  26
ATOM     26  C   UNL     1       4.220   7.671   3.237  0.00  0.00    +0.121 A 
ATOM     27  C   UNL     1       3.531   8.452   4.153  0.00  0.00    +0.047 A 
ATOM     28  C   UNL     1       4.081   9.638   4.601  0.00  0.00    +0.019 A 
ATOM     29  C   UNL     1       5.313  10.052   4.127  0.00  0.00    +0.018 A 
ATOM     30  C   UNL     1       5.999   9.277   3.209  0.00  0.00    +0.019 A 
ATOM     31  C   UNL     1       5.455   8.088   2.763  0.00  0.00    +0.047 A 
ATOM     32 BR   UNL     1       6.060  11.679   4.735  0.00  0.00    -0.050 Br
ENDBRANCH  25  26
ENDBRANCH  24  25
ENDBRANCH  21  24
ENDBRANCH  20  21
ENDBRANCH  13  20
TORSDOF 7
