REMARK  Name = ZINC44876044
REMARK  11 active torsions:
REMARK  status: ('A' for Active; 'I' for Inactive)
REMARK    1  A    between atoms: C_1  and  C_2
REMARK    2  A    between atoms: C_5  and  S_8
REMARK    3  A    between atoms: S_8  and  N_11
REMARK    4  A    between atoms: N_11  and  C_12
REMARK    5  A    between atoms: N_11  and  C_13
REMARK    6  A    between atoms: C_18  and  C_19
REMARK    7  A    between atoms: N_21  and  C_22
REMARK    8  A    between atoms: C_22  and  C_23
REMARK    9  A    between atoms: C_26  and  C_29
REMARK   10  A    between atoms: C_29  and  N_30
REMARK   11  A    between atoms: C_33  and  C_36
REMARK                            x       y       z     vdW  Elec       q    Type
REMARK                         _______ _______ _______ _____ _____    ______ ____
ROOT
ATOM      1  C   UNL     1       2.836  -2.648  -1.109  0.00  0.00    +0.246 C 
ATOM      2  O   UNL     1       2.331  -2.582  -0.005  0.00  0.00    -0.270 OA
ATOM      3  N   UNL     1       3.321  -1.536  -1.696  0.00  0.00    -0.307 N 
ATOM      4  H   UNL     1       3.724  -1.588  -2.577  0.00  0.00    +0.149 HD
ENDROOT
BRANCH   1  10
ATOM      5  C   UNL     1       2.323  -5.086  -1.246  0.00  0.00    +0.063 A 
ATOM      6  C   UNL     1       2.402  -6.301  -1.916  0.00  0.00    +0.025 A 
ATOM      7  C   UNL     1       3.065  -6.383  -3.123  0.00  0.00    +0.002 A 
ATOM      8  C   UNL     1       3.657  -5.258  -3.677  0.00  0.00    +0.001 A 
ATOM      9  C   UNL     1       3.590  -4.045  -3.027  0.00  0.00    +0.015 A 
ATOM     10  C   UNL     1       2.917  -3.944  -1.807  0.00  0.00    +0.059 A 
BRANCH   5  11
ATOM     11  N   UNL     1       1.656  -5.001  -0.032  0.00  0.00    -0.205 N 
ATOM     12  C   UNL     1       0.207  -4.781  -0.005  0.00  0.00    +0.157 C 
BRANCH  11  13
ATOM     13  S   UNL     1       2.497  -5.147   1.387  0.00  0.00    +0.074 S 
ATOM     14  O   UNL     1       1.796  -4.379   2.356  0.00  0.00    -0.150 OA
ATOM     15  O   UNL     1       3.864  -4.917   1.075  0.00  0.00    -0.150 OA
BRANCH  13  20
ATOM     16  C   UNL     1       2.075 -10.909   3.127  0.00  0.00    +0.044 C 
ATOM     17  C   UNL     1       2.180  -9.470   2.692  0.00  0.00    -0.050 A 
ATOM     18  C   UNL     1       3.221  -9.069   1.877  0.00  0.00    +0.005 A 
ATOM     19  C   UNL     1       3.318  -7.749   1.478  0.00  0.00    +0.029 A 
ATOM     20  C   UNL     1       2.373  -6.830   1.895  0.00  0.00    +0.109 A 
ATOM     21  C   UNL     1       1.331  -7.232   2.710  0.00  0.00    +0.029 A 
ATOM     22  C   UNL     1       1.232  -8.553   3.105  0.00  0.00    +0.005 A 
ENDBRANCH  13  20
ENDBRANCH  11  13
ENDBRANCH   5  11
ENDBRANCH   1  10
BRANCH   3  23
ATOM     23  C   UNL     1       3.240  -0.247  -1.003  0.00  0.00    +0.139 C 
BRANCH  23  24
ATOM     24  C   UNL     1       3.849   0.827  -1.868  0.00  0.00    -0.030 A 
ATOM     25  C   UNL     1       5.197   1.113  -1.768  0.00  0.00    +0.005 A 
ATOM     26  C   UNL     1       5.755   2.099  -2.561  0.00  0.00    +0.002 A 
ATOM     27  C   UNL     1       4.964   2.797  -3.454  0.00  0.00    -0.064 A 
ATOM     28  C   UNL     1       3.616   2.510  -3.555  0.00  0.00    +0.002 A 
ATOM     29  C   UNL     1       3.059   1.522  -2.765  0.00  0.00    +0.005 A 
BRANCH  27  30
ATOM     30  C   UNL     1       5.572   3.872  -4.318  0.00  0.00    -0.043 C 
BRANCH  30  31
ATOM     31  N   UNL     1       6.044   3.280  -5.577  0.00  0.00    +0.382 N 
ATOM     32  C   UNL     1       4.896   2.765  -6.334  0.00  0.00    -0.078 C 
ATOM     33  C   UNL     1       5.388   2.075  -7.608  0.00  0.00    -0.016 C 
ATOM     34  C   UNL     1       6.155   3.086  -8.465  0.00  0.00    -0.018 C 
ATOM     35  C   UNL     1       7.305   3.672  -7.641  0.00  0.00    -0.016 C 
ATOM     36  C   UNL     1       6.742   4.303  -6.366  0.00  0.00    -0.078 C 
ATOM     37  C   UNL     1       6.718   2.385  -9.703  0.00  0.00    +0.007 C 
ATOM     38  H   UNL     1       6.678   2.522  -5.375  0.00  0.00    -0.081 HD
ENDBRANCH  30  31
ENDBRANCH  27  30
ENDBRANCH  23  24
ENDBRANCH   3  23
TORSDOF 8
