REMARK  Name = ZINC14643242
REMARK  11 active torsions:
REMARK  status: ('A' for Active; 'I' for Inactive)
REMARK    1  A    between atoms: C_1  and  C_2
REMARK    2  A    between atoms: C_4  and  O_9
REMARK    3  A    between atoms: O_9  and  C_10
REMARK    4  A    between atoms: C_10  and  C_11
REMARK    5  A    between atoms: N_13  and  N_14
REMARK    6  A    between atoms: C_15  and  C_17
REMARK    7  A    between atoms: C_17  and  C_19
REMARK    8  A    between atoms: C_17  and  O_20
REMARK    9  A    between atoms: O_20  and  C_21
REMARK   10  A    between atoms: C_22  and  C_29
REMARK   11  A    between atoms: C_26  and  C_27
REMARK                            x       y       z     vdW  Elec       q    Type
REMARK                         _______ _______ _______ _____ _____    ______ ____
ROOT
ATOM      1  N   UNL     1       1.725  -3.131   1.768  0.00  0.00    -0.231 N 
ATOM      2  C   UNL     1       1.365  -2.408   0.689  0.00  0.00    +0.270 C 
ATOM      3  O   UNL     1       1.749  -2.732  -0.415  0.00  0.00    -0.270 OA
ATOM      4  H   UNL     1       1.418  -2.872   2.650  0.00  0.00    +0.173 HD
ENDROOT
BRANCH   1   7
ATOM      5  C   UNL     1       2.905  -4.981   2.692  0.00  0.00    +0.267 C 
ATOM      6  O   UNL     1       2.521  -4.657   3.796  0.00  0.00    -0.271 OA
ATOM      7  N   UNL     1       2.544  -4.258   1.613  0.00  0.00    -0.231 N 
ATOM      8  H   UNL     1       2.852  -4.517   0.731  0.00  0.00    +0.173 HD
BRANCH   5   9
ATOM      9  C   UNL     1       3.786  -6.193   2.526  0.00  0.00    +0.326 C 
BRANCH   9  10
ATOM     10  O   UNL     1       4.026  -6.786   3.804  0.00  0.00    -0.483 OA
BRANCH  10  14
ATOM     11  C   UNL     1       6.176 -10.334   6.375  0.00  0.00    +0.045 C 
ATOM     12  C   UNL     1       5.878  -9.652   5.064  0.00  0.00    -0.033 A 
ATOM     13  C   UNL     1       5.082  -8.523   5.038  0.00  0.00    +0.050 A 
ATOM     14  C   UNL     1       4.808  -7.897   3.831  0.00  0.00    +0.122 A 
ATOM     15  C   UNL     1       5.329  -8.409   2.652  0.00  0.00    +0.047 A 
ATOM     16  C   UNL     1       6.129  -9.534   2.683  0.00  0.00    +0.019 A 
ATOM     17  C   UNL     1       6.401 -10.158   3.887  0.00  0.00    +0.021 A 
ATOM     18 BR   UNL     1       7.490 -11.704   3.926  0.00  0.00    -0.050 Br
ENDBRANCH  10  14
ENDBRANCH   9  10
ENDBRANCH   5   9
ENDBRANCH   1   7
BRANCH   2  19
ATOM     19  C   UNL     1       0.484  -1.196   0.855  0.00  0.00    +0.257 C 
ATOM     20  C   UNL     1      -0.848  -1.615   1.481  0.00  0.00    +0.062 C 
BRANCH  19  21
ATOM     21  O   UNL     1       0.244  -0.603  -0.423  0.00  0.00    -0.479 OA
BRANCH  21  22
ATOM     22  C   UNL     1       0.151   0.752  -0.467  0.00  0.00    +0.127 A 
ATOM     23  C   UNL     1      -1.092   1.365  -0.401  0.00  0.00    -0.007 A 
ATOM     24  C   UNL     1      -1.184   2.743  -0.440  0.00  0.00    +0.022 A 
ATOM     25  C   UNL     1      -0.039   3.511  -0.556  0.00  0.00    +0.019 A 
ATOM     26  C   UNL     1       1.201   2.901  -0.627  0.00  0.00    +0.022 A 
ATOM     27  C   UNL     1       1.298   1.524  -0.583  0.00  0.00    -0.007 A 
ATOM     28  C   UNL     1       2.648   0.860  -0.661  0.00  0.00    +0.047 C 
ATOM     29 BR   UNL     1      -0.168   5.396  -0.617  0.00  0.00    -0.050 Br
ATOM     30  C   UNL     1      -2.340   0.529  -0.281  0.00  0.00    +0.047 C 
ENDBRANCH  21  22
ENDBRANCH  19  21
ENDBRANCH   2  19
TORSDOF 7
