REMARK  Name = ZINC01939552
REMARK  10 active torsions:
REMARK  status: ('A' for Active; 'I' for Inactive)
REMARK    1  A    between atoms: C_1  and  C_2
REMARK    2  A    between atoms: C_2  and  N_3
REMARK    3  A    between atoms: N_3  and  C_4
REMARK    4  A    between atoms: N_3  and  C_11
REMARK    5  A    between atoms: C_4  and  C_5
REMARK    6  A    between atoms: C_11  and  C_12
REMARK    7  A    between atoms: C_13  and  O_35
REMARK    8  A    between atoms: C_19  and  C_31
REMARK    9  A    between atoms: C_20  and  O_23
REMARK   10  A    between atoms: O_23  and  C_24
REMARK                            x       y       z     vdW  Elec       q    Type
REMARK                         _______ _______ _______ _____ _____    ______ ____
ROOT
ATOM      1  C   UNL     1      -1.337  -2.249  -1.463  0.00  0.00    +0.020 A 
ATOM      2  C   UNL     1      -2.093  -2.497  -0.330  0.00  0.00    +0.122 A 
ATOM      3  C   UNL     1      -3.473  -2.668  -0.421  0.00  0.00    +0.046 A 
ATOM      4  C   UNL     1      -4.100  -2.593  -1.632  0.00  0.00    +0.019 A 
ATOM      5  C   UNL     1      -3.352  -2.343  -2.784  0.00  0.00    +0.068 A 
ATOM      6  C   UNL     1      -1.960  -2.163  -2.700  0.00  0.00    +0.144 A 
ATOM      7  O   UNL     1      -1.248  -1.917  -3.819  0.00  0.00    -0.447 OA
ATOM      8  C   UNL     1      -1.819  -1.829  -5.027  0.00  0.00    +0.254 A 
ATOM      9  C   UNL     1      -3.144  -1.978  -5.221  0.00  0.00    +0.222 A 
ATOM     10  C   UNL     1      -3.990  -2.254  -4.109  0.00  0.00    +0.235 A 
ATOM     11  O   UNL     1      -5.193  -2.396  -4.245  0.00  0.00    -0.283 OA
ENDROOT
BRANCH   8  12
ATOM     12  C   UNL     1      -0.942  -1.550  -6.221  0.00  0.00    +0.454 C 
ATOM     13  F   UNL     1      -1.741  -1.371  -7.355  0.00  0.00    -0.163 F 
ATOM     14  F   UNL     1      -0.194  -0.391  -5.990  0.00  0.00    -0.163 F 
ATOM     15  F   UNL     1      -0.076  -2.630  -6.426  0.00  0.00    -0.163 F 
ENDBRANCH   8  12
BRANCH   2  16
ATOM     16  O   UNL     1      -1.485  -2.575   0.881  0.00  0.00    -0.506 OA
ATOM     17  H   UNL     1      -1.423  -1.730   1.346  0.00  0.00    +0.292 HD
ENDBRANCH   2  16
BRANCH   1  18
ATOM     18  C   UNL     1       0.154  -2.066  -1.352  0.00  0.00    -0.035 C 
BRANCH  18  19
ATOM     19  N   UNL     1       0.459  -0.646  -1.131  0.00  0.00    +0.385 N 
ATOM     20  H   UNL     1       0.039  -0.094  -1.864  0.00  0.00    -0.081 HD
BRANCH  19  22
ATOM     21  C   UNL     1       0.151   1.274   0.357  0.00  0.00    -0.017 C 
ATOM     22  C   UNL     1      -0.082  -0.226   0.169  0.00  0.00    -0.081 C 
ENDBRANCH  19  22
BRANCH  19  23
ATOM     23  C   UNL     1       1.915  -0.450  -1.143  0.00  0.00    -0.043 C 
BRANCH  23  24
ATOM     24  C   UNL     1       2.451  -0.753  -2.518  0.00  0.00    -0.064 A 
ATOM     25  C   UNL     1       2.959  -2.007  -2.800  0.00  0.00    +0.002 A 
ATOM     26  C   UNL     1       3.451  -2.286  -4.062  0.00  0.00    +0.000 A 
ATOM     27  C   UNL     1       3.436  -1.310  -5.041  0.00  0.00    +0.000 A 
ATOM     28  C   UNL     1       2.928  -0.056  -4.758  0.00  0.00    +0.000 A 
ATOM     29  C   UNL     1       2.431   0.221  -3.498  0.00  0.00    +0.002 A 
ENDBRANCH  23  24
ENDBRANCH  19  23
ENDBRANCH  18  19
ENDBRANCH   1  18
BRANCH   9  30
ATOM     30  O   UNL     1      -3.670  -1.878  -6.473  0.00  0.00    -0.447 OA
BRANCH  30  31
ATOM     31  C   UNL     1      -4.498  -0.833  -6.735  0.00  0.00    +0.147 A 
ATOM     32  C   UNL     1      -4.694   0.155  -5.781  0.00  0.00    +0.048 A 
ATOM     33  C   UNL     1      -5.536   1.216  -6.051  0.00  0.00    +0.004 A 
ATOM     34  C   UNL     1      -6.184   1.295  -7.270  0.00  0.00    +0.002 A 
ATOM     35  C   UNL     1      -5.991   0.312  -8.223  0.00  0.00    +0.024 A 
ATOM     36  C   UNL     1      -5.145  -0.750  -7.961  0.00  0.00    +0.083 A 
ATOM     37 CL   UNL     1      -4.897  -1.980  -9.160  0.00  0.00    -0.080 Cl
ENDBRANCH  30  31
ENDBRANCH   9  30
TORSDOF 9
