REMARK  Name = ZINC63491612
REMARK  6 active torsions:
REMARK  status: ('A' for Active; 'I' for Inactive)
REMARK    1  A    between atoms: C_7  and  C_10
REMARK    2  A    between atoms: C_10  and  C_11
REMARK    3  A    between atoms: C_11  and  N_12
REMARK    4  A    between atoms: C_13  and  C_15
REMARK    5  A    between atoms: C_15  and  C_16
REMARK    6  A    between atoms: C_19  and  N_22
REMARK                            x       y       z     vdW  Elec       q    Type
REMARK                         _______ _______ _______ _____ _____    ______ ____
ROOT
ATOM      1  C   UNL     1      -1.982  -7.018  -4.038  0.00  0.00    -0.038 A 
ATOM      2  C   UNL     1      -3.019  -6.478  -4.778  0.00  0.00    +0.006 A 
ATOM      3  C   UNL     1      -3.236  -6.895  -6.075  0.00  0.00    +0.028 A 
ATOM      4  C   UNL     1      -2.406  -7.865  -6.640  0.00  0.00    +0.067 A 
ATOM      5  C   UNL     1      -1.362  -8.406  -5.888  0.00  0.00    +0.028 A 
ATOM      6  C   UNL     1      -1.153  -7.976  -4.594  0.00  0.00    +0.006 A 
ENDROOT
BRANCH   4   7
ATOM      7  N   UNL     1      -2.616  -8.284  -7.927  0.00  0.00    -0.226 NA
ATOM      8  C   UNL     1      -1.599  -8.411  -8.750  0.00  0.00    +0.155 C 
ATOM      9  N   UNL     1      -0.246  -8.170  -8.484  0.00  0.00    -0.318 N 
ATOM     10  C   UNL     1       0.596  -8.155  -9.640  0.00  0.00    +0.108 C 
ATOM     11  C   UNL     1       2.115  -8.171  -9.585  0.00  0.00    +0.189 C 
ATOM     12  S   UNL     1       2.500  -8.564 -11.354  0.00  0.00    -0.028 S 
ATOM     13  O   UNL     1       3.263  -9.761 -11.407  0.00  0.00    -0.174 OA
ATOM     14  O   UNL     1       2.988  -7.393 -11.993  0.00  0.00    -0.174 OA
ATOM     15  C   UNL     1       0.782  -8.914 -11.958  0.00  0.00    +0.182 C 
ATOM     16  C   UNL     1       0.152  -9.318 -10.606  0.00  0.00    +0.097 C 
ATOM     17  S   UNL     1      -1.636  -8.942 -10.469  0.00  0.00    -0.084 S 
ATOM     18  H   UNL     1       0.093  -8.025  -7.587  0.00  0.00    +0.148 HD
ENDBRANCH   4   7
BRANCH   1  19
ATOM     19  C   UNL     1      -1.752  -6.557  -2.622  0.00  0.00    +0.130 C 
BRANCH  19  21
ATOM     20  N   UNL     1      -0.458  -4.798  -1.460  0.00  0.00    -0.315 N 
ATOM     21  C   UNL     1      -0.811  -5.380  -2.623  0.00  0.00    +0.217 C 
ATOM     22  O   UNL     1      -0.371  -4.957  -3.671  0.00  0.00    -0.275 OA
ATOM     23  H   UNL     1      -0.810  -5.136  -0.622  0.00  0.00    +0.149 HD
BRANCH  20  24
ATOM     24  C   UNL     1       0.457  -3.653  -1.462  0.00  0.00    +0.108 C 
BRANCH  24  25
ATOM     25  C   UNL     1       0.691  -3.186  -0.024  0.00  0.00    +0.052 C 
BRANCH  25  32
ATOM     26  C   UNL     1      -0.016   1.348   0.009  0.00  0.00    +0.001 A 
ATOM     27  C   UNL     1       1.166   2.101   0.002  0.00  0.00    +0.002 A 
ATOM     28  C   UNL     1       2.391   1.535  -0.013  0.00  0.00    +0.026 A 
ATOM     29  C   UNL     1       2.529   0.120  -0.022  0.00  0.00    +0.043 A 
ATOM     30  N   UNL     1       3.587  -0.654  -0.037  0.00  0.00    -0.380 N 
ATOM     31  C   UNL     1       3.143  -2.053  -0.041  0.00  0.00    +0.144 C 
ATOM     32  C   UNL     1       1.631  -2.008  -0.025  0.00  0.00    -0.040 C 
ATOM     33  C   UNL     1       1.295  -0.698  -0.014  0.00  0.00    -0.001 A 
ATOM     34  C   UNL     1       0.002  -0.004   0.002  0.00  0.00    +0.010 A 
ATOM     35  H   UNL     1       4.509  -0.353  -0.045  0.00  0.00    +0.160 HD
ENDBRANCH  25  32
ENDBRANCH  24  25
ENDBRANCH  20  24
ENDBRANCH  19  21
ENDBRANCH   1  19
TORSDOF 6
