REMARK  Name = ZINC27357565
REMARK  6 active torsions:
REMARK  status: ('A' for Active; 'I' for Inactive)
REMARK    1  A    between atoms: C_6  and  C_7
REMARK    2  A    between atoms: N_12  and  C_13
REMARK    3  A    between atoms: C_13  and  C_14
REMARK    4  A    between atoms: C_14  and  C_16
REMARK    5  A    between atoms: C_17  and  N_28
REMARK    6  A    between atoms: N_18  and  C_25
REMARK                            x       y       z     vdW  Elec       q    Type
REMARK                         _______ _______ _______ _____ _____    ______ ____
ROOT
ATOM      1  C   UNL     1      -1.126   0.768   1.883  0.00  0.00    +0.003 C 
ENDROOT
BRANCH   1   6
ATOM      2  C   UNL     1      -0.616  -0.944   0.272  0.00  0.00    -0.037 C 
ATOM      3  C   UNL     1      -1.353  -1.031  -1.081  0.00  0.00    -0.013 C 
ATOM      4  C   UNL     1      -2.841  -1.161  -0.661  0.00  0.00    -0.020 C 
ATOM      5  C   UNL     1      -2.890  -0.260   0.598  0.00  0.00    -0.077 C 
ATOM      6  N   UNL     1      -1.592  -0.485   1.277  0.00  0.00    +0.389 N 
ATOM      7  H   UNL     1      -1.699  -1.189   1.993  0.00  0.00    -0.080 HD
BRANCH   2  13
ATOM      8  C   UNL     1       1.782  -0.316   0.612  0.00  0.00    +0.006 A 
ATOM      9  C   UNL     1       2.827   0.586   0.525  0.00  0.00    +0.049 A 
ATOM     10  C   UNL     1       2.611   1.850  -0.001  0.00  0.00    +0.162 A 
ATOM     11  C   UNL     1       1.343   2.208  -0.443  0.00  0.00    +0.162 A 
ATOM     12  C   UNL     1       0.299   1.300  -0.353  0.00  0.00    +0.051 A 
ATOM     13  C   UNL     1       0.521   0.041   0.174  0.00  0.00    -0.057 A 
ATOM     14  O   UNL     1       1.112   3.441  -0.970  0.00  0.00    -0.485 OA
ATOM     15  C   UNL     1       2.092   4.450  -0.702  0.00  0.00    +0.270 C 
ATOM     16  C   UNL     1       3.481   3.848  -0.952  0.00  0.00    +0.270 C 
ATOM     17  O   UNL     1       3.649   2.728  -0.076  0.00  0.00    -0.485 OA
ENDBRANCH   2  13
ENDBRANCH   1   6
BRANCH   1  18
ATOM     18  C   UNL     1      -2.062   1.168   2.995  0.00  0.00    +0.155 C 
ATOM     19  O   UNL     1      -3.024   0.475   3.256  0.00  0.00    -0.294 OA
BRANCH  18  20
ATOM     20  C   UNL     1      -1.820   2.347   3.732  0.00  0.00    +0.118 A 
ATOM     21  C   UNL     1      -2.605   2.677   4.850  0.00  0.00    +0.116 A 
ATOM     22  N   UNL     1      -2.332   3.829   5.531  0.00  0.00    -0.278 N 
ATOM     23  C   UNL     1      -1.335   4.644   5.154  0.00  0.00    +0.331 A 
ATOM     24  O   UNL     1      -1.132   5.657   5.794  0.00  0.00    -0.246 OA
ATOM     25  N   UNL     1      -0.552   4.380   4.095  0.00  0.00    -0.274 N 
ATOM     26  H   UNL     1       0.158   4.998   3.859  0.00  0.00    +0.173 HD
ATOM     27  C   UNL     1      -0.736   3.264   3.359  0.00  0.00    +0.266 A 
ATOM     28  O   UNL     1      -0.021   3.026   2.403  0.00  0.00    -0.267 OA
BRANCH  22  29
ATOM     29  C   UNL     1      -3.145   4.182   6.698  0.00  0.00    +0.094 C 
ATOM     30  C   UNL     1      -2.408   4.579   7.979  0.00  0.00    +0.027 C 
ATOM     31  C   UNL     1      -3.119   3.227   7.893  0.00  0.00    +0.027 C 
ENDBRANCH  22  29
BRANCH  21  32
ATOM     32  N   UNL     1      -3.621   1.863   5.246  0.00  0.00    -0.344 N 
ATOM     33  H   UNL     1      -3.878   1.106   4.697  0.00  0.00    +0.144 HD
ATOM     34  H   UNL     1      -4.088   2.041   6.078  0.00  0.00    +0.144 HD
ENDBRANCH  21  32
ENDBRANCH  18  20
ENDBRANCH   1  18
TORSDOF 6
