REMARK  Name = ZINC09861326
REMARK  5 active torsions:
REMARK  status: ('A' for Active; 'I' for Inactive)
REMARK    1  A    between atoms: C_4  and  C_7
REMARK    2  A    between atoms: C_12  and  C_30
REMARK    3  A    between atoms: C_18  and  C_22
REMARK    4  A    between atoms: C_22  and  C_24
REMARK    5  A    between atoms: C_33  and  O_36
REMARK                            x       y       z     vdW  Elec       q    Type
REMARK                         _______ _______ _______ _____ _____    ______ ____
ROOT
ATOM      1  C   UNL     1       1.217   6.778   1.653  0.00  0.00    +0.032 C 
ATOM      2  C   UNL     1       0.517   5.689   2.463  0.00  0.00    +0.059 C 
ATOM      3  C   UNL     1       0.278   4.465   1.594  0.00  0.00    +0.017 C 
ATOM      4  C   UNL     1       1.133   4.154   0.606  0.00  0.00    +0.036 C 
ATOM      5  C   UNL     1       1.016   2.972  -0.327  0.00  0.00    +0.136 C 
ATOM      6  N   UNL     1       0.022   1.996   0.065  0.00  0.00    -0.331 N 
ATOM      7  C   UNL     1      -1.324   2.321   0.087  0.00  0.00    +0.049 A 
ATOM      8  C   UNL     1      -2.225   1.734  -0.788  0.00  0.00    +0.025 A 
ATOM      9  C   UNL     1      -3.546   2.128  -0.779  0.00  0.00    +0.013 A 
ATOM     10  C   UNL     1      -3.981   3.117   0.111  0.00  0.00    +0.024 A 
ATOM     11  C   UNL     1      -3.077   3.690   1.015  0.00  0.00    +0.036 A 
ATOM     12  C   UNL     1      -1.765   3.269   1.012  0.00  0.00    +0.053 A 
ATOM     13  N   UNL     1      -0.828   3.748   1.922  0.00  0.00    -0.316 N 
ATOM     14  C   UNL     1       2.266   4.966   0.360  0.00  0.00    +0.163 C 
ATOM     15  O   UNL     1       3.035   4.648  -0.526  0.00  0.00    -0.292 OA
ATOM     16  C   UNL     1       2.550   6.205   1.156  0.00  0.00    +0.088 C 
ATOM     17  H   UNL     1       0.302   1.101   0.311  0.00  0.00    +0.147 HD
ATOM     18  H   UNL     1      -0.974   3.554   2.861  0.00  0.00    +0.152 HD
ENDROOT
BRANCH   1  22
ATOM     19  C   UNL     1       1.940  10.185   4.127  0.00  0.00    +0.000 A 
ATOM     20  C   UNL     1       1.157  10.306   2.994  0.00  0.00    +0.000 A 
ATOM     21  C   UNL     1       0.923   9.204   2.193  0.00  0.00    +0.004 A 
ATOM     22  C   UNL     1       1.472   7.980   2.526  0.00  0.00    -0.044 A 
ATOM     23  C   UNL     1       2.250   7.857   3.662  0.00  0.00    +0.004 A 
ATOM     24  C   UNL     1       2.488   8.960   4.460  0.00  0.00    +0.000 A 
ENDBRANCH   1  22
BRANCH   5  25
ATOM     25  C   UNL     1       0.667   3.484  -1.701  0.00  0.00    -0.023 A 
ATOM     26  C   UNL     1       1.566   3.338  -2.741  0.00  0.00    +0.009 A 
ATOM     27  C   UNL     1       1.246   3.802  -4.002  0.00  0.00    +0.046 A 
ATOM     28  C   UNL     1       0.026   4.425  -4.222  0.00  0.00    +0.117 A 
ATOM     29  C   UNL     1      -0.872   4.576  -3.176  0.00  0.00    +0.046 A 
ATOM     30  C   UNL     1      -0.550   4.105  -1.918  0.00  0.00    +0.009 A 
BRANCH  28  31
ATOM     31  O   UNL     1      -0.288   4.887  -5.461  0.00  0.00    -0.507 OA
ATOM     32  H   UNL     1      -0.017   5.801  -5.621  0.00  0.00    +0.292 HD
ENDBRANCH  28  31
ENDBRANCH   5  25
BRANCH  10  33
ATOM     33  C   UNL     1      -5.389   3.555   0.096  0.00  0.00    +0.193 C 
ATOM     34  O   UNL     1      -5.991   3.631  -0.957  0.00  0.00    -0.287 OA
BRANCH  33  35
ATOM     35  C   UNL     1      -6.068   3.901   1.363  0.00  0.00    +0.022 A 
ATOM     36  C   UNL     1      -5.438   3.659   2.585  0.00  0.00    +0.012 A 
ATOM     37  C   UNL     1      -6.075   3.988   3.763  0.00  0.00    +0.001 A 
ATOM     38  C   UNL     1      -7.340   4.548   3.736  0.00  0.00    +0.000 A 
ATOM     39  C   UNL     1      -7.973   4.786   2.528  0.00  0.00    +0.001 A 
ATOM     40  C   UNL     1      -7.345   4.465   1.342  0.00  0.00    +0.012 A 
ENDBRANCH  33  35
ENDBRANCH  10  33
TORSDOF 5
