REMARK  Name = ZINC39585817
REMARK  8 active torsions:
REMARK  status: ('A' for Active; 'I' for Inactive)
REMARK    1  A    between atoms: C_4  and  N_27
REMARK    2  A    between atoms: C_6  and  C_7
REMARK    3  A    between atoms: C_7  and  O_9
REMARK    4  A    between atoms: O_9  and  C_10
REMARK    5  A    between atoms: C_10  and  C_11
REMARK    6  A    between atoms: N_13  and  C_14
REMARK    7  A    between atoms: C_17  and  N_24
REMARK    8  A    between atoms: C_19  and  C_20
REMARK                            x       y       z     vdW  Elec       q    Type
REMARK                         _______ _______ _______ _____ _____    ______ ____
ROOT
ATOM      1  C   UNL     1      -4.837  -0.004   0.053  0.00  0.00    +0.255 C 
ATOM      2  O   UNL     1      -4.697   1.201   0.052  0.00  0.00    -0.272 OA
ATOM      3  N   UNL     1      -6.075  -0.538   0.059  0.00  0.00    -0.282 N 
ATOM      4  H   UNL     1      -6.189  -1.498  -0.020  0.00  0.00    +0.155 HD
ENDROOT
BRANCH   3   5
ATOM      5  C   UNL     1      -7.194   0.292   0.180  0.00  0.00    +0.045 A 
ATOM      6  C   UNL     1      -7.077   1.534   0.792  0.00  0.00    +0.026 A 
ATOM      7  C   UNL     1      -8.184   2.351   0.910  0.00  0.00    +0.034 A 
ATOM      8  C   UNL     1      -9.409   1.934   0.420  0.00  0.00    +0.127 A 
ATOM      9  C   UNL     1      -9.529   0.699  -0.189  0.00  0.00    +0.047 A 
ATOM     10  C   UNL     1      -8.424  -0.121  -0.316  0.00  0.00    +0.078 A 
BRANCH  10  11
ATOM     11  C   UNL     1      -8.554  -1.464  -0.986  0.00  0.00    +0.419 C 
ATOM     12  F   UNL     1      -9.877  -1.653  -1.398  0.00  0.00    -0.166 F 
ATOM     13  F   UNL     1      -7.707  -1.514  -2.098  0.00  0.00    -0.166 F 
ATOM     14  F   UNL     1      -8.198  -2.472  -0.083  0.00  0.00    -0.166 F 
ENDBRANCH  10  11
BRANCH   8  15
ATOM     15  N   UNL     1     -10.593   2.812   0.548  0.00  0.00    +0.056 N 
ATOM     16  O   UNL     1     -10.490   3.893   1.081  0.00  0.00    -0.126 OA
ATOM     17  O   UNL     1     -11.664   2.449   0.120  0.00  0.00    -0.126 OA
ENDBRANCH   8  15
ENDBRANCH   3   5
BRANCH   1  18
ATOM     18  C   UNL     1      -3.628  -0.904   0.048  0.00  0.00    +0.328 C 
BRANCH  18  19
ATOM     19  O   UNL     1      -2.442  -0.107   0.043  0.00  0.00    -0.452 OA
BRANCH  19  20
ATOM     20  C   UNL     1      -1.265  -0.763   0.038  0.00  0.00    +0.340 C 
ATOM     21  O   UNL     1      -1.247  -1.978   0.038  0.00  0.00    -0.245 OA
BRANCH  20  27
ATOM     22  C   UNL     1      -0.016   1.391   0.030  0.00  0.00    +0.016 A 
ATOM     23  C   UNL     1       1.169   2.097   0.025  0.00  0.00    +0.022 A 
ATOM     24  C   UNL     1       2.379   1.426   0.021  0.00  0.00    +0.062 A 
ATOM     25  C   UNL     1       2.408   0.035   0.021  0.00  0.00    +0.044 A 
ATOM     26  C   UNL     1       1.223  -0.683   0.026  0.00  0.00    +0.039 A 
ATOM     27  C   UNL     1       0.002  -0.005   0.031  0.00  0.00    +0.061 A 
ATOM     28 CL   UNL     1       3.865   2.322   0.014  0.00  0.00    -0.082 Cl
BRANCH  25  29
ATOM     29  N   UNL     1       3.633  -0.639   0.015  0.00  0.00    -0.357 N 
ATOM     30  H   UNL     1       4.463  -0.137   0.011  0.00  0.00    +0.142 HD
ATOM     31  H   UNL     1       3.653  -1.609   0.016  0.00  0.00    +0.142 HD
ENDBRANCH  25  29
ENDBRANCH  20  27
ENDBRANCH  19  20
ENDBRANCH  18  19
ENDBRANCH   1  18
TORSDOF 8
