REMARK  Name = ZINC39938796
REMARK  6 active torsions:
REMARK  status: ('A' for Active; 'I' for Inactive)
REMARK    1  A    between atoms: C_1  and  C_2
REMARK    2  A    between atoms: C_2  and  C_4
REMARK    3  A    between atoms: C_2  and  S_12
REMARK    4  A    between atoms: S_12  and  C_13
REMARK    5  A    between atoms: C_17  and  C_26
REMARK    6  A    between atoms: N_18  and  C_19
REMARK                            x       y       z     vdW  Elec       q    Type
REMARK                         _______ _______ _______ _____ _____    ______ ____
ROOT
ATOM      1  C   UNL     1      -2.298  -0.168  -1.314  0.00  0.00    +0.242 C 
ATOM      2  N   UNL     1      -1.711  -0.893  -2.454  0.00  0.00    -0.237 N 
ATOM      3  N   UNL     1      -1.398   0.071  -3.420  0.00  0.00    -0.169 NA
ATOM      4  C   UNL     1      -1.717   1.272  -3.013  0.00  0.00    +0.151 C 
ATOM      5  N   UNL     1      -2.280   1.244  -1.731  0.00  0.00    -0.254 N 
ATOM      6  H   UNL     1      -1.569  -1.850  -2.522  0.00  0.00    +0.171 HD
ENDROOT
BRANCH   4   7
ATOM      7  C   UNL     1      -1.522   2.440  -3.765  0.00  0.00    +0.022 C 
ATOM      8  C   UNL     1      -0.876   2.552  -4.997  0.00  0.00    +0.006 A 
ATOM      9  C   UNL     1      -0.251   1.604  -5.835  0.00  0.00    +0.010 A 
ATOM     10  C   UNL     1       0.308   2.005  -7.006  0.00  0.00    +0.001 A 
ATOM     11  C   UNL     1       0.283   3.342  -7.408  0.00  0.00    +0.002 A 
ATOM     12  C   UNL     1      -0.300   4.306  -6.652  0.00  0.00    +0.026 A 
ATOM     13  C   UNL     1      -0.906   3.963  -5.416  0.00  0.00    +0.043 A 
ATOM     14  N   UNL     1      -1.526   4.699  -4.515  0.00  0.00    -0.380 N 
ATOM     15  C   UNL     1      -1.973   3.841  -3.413  0.00  0.00    +0.152 C 
ATOM     16  H   UNL     1      -1.668   5.657  -4.574  0.00  0.00    +0.160 HD
ENDBRANCH   4   7
BRANCH   5  17
ATOM     17  C   UNL     1      -2.736   2.339  -0.991  0.00  0.00    +0.038 A 
ATOM     18  C   UNL     1      -1.844   3.323  -0.585  0.00  0.00    +0.025 A 
ATOM     19  C   UNL     1      -2.297   4.404   0.146  0.00  0.00    +0.022 A 
ATOM     20  C   UNL     1      -3.638   4.506   0.474  0.00  0.00    +0.041 A 
ATOM     21  C   UNL     1      -4.528   3.527   0.071  0.00  0.00    +0.022 A 
ATOM     22  C   UNL     1      -4.082   2.447  -0.666  0.00  0.00    +0.025 A 
ATOM     23 CL   UNL     1      -4.204   5.866   1.393  0.00  0.00    -0.084 Cl
ENDBRANCH   5  17
BRANCH   1  24
ATOM     24  S   UNL     1      -1.288  -0.403   0.174  0.00  0.00    -0.105 S 
BRANCH  24  26
ATOM     25  C   UNL     1       0.609   1.325  -0.774  0.00  0.00    +0.029 C 
ATOM     26  C   UNL     1       0.412  -0.147  -0.404  0.00  0.00    +0.133 C 
BRANCH  26  27
ATOM     27  C   UNL     1       1.377  -0.522   0.691  0.00  0.00    +0.236 C 
ATOM     28  O   UNL     1       0.999  -0.571   1.842  0.00  0.00    -0.274 OA
ATOM     29  N   UNL     1       2.660  -0.804   0.392  0.00  0.00    -0.224 N 
ATOM     30  C   UNL     1       3.697  -1.188   1.361  0.00  0.00    +0.136 C 
ATOM     31  C   UNL     1       4.956  -1.391   0.495  0.00  0.00    +0.125 C 
ATOM     32  N   UNL     1       4.494  -1.099  -0.871  0.00  0.00    -0.297 N 
ATOM     33  C   UNL     1       3.193  -0.785  -0.838  0.00  0.00    +0.309 C 
ATOM     34  O   UNL     1       2.553  -0.503  -1.832  0.00  0.00    -0.252 OA
ATOM     35  H   UNL     1       5.044  -1.134  -1.669  0.00  0.00    +0.150 HD
ENDBRANCH  26  27
ENDBRANCH  24  26
ENDBRANCH   1  24
TORSDOF 5
