REMARK  Name = ZINC08791901
REMARK  8 active torsions:
REMARK  status: ('A' for Active; 'I' for Inactive)
REMARK    1  A    between atoms: C_1  and  C_2
REMARK    2  A    between atoms: C_5  and  C_8
REMARK    3  A    between atoms: N_10  and  C_11
REMARK    4  A    between atoms: C_11  and  C_13
REMARK    5  A    between atoms: C_11  and  C_17
REMARK    6  A    between atoms: C_13  and  C_14
REMARK    7  A    between atoms: C_14  and  S_15
REMARK    8  A    between atoms: S_15  and  C_16
REMARK                            x       y       z     vdW  Elec       q    Type
REMARK                         _______ _______ _______ _____ _____    ______ ____
ROOT
ATOM      1  C   UNL     1      -1.209  -2.175   0.542  0.00  0.00    +0.236 C 
ATOM      2  O   UNL     1      -0.141  -2.682   0.813  0.00  0.00    -0.274 OA
ATOM      3  N   UNL     1      -2.349  -2.876   0.703  0.00  0.00    -0.300 N 
ATOM      4  C   UNL     1      -3.638  -2.318   0.272  0.00  0.00    +0.107 C 
ATOM      5  C   UNL     1      -4.616  -2.362   1.444  0.00  0.00    +0.013 C 
ATOM      6  C   UNL     1      -4.696  -3.789   1.986  0.00  0.00    -0.020 C 
ATOM      7  C   UNL     1      -3.320  -4.232   2.485  0.00  0.00    +0.013 C 
ATOM      8  C   UNL     1      -2.326  -4.210   1.318  0.00  0.00    +0.107 C 
ATOM      9  C   UNL     1      -5.689  -3.846   3.119  0.00  0.00    +0.051 A 
ATOM     10  C   UNL     1      -6.937  -4.352   2.985  0.00  0.00    +0.035 A 
ATOM     11  N   UNL     1      -7.545  -4.245   4.194  0.00  0.00    -0.348 N 
ATOM     12  H   UNL     1      -8.476  -4.532   4.420  0.00  0.00    +0.166 HD
ATOM     13  C   UNL     1      -6.652  -3.674   5.037  0.00  0.00    +0.196 A 
ATOM     14  N   UNL     1      -5.544  -3.440   4.381  0.00  0.00    -0.242 NA
ATOM     15  C   UNL     1      -7.472  -4.910   1.692  0.00  0.00    +0.036 C 
ATOM     16  C   UNL     1      -6.551  -4.441   0.557  0.00  0.00    -0.075 C 
ATOM     17  N   UNL     1      -5.142  -4.706   0.915  0.00  0.00    +0.387 N 
ATOM     18  H   UNL     1      -5.054  -5.676   1.242  0.00  0.00    -0.085 HD
ATOM     19  H   UNL     1      -4.551  -4.570   0.086  0.00  0.00    -0.085 HD
ENDROOT
BRANCH   1  20
ATOM     20  C   UNL     1      -1.261  -0.759   0.026  0.00  0.00    +0.160 C 
BRANCH  20  23
ATOM     21  C   UNL     1       0.093   1.237   0.368  0.00  0.00    +0.245 C 
ATOM     22  O   UNL     1      -0.916   1.905   0.262  0.00  0.00    -0.270 OA
ATOM     23  N   UNL     1       0.028  -0.105   0.263  0.00  0.00    -0.300 N 
ATOM     24  H   UNL     1       0.834  -0.638   0.345  0.00  0.00    +0.150 HD
BRANCH  21  29
ATOM     25  C   UNL     1       5.158   3.806   1.301  0.00  0.00    +0.044 C 
ATOM     26  C   UNL     1       3.832   3.133   1.057  0.00  0.00    -0.050 A 
ATOM     27  C   UNL     1       2.683   3.896   0.940  0.00  0.00    +0.004 A 
ATOM     28  C   UNL     1       1.466   3.286   0.717  0.00  0.00    +0.013 A 
ATOM     29  C   UNL     1       1.395   1.897   0.608  0.00  0.00    +0.037 A 
ATOM     30  C   UNL     1       2.556   1.133   0.731  0.00  0.00    +0.013 A 
ATOM     31  C   UNL     1       3.768   1.755   0.949  0.00  0.00    +0.004 A 
ENDBRANCH  21  29
ENDBRANCH  20  23
BRANCH  20  32
ATOM     32  C   UNL     1      -1.558  -0.774  -1.474  0.00  0.00    +0.042 C 
BRANCH  32  33
ATOM     33  C   UNL     1      -1.745   0.660  -1.972  0.00  0.00    +0.071 C 
BRANCH  33  34
ATOM     34  S   UNL     1      -2.096   0.643  -3.751  0.00  0.00    -0.164 S 
ATOM     35  C   UNL     1      -2.290   2.395  -4.178  0.00  0.00    +0.084 C 
ENDBRANCH  33  34
ENDBRANCH  32  33
ENDBRANCH  20  32
ENDBRANCH   1  20
TORSDOF 6
