REMARK  Name = ZINC34779741
REMARK  9 active torsions:
REMARK  status: ('A' for Active; 'I' for Inactive)
REMARK    1  A    between atoms: C_1  and  C_2
REMARK    2  A    between atoms: C_5  and  N_8
REMARK    3  A    between atoms: C_9  and  C_11
REMARK    4  A    between atoms: C_11  and  N_12
REMARK    5  A    between atoms: C_15  and  C_22
REMARK    6  A    between atoms: C_16  and  C_18
REMARK    7  A    between atoms: N_20  and  N_21
REMARK    8  A    between atoms: N_25  and  C_28
REMARK    9  A    between atoms: C_28  and  C_29
REMARK                            x       y       z     vdW  Elec       q    Type
REMARK                         _______ _______ _______ _____ _____    ______ ____
ROOT
ATOM      1  N   UNL     1       0.420  -6.845   2.495  0.00  0.00    -0.278 N 
ATOM      2  C   UNL     1       1.652  -6.962   3.074  0.00  0.00    +0.098 A 
ATOM      3  C   UNL     1       1.794  -7.432   4.387  0.00  0.00    +0.074 A 
ATOM      4  C   UNL     1       3.108  -7.508   4.867  0.00  0.00    -0.017 A 
ATOM      5  C   UNL     1       4.104  -7.122   4.017  0.00  0.00    +0.081 A 
ATOM      6  S   UNL     1       3.209  -6.652   2.551  0.00  0.00    -0.065 S 
ATOM      7  C   UNL     1       3.409  -7.996   6.261  0.00  0.00    +0.046 C 
ATOM      8  C   UNL     1       0.532  -7.783   5.083  0.00  0.00    +0.265 A 
ATOM      9  O   UNL     1       0.555  -8.200   6.226  0.00  0.00    -0.267 OA
ATOM     10  N   UNL     1      -0.636  -7.635   4.435  0.00  0.00    -0.256 N 
ATOM     11  C   UNL     1      -0.694  -7.174   3.176  0.00  0.00    +0.334 A 
ATOM     12  O   UNL     1      -1.777  -7.054   2.636  0.00  0.00    -0.246 OA
ENDROOT
BRANCH   5  13
ATOM     13  C   UNL     1       5.550  -7.099   4.253  0.00  0.00    +0.264 C 
ATOM     14  O   UNL     1       5.997  -7.459   5.327  0.00  0.00    -0.268 OA
ATOM     15  N   UNL     1       6.385  -6.680   3.282  0.00  0.00    -0.249 N 
ATOM     16  H   UNL     1       6.028  -6.393   2.426  0.00  0.00    +0.169 HD
BRANCH  15  17
ATOM     17  N   UNL     1       7.733  -6.659   3.502  0.00  0.00    -0.254 NA
ATOM     18  H   UNL     1       8.068  -7.569   3.779  0.00  0.00    +0.140 HD
ATOM     19  H   UNL     1       8.226  -6.323   2.688  0.00  0.00    +0.140 HD
ENDBRANCH  15  17
ENDBRANCH   5  13
BRANCH   1  20
ATOM     20  C   UNL     1       0.309  -6.349   1.121  0.00  0.00    +0.223 C 
BRANCH  20  22
ATOM     21  N   UNL     1       0.059  -4.170  -0.021  0.00  0.00    -0.284 N 
ATOM     22  C   UNL     1       0.175  -4.848   1.138  0.00  0.00    +0.237 C 
ATOM     23  O   UNL     1       0.173  -4.251   2.193  0.00  0.00    -0.274 OA
ATOM     24  H   UNL     1      -0.017  -4.651  -0.860  0.00  0.00    +0.155 HD
BRANCH  21  29
ATOM     25  C   UNL     1       0.008   1.503   0.007  0.00  0.00    +0.044 C 
ATOM     26  C   UNL     1       0.022  -0.004  -0.001  0.00  0.00    -0.050 A 
ATOM     27  C   UNL     1       0.777  -0.692   0.931  0.00  0.00    +0.005 A 
ATOM     28  C   UNL     1       0.791  -2.073   0.927  0.00  0.00    +0.023 A 
ATOM     29  C   UNL     1       0.046  -2.771  -0.014  0.00  0.00    +0.033 A 
ATOM     30  C   UNL     1      -0.712  -2.077  -0.948  0.00  0.00    +0.023 A 
ATOM     31  C   UNL     1      -0.726  -0.696  -0.936  0.00  0.00    +0.005 A 
ENDBRANCH  21  29
ENDBRANCH  20  22
ENDBRANCH   1  20
BRANCH  10  32
ATOM     32  C   UNL     1      -1.882  -7.983   5.125  0.00  0.00    +0.165 C 
BRANCH  32  33
ATOM     33  C   UNL     1      -2.410  -6.771   5.848  0.00  0.00    -0.027 A 
ATOM     34  C   UNL     1      -2.023  -6.521   7.152  0.00  0.00    +0.007 A 
ATOM     35  C   UNL     1      -2.507  -5.410   7.816  0.00  0.00    +0.020 A 
ATOM     36  C   UNL     1      -3.380  -4.548   7.176  0.00  0.00    +0.041 A 
ATOM     37  C   UNL     1      -3.767  -4.798   5.872  0.00  0.00    +0.020 A 
ATOM     38  C   UNL     1      -3.277  -5.907   5.207  0.00  0.00    +0.007 A 
ATOM     39 CL   UNL     1      -3.989  -3.152   8.010  0.00  0.00    -0.084 Cl
ENDBRANCH  32  33
ENDBRANCH  10  32
TORSDOF 7
