REMARK  Name = ZINC35446941
REMARK  9 active torsions:
REMARK  status: ('A' for Active; 'I' for Inactive)
REMARK    1  A    between atoms: C_1  and  C_2
REMARK    2  A    between atoms: C_2  and  O_3
REMARK    3  A    between atoms: O_3  and  C_4
REMARK    4  A    between atoms: C_4  and  C_6
REMARK    5  A    between atoms: C_6  and  C_7
REMARK    6  A    between atoms: C_7  and  C_9
REMARK    7  A    between atoms: C_7  and  N_15
REMARK    8  A    between atoms: C_32  and  O_36
REMARK    9  A    between atoms: O_36  and  C_37
REMARK                            x       y       z     vdW  Elec       q    Type
REMARK                         _______ _______ _______ _____ _____    ______ ____
ROOT
ATOM      1  N   UNL     1       0.117  -4.387   2.536  0.00  0.00    -0.292 N 
ATOM      2  C   UNL     1      -0.230  -5.578   2.008  0.00  0.00    +0.303 C 
ATOM      3  O   UNL     1       0.580  -6.215   1.361  0.00  0.00    -0.253 OA
ATOM      4  N   UNL     1      -1.474  -6.062   2.195  0.00  0.00    -0.285 N 
ATOM      5  C   UNL     1      -2.498  -5.253   2.869  0.00  0.00    +0.112 C 
ATOM      6  C   UNL     1      -3.735  -5.176   1.969  0.00  0.00    +0.051 C 
ATOM      7  C   UNL     1      -4.186  -6.590   1.605  0.00  0.00    +0.075 C 
ATOM      8  C   UNL     1      -3.075  -7.311   0.842  0.00  0.00    +0.051 C 
ATOM      9  C   UNL     1      -1.832  -7.407   1.724  0.00  0.00    +0.112 C 
ATOM     10  C   UNL     1      -5.431  -6.526   0.757  0.00  0.00    +0.047 A 
ATOM     11  C   UNL     1      -5.773  -5.644  -0.190  0.00  0.00    +0.025 A 
ATOM     12  C   UNL     1      -7.030  -6.037  -0.699  0.00  0.00    +0.020 A 
ATOM     13  C   UNL     1      -7.409  -7.151  -0.031  0.00  0.00    +0.092 A 
ATOM     14  N   UNL     1      -6.444  -7.452   0.870  0.00  0.00    -0.316 N 
ATOM     15  C   UNL     1      -6.384  -8.486   1.818  0.00  0.00    +0.067 A 
ATOM     16  C   UNL     1      -7.285  -9.533   1.807  0.00  0.00    +0.031 A 
ATOM     17  C   UNL     1      -7.176 -10.545   2.743  0.00  0.00    +0.048 A 
ATOM     18  C   UNL     1      -6.164 -10.509   3.692  0.00  0.00    +0.122 A 
ATOM     19  C   UNL     1      -5.262  -9.455   3.713  0.00  0.00    +0.070 A 
ATOM     20  C   UNL     1      -5.374  -8.432   2.784  0.00  0.00    +0.055 A 
ATOM     21  N   UNL     1      -4.506  -7.334   2.832  0.00  0.00    -0.331 N 
ATOM     22  H   UNL     1      -0.548  -3.846   2.990  0.00  0.00    +0.151 HD
ATOM     23  H   UNL     1      -4.114  -7.064   3.677  0.00  0.00    +0.147 HD
ENDROOT
BRANCH  18  24
ATOM     24  O   UNL     1      -6.055 -11.510   4.604  0.00  0.00    -0.495 OA
ATOM     25  C   UNL     1      -7.015 -12.566   4.527  0.00  0.00    +0.277 C 
ENDBRANCH  18  24
BRANCH   1  26
ATOM     26  C   UNL     1       1.498  -3.911   2.426  0.00  0.00    +0.115 C 
BRANCH  26  27
ATOM     27  C   UNL     1       2.319  -4.487   3.551  0.00  0.00    -0.027 A 
ATOM     28  C   UNL     1       1.778  -4.588   4.819  0.00  0.00    +0.005 A 
ATOM     29  C   UNL     1       2.532  -5.116   5.851  0.00  0.00    +0.000 A 
ATOM     30  C   UNL     1       3.825  -5.543   5.615  0.00  0.00    +0.000 A 
ATOM     31  C   UNL     1       4.365  -5.442   4.346  0.00  0.00    +0.000 A 
ATOM     32  C   UNL     1       3.610  -4.918   3.313  0.00  0.00    +0.005 A 
ENDBRANCH  26  27
BRANCH  26  33
ATOM     33  C   UNL     1       1.518  -2.383   2.509  0.00  0.00    +0.147 C 
BRANCH  33  34
ATOM     34  C   UNL     1       0.801  -1.805   1.317  0.00  0.00    +0.309 C 
ATOM     35  O   UNL     1       0.322  -2.540   0.485  0.00  0.00    -0.251 OA
BRANCH  34  36
ATOM     36  O   UNL     1       0.694  -0.475   1.178  0.00  0.00    -0.465 OA
BRANCH  36  38
ATOM     37  C   UNL     1      -0.019   1.533   0.037  0.00  0.00    +0.048 C 
ATOM     38  C   UNL     1       0.001   0.004   0.023  0.00  0.00    +0.229 C 
ENDBRANCH  36  38
ENDBRANCH  34  36
ENDBRANCH  33  34
ENDBRANCH  26  33
ENDBRANCH   1  26
TORSDOF 7
