REMARK  Name = ZINC10271820
REMARK  14 active torsions:
REMARK  status: ('A' for Active; 'I' for Inactive)
REMARK    1  A    between atoms: C_1  and  C_2
REMARK    2  A    between atoms: N_9  and  O_10
REMARK    3  A    between atoms: O_10  and  C_11
REMARK    4  A    between atoms: C_13  and  N_26
REMARK    5  A    between atoms: C_15  and  O_25
REMARK    6  A    between atoms: C_17  and  O_24
REMARK    7  A    between atoms: C_19  and  C_22
REMARK    8  A    between atoms: C_22  and  O_23
REMARK    9  A    between atoms: C_27  and  C_29
REMARK   10  A    between atoms: N_32  and  C_33
REMARK   11  A    between atoms: C_33  and  C_34
REMARK   12  A    between atoms: C_34  and  O_35
REMARK   13  A    between atoms: O_35  and  C_36
REMARK   14  A    between atoms: C_41  and  C_42
REMARK                            x       y       z     vdW  Elec       q    Type
REMARK                         _______ _______ _______ _____ _____    ______ ____
ROOT
ATOM      1  C   UNL     1      -2.760   6.452  -0.422  0.00  0.00    +0.044 C 
ATOM      2  C   UNL     1      -2.540   5.964  -1.831  0.00  0.00    -0.050 A 
ATOM      3  C   UNL     1      -3.298   6.479  -2.868  0.00  0.00    +0.005 A 
ATOM      4  C   UNL     1      -3.107   6.041  -4.164  0.00  0.00    +0.024 A 
ATOM      5  C   UNL     1      -2.147   5.074  -4.440  0.00  0.00    +0.046 A 
ATOM      6  C   UNL     1      -1.387   4.551  -3.386  0.00  0.00    +0.030 A 
ATOM      7  C   UNL     1      -1.582   5.003  -2.086  0.00  0.00    +0.015 A 
ATOM      8  C   UNL     1      -0.462   3.561  -3.987  0.00  0.00    +0.174 C 
ATOM      9  N   UNL     1       0.429   2.833  -3.377  0.00  0.00    -0.076 NA
ATOM     10  C   UNL     1      -0.780   3.575  -5.439  0.00  0.00    +0.273 C 
ATOM     11  O   UNL     1      -0.247   2.898  -6.296  0.00  0.00    -0.268 OA
ATOM     12  N   UNL     1      -1.762   4.471  -5.633  0.00  0.00    -0.262 N 
ENDROOT
BRANCH   9  13
ATOM     13  O   UNL     1       0.598   2.949  -1.976  0.00  0.00    -0.359 OA
BRANCH  13  14
ATOM     14  C   UNL     1       1.609   2.093  -1.440  0.00  0.00    +0.360 C 
ATOM     15  C   UNL     1       1.248   1.716  -0.001  0.00  0.00    +0.175 C 
ATOM     16  C   UNL     1       2.364   0.847   0.587  0.00  0.00    +0.172 C 
ATOM     17  C   UNL     1       3.689   1.612   0.502  0.00  0.00    +0.176 C 
ATOM     18  C   UNL     1       3.956   1.993  -0.957  0.00  0.00    +0.179 C 
ATOM     19  O   UNL     1       2.866   2.774  -1.451  0.00  0.00    -0.330 OA
BRANCH  15  20
ATOM     20  N   UNL     1      -0.011   0.966   0.007  0.00  0.00    -0.304 N 
ATOM     21  C   UNL     1      -1.187   1.624   0.017  0.00  0.00    +0.210 C 
ATOM     22  O   UNL     1      -1.204   2.837   0.023  0.00  0.00    -0.276 OA
ATOM     23  C   UNL     1      -2.482   0.853   0.018  0.00  0.00    +0.109 C 
ATOM     24  H   UNL     1       0.002  -0.004   0.002  0.00  0.00    +0.149 HD
ENDBRANCH  15  20
BRANCH  17  25
ATOM     25  O   UNL     1       3.609   2.796   1.298  0.00  0.00    -0.387 OA
ATOM     26  H   UNL     1       4.413   3.332   1.287  0.00  0.00    +0.210 HD
ENDBRANCH  17  25
BRANCH  16  27
ATOM     27  O   UNL     1       2.070   0.551   1.954  0.00  0.00    -0.387 OA
ATOM     28  H   UNL     1       2.737   0.003   2.390  0.00  0.00    +0.210 HD
ENDBRANCH  16  27
BRANCH  18  29
ATOM     29  C   UNL     1       5.247   2.809  -1.042  0.00  0.00    +0.190 C 
BRANCH  29  30
ATOM     30  O   UNL     1       5.558   3.067  -2.413  0.00  0.00    -0.392 OA
ATOM     31  H   UNL     1       6.366   3.582  -2.543  0.00  0.00    +0.210 HD
ENDBRANCH  29  30
ENDBRANCH  18  29
ENDBRANCH  13  14
ENDBRANCH   9  13
BRANCH  12  32
ATOM     32  C   UNL     1      -2.353   4.776  -6.939  0.00  0.00    +0.155 C 
BRANCH  32  33
ATOM     33  C   UNL     1      -3.544   3.848  -7.189  0.00  0.00    +0.248 C 
BRANCH  33  34
ATOM     34  O   UNL     1      -4.571   4.123  -6.235  0.00  0.00    -0.490 OA
BRANCH  34  35
ATOM     35  C   UNL     1      -5.706   3.381  -6.319  0.00  0.00    +0.123 A 
ATOM     36  C   UNL     1      -5.828   2.406  -7.299  0.00  0.00    +0.046 A 
ATOM     37  C   UNL     1      -6.983   1.653  -7.382  0.00  0.00    +0.004 A 
ATOM     38  C   UNL     1      -8.017   1.869  -6.489  0.00  0.00    +0.000 A 
ATOM     39  C   UNL     1      -7.897   2.839  -5.511  0.00  0.00    +0.007 A 
ATOM     40  C   UNL     1      -6.742   3.591  -5.420  0.00  0.00    -0.009 A 
ATOM     41  C   UNL     1      -6.610   4.645  -4.351  0.00  0.00    +0.047 C 
ENDBRANCH  34  35
ENDBRANCH  33  34
ENDBRANCH  32  33
ENDBRANCH  12  32
TORSDOF 11
