REMARK  Name = ZINC35934938
REMARK  9 active torsions:
REMARK  status: ('A' for Active; 'I' for Inactive)
REMARK    1  A    between atoms: C_1  and  C_2
REMARK    2  A    between atoms: C_2  and  N_3
REMARK    3  A    between atoms: C_6  and  C_11
REMARK    4  A    between atoms: N_21  and  C_23
REMARK    5  A    between atoms: C_23  and  C_24
REMARK    6  A    between atoms: C_24  and  C_25
REMARK    7  A    between atoms: N_27  and  C_28
REMARK    8  A    between atoms: C_31  and  O_34
REMARK    9  A    between atoms: O_34  and  C_35
REMARK                            x       y       z     vdW  Elec       q    Type
REMARK                         _______ _______ _______ _____ _____    ______ ____
ROOT
ATOM      1  N   UNL     1      -1.399  -0.528   0.004  0.00  0.00    -0.257 N 
ATOM      2  C   UNL     1      -1.990  -0.748   1.216  0.00  0.00    +0.042 C 
ATOM      3  C   UNL     1      -3.254  -1.207   1.304  0.00  0.00    +0.058 C 
ATOM      4  C   UNL     1      -3.999  -1.472   0.011  0.00  0.00    +0.143 C 
ATOM      5  N   UNL     1      -3.275  -1.204  -1.243  0.00  0.00    -0.288 N 
ATOM      6  C   UNL     1      -2.012  -0.740  -1.168  0.00  0.00    +0.307 C 
ATOM      7  O   UNL     1      -1.407  -0.512  -2.197  0.00  0.00    -0.252 OA
ATOM      8  C   UNL     1      -3.631  -1.350   2.655  0.00  0.00    +0.247 C 
ATOM      9  O   UNL     1      -4.720  -1.747   3.027  0.00  0.00    -0.270 OA
ATOM     10  N   UNL     1      -2.631  -0.990   3.479  0.00  0.00    -0.292 N 
ATOM     11  C   UNL     1      -1.499  -0.576   2.636  0.00  0.00    +0.159 C 
ATOM     12  H   UNL     1      -3.698  -1.354  -2.102  0.00  0.00    +0.151 HD
ENDROOT
BRANCH   4  13
ATOM     13  C   UNL     1      -4.418  -2.920   0.005  0.00  0.00    -0.004 A 
ATOM     14  C   UNL     1      -3.625  -3.866  -0.618  0.00  0.00    +0.008 A 
ATOM     15  C   UNL     1      -4.008  -5.194  -0.624  0.00  0.00    +0.020 A 
ATOM     16  C   UNL     1      -5.186  -5.577  -0.007  0.00  0.00    +0.042 A 
ATOM     17  C   UNL     1      -5.979  -4.631   0.616  0.00  0.00    +0.040 A 
ATOM     18  C   UNL     1      -5.593  -3.303   0.627  0.00  0.00    +0.048 A 
ATOM     19 CL   UNL     1      -6.585  -2.116   1.414  0.00  0.00    -0.083 Cl
ATOM     20 CL   UNL     1      -5.668  -7.245  -0.016  0.00  0.00    -0.083 Cl
ENDBRANCH   4  13
BRANCH   1  22
ATOM     21  C   UNL     1      -0.036   1.502  -0.009  0.00  0.00    +0.025 C 
ATOM     22  C   UNL     1      -0.022  -0.028  -0.015  0.00  0.00    +0.111 C 
ENDBRANCH   1  22
BRANCH  10  23
ATOM     23  C   UNL     1      -2.662  -1.008   4.944  0.00  0.00    +0.117 C 
BRANCH  23  24
ATOM     24  C   UNL     1      -2.181  -2.370   5.448  0.00  0.00    +0.115 C 
BRANCH  24  25
ATOM     25  C   UNL     1      -2.213  -2.388   6.955  0.00  0.00    +0.219 C 
ATOM     26  O   UNL     1      -2.585  -1.408   7.565  0.00  0.00    -0.275 OA
ATOM     27  N   UNL     1      -1.829  -3.493   7.624  0.00  0.00    -0.285 N 
ATOM     28  H   UNL     1      -1.596  -4.299   7.136  0.00  0.00    +0.155 HD
BRANCH  27  29
ATOM     29  C   UNL     1      -1.767  -3.478   9.023  0.00  0.00    +0.034 A 
ATOM     30  C   UNL     1      -0.776  -4.195   9.682  0.00  0.00    +0.027 A 
ATOM     31  C   UNL     1      -0.715  -4.179  11.061  0.00  0.00    +0.047 A 
ATOM     32  C   UNL     1      -1.643  -3.449  11.789  0.00  0.00    +0.120 A 
ATOM     33  C   UNL     1      -2.634  -2.734  11.132  0.00  0.00    +0.047 A 
ATOM     34  C   UNL     1      -2.692  -2.743   9.752  0.00  0.00    +0.027 A 
BRANCH  32  35
ATOM     35  O   UNL     1      -1.583  -3.435  13.147  0.00  0.00    -0.495 OA
ATOM     36  C   UNL     1      -2.570  -2.662  13.833  0.00  0.00    +0.277 C 
ENDBRANCH  32  35
ENDBRANCH  27  29
ENDBRANCH  24  25
ENDBRANCH  23  24
ENDBRANCH  10  23
TORSDOF 7
