REMARK  Name = ZINC07669501
REMARK  11 active torsions:
REMARK  status: ('A' for Active; 'I' for Inactive)
REMARK    1  A    between atoms: C_1  and  C_2
REMARK    2  A    between atoms: C_2  and  N_3
REMARK    3  A    between atoms: N_3  and  C_4
REMARK    4  A    between atoms: N_3  and  C_18
REMARK    5  A    between atoms: C_4  and  C_5
REMARK    6  A    between atoms: N_7  and  C_8
REMARK    7  A    between atoms: C_11  and  N_14
REMARK    8  A    between atoms: C_15  and  C_17
REMARK    9  A    between atoms: C_18  and  C_20
REMARK   10  A    between atoms: C_18  and  C_21
REMARK   11  A    between atoms: N_26  and  C_27
REMARK                            x       y       z     vdW  Elec       q    Type
REMARK                         _______ _______ _______ _____ _____    ______ ____
ROOT
ATOM      1  N   UNL     1      -1.584  -0.516   0.658  0.00  0.00    +0.393 N 
ATOM      2  H   UNL     1      -1.994   0.003   1.420  0.00  0.00    -0.080 HD
ENDROOT
BRANCH   1   4
ATOM      3  C   UNL     1      -0.061   1.377   0.353  0.00  0.00    -0.017 C 
ATOM      4  C   UNL     1      -0.171  -0.140   0.514  0.00  0.00    -0.081 C 
ENDBRANCH   1   4
BRANCH   1   5
ATOM      5  C   UNL     1      -2.302  -0.208  -0.586  0.00  0.00    +0.017 C 
ATOM      6  C   UNL     1      -1.790  -1.114  -1.708  0.00  0.00    -0.004 C 
BRANCH   5   7
ATOM      7  C   UNL     1      -3.777  -0.441  -0.386  0.00  0.00    +0.207 C 
ATOM      8  O   UNL     1      -4.196  -0.775   0.702  0.00  0.00    -0.277 OA
ATOM      9  N   UNL     1      -4.631  -0.277  -1.415  0.00  0.00    -0.242 N 
ATOM     10  C   UNL     1      -5.951  -0.485  -1.236  0.00  0.00    +0.306 C 
ATOM     11  O   UNL     1      -6.370  -0.820  -0.146  0.00  0.00    -0.252 OA
ATOM     12  N   UNL     1      -6.805  -0.321  -2.266  0.00  0.00    -0.296 N 
ATOM     13  H   UNL     1      -4.296  -0.009  -2.286  0.00  0.00    +0.159 HD
ATOM     14  H   UNL     1      -6.470  -0.054  -3.136  0.00  0.00    +0.151 HD
BRANCH  12  15
ATOM     15  C   UNL     1      -8.239  -0.547  -2.071  0.00  0.00    +0.074 C 
ATOM     16  C   UNL     1      -8.549  -2.036  -2.242  0.00  0.00    +0.022 C 
ATOM     17  C   UNL     1     -10.046  -2.272  -2.038  0.00  0.00    +0.002 C 
ATOM     18  C   UNL     1     -10.835  -1.465  -3.071  0.00  0.00    +0.000 C 
ATOM     19  C   UNL     1     -10.526   0.023  -2.900  0.00  0.00    +0.002 C 
ATOM     20  C   UNL     1      -9.028   0.260  -3.104  0.00  0.00    +0.022 C 
ENDBRANCH  12  15
ENDBRANCH   5   7
ENDBRANCH   1   5
BRANCH   1  21
ATOM     21  C   UNL     1      -1.682  -1.955   0.936  0.00  0.00    +0.020 C 
BRANCH  21  22
ATOM     22  C   UNL     1      -1.052  -2.252   2.272  0.00  0.00    +0.201 C 
ATOM     23  O   UNL     1      -0.569  -1.354   2.928  0.00  0.00    -0.278 OA
ATOM     24  N   UNL     1      -1.025  -3.517   2.738  0.00  0.00    -0.287 N 
ATOM     25  H   UNL     1      -1.470  -4.224   2.246  0.00  0.00    +0.155 HD
BRANCH  24  26
ATOM     26  C   UNL     1      -0.355  -3.809   3.933  0.00  0.00    +0.033 A 
ATOM     27  C   UNL     1      -0.361  -2.890   4.975  0.00  0.00    +0.025 A 
ATOM     28  C   UNL     1       0.299  -3.178   6.152  0.00  0.00    +0.025 A 
ATOM     29  C   UNL     1       0.970  -4.386   6.295  0.00  0.00    +0.033 A 
ATOM     30  C   UNL     1       0.976  -5.304   5.254  0.00  0.00    +0.025 A 
ATOM     31  C   UNL     1       0.310  -5.019   4.078  0.00  0.00    +0.025 A 
BRANCH  29  32
ATOM     32  N   UNL     1       1.640  -4.678   7.490  0.00  0.00    -0.286 N 
ATOM     33  C   UNL     1       2.781  -5.395   7.465  0.00  0.00    +0.214 C 
ATOM     34  O   UNL     1       3.274  -5.713   6.403  0.00  0.00    -0.276 OA
ATOM     35  C   UNL     1       3.443  -5.803   8.756  0.00  0.00    +0.109 C 
ATOM     36  H   UNL     1       1.284  -4.363   8.336  0.00  0.00    +0.155 HD
ENDBRANCH  29  32
ENDBRANCH  24  26
ENDBRANCH  21  22
ENDBRANCH   1  21
TORSDOF 8
