REMARK  Name = ZINC36813033
REMARK  4 active torsions:
REMARK  status: ('A' for Active; 'I' for Inactive)
REMARK    1  A    between atoms: C_1  and  C_2
REMARK    2  A    between atoms: C_5  and  N_9
REMARK    3  A    between atoms: N_9  and  C_10
REMARK    4  A    between atoms: C_19  and  N_20
REMARK                            x       y       z     vdW  Elec       q    Type
REMARK                         _______ _______ _______ _____ _____    ______ ____
ROOT
ATOM      1  C   UNL     1      -0.051  -4.856  -1.228  0.00  0.00    +0.063 A 
ATOM      2  C   UNL     1      -0.456  -6.210  -1.260  0.00  0.00    +0.022 A 
ATOM      3  C   UNL     1      -0.778  -6.902  -0.084  0.00  0.00    +0.027 A 
ATOM      4  C   UNL     1      -1.165  -8.207  -0.155  0.00  0.00    +0.019 A 
ATOM      5  C   UNL     1      -1.244  -8.862  -1.383  0.00  0.00    +0.017 A 
ATOM      6  C   UNL     1      -0.938  -8.219  -2.543  0.00  0.00    +0.027 A 
ATOM      7  C   UNL     1      -0.536  -6.872  -2.509  0.00  0.00    +0.048 A 
ATOM      8  N   UNL     1      -0.231  -6.218  -3.635  0.00  0.00    -0.359 N 
ATOM      9  C   UNL     1       0.146  -4.961  -3.623  0.00  0.00    +0.107 A 
ATOM     10  C   UNL     1       0.246  -4.237  -2.437  0.00  0.00    +0.063 A 
ATOM     11 BR   UNL     1      -1.599  -9.140   1.431  0.00  0.00    -0.050 Br
ATOM     12  H   UNL     1      -0.291  -6.685  -4.483  0.00  0.00    +0.165 HD
ENDROOT
BRANCH  10  13
ATOM     13  N   UNL     1       0.647  -2.893  -2.462  0.00  0.00    -0.355 N 
ATOM     14  H   UNL     1       0.794  -2.416  -1.631  0.00  0.00    +0.142 HD
ATOM     15  H   UNL     1       0.777  -2.442  -3.310  0.00  0.00    +0.142 HD
ENDBRANCH  10  13
BRANCH   1  16
ATOM     16  N   UNL     1       0.042  -4.163  -0.024  0.00  0.00    -0.312 N 
ATOM     17  H   UNL     1       0.840  -4.244   0.521  0.00  0.00    +0.152 HD
BRANCH  16  22
ATOM     18  C   UNL     1      -4.245  -0.870   1.690  0.00  0.00    +0.044 C 
ATOM     19  C   UNL     1      -3.106  -1.745   1.235  0.00  0.00    -0.049 A 
ATOM     20  C   UNL     1      -3.147  -2.337  -0.014  0.00  0.00    +0.005 A 
ATOM     21  C   UNL     1      -2.105  -3.140  -0.435  0.00  0.00    +0.024 A 
ATOM     22  C   UNL     1      -1.014  -3.352   0.398  0.00  0.00    +0.046 A 
ATOM     23  C   UNL     1      -0.975  -2.755   1.653  0.00  0.00    +0.039 A 
ATOM     24  C   UNL     1      -2.019  -1.950   2.065  0.00  0.00    +0.020 A 
ATOM     25 BR   UNL     1       0.508  -3.040   2.792  0.00  0.00    -0.048 Br
ENDBRANCH  16  22
ENDBRANCH   1  16
TORSDOF 3
