REMARK  Name = ZINC06282578
REMARK  10 active torsions:
REMARK  status: ('A' for Active; 'I' for Inactive)
REMARK    1  A    between atoms: C_1  and  O_2
REMARK    2  A    between atoms: O_2  and  C_3
REMARK    3  A    between atoms: C_10  and  C_15
REMARK    4  A    between atoms: C_15  and  C_17
REMARK    5  A    between atoms: C_15  and  N_68
REMARK    6  A    between atoms: N_21  and  C_22
REMARK    7  A    between atoms: C_27  and  C_28
REMARK    8  A    between atoms: C_27  and  N_68
REMARK    9  A    between atoms: C_35  and  C_36
REMARK   10  A    between atoms: C_35  and  N_68
REMARK                            x       y       z     vdW  Elec       q    Type
REMARK                         _______ _______ _______ _____ _____    ______ ____
ROOT
ATOM      1  C   UNL     1      -5.022   0.937   0.666  0.00  0.00    +0.040 C 
ENDROOT
BRANCH   1   9
ATOM      2  C   UNL     1       0.942   0.260   2.216  0.00  0.00    +0.121 A 
ATOM      3  C   UNL     1       1.180   1.605   2.486  0.00  0.00    +0.047 A 
ATOM      4  C   UNL     1       0.174   2.537   2.354  0.00  0.00    +0.030 A 
ATOM      5  C   UNL     1      -1.095   2.136   1.946  0.00  0.00    +0.049 A 
ATOM      6  C   UNL     1      -1.338   0.778   1.667  0.00  0.00    +0.002 A 
ATOM      7  C   UNL     1      -0.309  -0.159   1.811  0.00  0.00    +0.055 A 
ATOM      8  C   UNL     1      -2.676   0.372   1.233  0.00  0.00    +0.017 A 
ATOM      9  C   UNL     1      -3.635   1.323   1.111  0.00  0.00    +0.011 A 
ATOM     10  C   UNL     1      -3.338   2.672   1.397  0.00  0.00    +0.251 A 
ATOM     11  O   UNL     1      -4.214   3.511   1.280  0.00  0.00    -0.268 OA
ATOM     12  N   UNL     1      -2.116   3.054   1.807  0.00  0.00    -0.322 N 
ATOM     13  H   UNL     1      -1.946   3.990   1.997  0.00  0.00    +0.169 HD
BRANCH   2  15
ATOM     14  C   UNL     1       3.217  -0.146   2.775  0.00  0.00    +0.277 C 
ATOM     15  O   UNL     1       1.947  -0.646   2.352  0.00  0.00    -0.495 OA
ENDBRANCH   2  15
ENDBRANCH   1   9
BRANCH   1  16
ATOM     16  C   UNL     1      -5.998   1.197   1.785  0.00  0.00    +0.143 A 
ATOM     17  N   UNL     1      -6.652   2.310   2.010  0.00  0.00    -0.115 NA
ATOM     18  N   UNL     1      -7.387   2.136   3.054  0.00  0.00    -0.023 NA
ATOM     19  N   UNL     1      -7.212   0.943   3.506  0.00  0.00    -0.044 NA
ATOM     20  N   UNL     1      -6.363   0.332   2.750  0.00  0.00    -0.227 N 
BRANCH  20  21
ATOM     21  C   UNL     1      -5.885  -1.043   2.912  0.00  0.00    +0.111 C 
ATOM     22  C   UNL     1      -7.081  -2.018   2.938  0.00  0.00    +0.027 C 
ATOM     23  C   UNL     1      -6.673  -3.090   3.980  0.00  0.00    +0.002 C 
ATOM     24  C   UNL     1      -5.945  -2.256   5.063  0.00  0.00    +0.002 C 
ATOM     25  C   UNL     1      -5.163  -1.195   4.262  0.00  0.00    +0.027 C 
ENDBRANCH  20  21
ENDBRANCH   1  16
BRANCH   1  26
ATOM     26  N   UNL     1      -5.401   1.762  -0.500  0.00  0.00    +0.397 N 
ATOM     27  H   UNL     1      -5.452   2.746  -0.210  0.00  0.00    -0.079 HD
BRANCH  26  28
ATOM     28  C   UNL     1      -6.724   1.342  -1.007  0.00  0.00    -0.041 C 
BRANCH  28  29
ATOM     29  C   UNL     1      -6.698  -0.108  -1.414  0.00  0.00    -0.064 A 
ATOM     30  C   UNL     1      -6.361  -0.457  -2.709  0.00  0.00    +0.004 A 
ATOM     31  C   UNL     1      -6.332  -1.787  -3.082  0.00  0.00    +0.038 A 
ATOM     32  C   UNL     1      -6.651  -2.771  -2.161  0.00  0.00    +0.123 A 
ATOM     33  C   UNL     1      -6.994  -2.420  -0.866  0.00  0.00    +0.038 A 
ATOM     34  C   UNL     1      -7.017  -1.090  -0.494  0.00  0.00    +0.004 A 
ATOM     35  F   UNL     1      -6.628  -4.071  -2.526  0.00  0.00    -0.205 F 
ENDBRANCH  28  29
ENDBRANCH  26  28
BRANCH  26  36
ATOM     36  C   UNL     1      -4.386   1.628  -1.565  0.00  0.00    -0.001 C 
BRANCH  36  37
ATOM     37  C   UNL     1      -4.606   2.715  -2.585  0.00  0.00    +0.089 A 
ATOM     38  C   UNL     1      -3.998   3.915  -2.601  0.00  0.00    +0.042 A 
ATOM     39  C   UNL     1      -4.498   4.614  -3.723  0.00  0.00    +0.041 A 
ATOM     40  C   UNL     1      -5.383   3.799  -4.326  0.00  0.00    +0.195 A 
ATOM     41  O   UNL     1      -5.440   2.649  -3.636  0.00  0.00    -0.470 OA
ENDBRANCH  36  37
ENDBRANCH  26  36
ENDBRANCH   1  26
TORSDOF 9
