REMARK  Name = ZINC12340208
REMARK  7 active torsions:
REMARK  status: ('A' for Active; 'I' for Inactive)
REMARK    1  A    between atoms: C_4  and  C_7
REMARK    2  A    between atoms: C_7  and  N_8
REMARK    3  A    between atoms: C_11  and  C_15
REMARK    4  A    between atoms: C_15  and  C_16
REMARK    5  A    between atoms: N_18  and  N_19
REMARK    6  A    between atoms: C_20  and  C_21
REMARK    7  A    between atoms: C_26  and  O_27
REMARK                            x       y       z     vdW  Elec       q    Type
REMARK                         _______ _______ _______ _____ _____    ______ ____
ROOT
ATOM      1  C   UNL     1       3.198  -0.417   1.929  0.00  0.00    +0.091 C 
ENDROOT
BRANCH   1   5
ATOM      2  N   UNL     1       1.346   2.045   0.000  0.00  0.00    -0.300 N 
ATOM      3  C   UNL     1      -0.019   1.526   0.010  0.00  0.00    +0.089 C 
ATOM      4  C   UNL     1       0.002  -0.004   0.002  0.00  0.00    -0.062 C 
ATOM      5  C   UNL     1       2.300  -0.144   0.721  0.00  0.00    +0.025 C 
ATOM      6  C   UNL     1       2.408   1.304   0.336  0.00  0.00    +0.202 C 
ATOM      7  O   UNL     1       3.504   1.824   0.330  0.00  0.00    -0.277 OA
ATOM      8  N   UNL     1       0.908  -0.473   1.067  0.00  0.00    +0.388 N 
ATOM      9  H   UNL     1       0.814  -1.490   1.172  0.00  0.00    -0.085 HD
ATOM     10  H   UNL     1       0.660  -0.013   1.952  0.00  0.00    -0.085 HD
BRANCH   2  11
ATOM     11  C   UNL     1       1.562   3.438  -0.396  0.00  0.00    +0.142 C 
BRANCH  11  15
ATOM     12  C   UNL     1       1.361   5.947   3.055  0.00  0.00    +0.000 A 
ATOM     13  C   UNL     1       2.571   5.406   2.663  0.00  0.00    +0.000 A 
ATOM     14  C   UNL     1       2.636   4.595   1.547  0.00  0.00    +0.005 A 
ATOM     15  C   UNL     1       1.491   4.324   0.822  0.00  0.00    -0.030 A 
ATOM     16  C   UNL     1       0.282   4.869   1.210  0.00  0.00    +0.005 A 
ATOM     17  C   UNL     1       0.216   5.677   2.330  0.00  0.00    +0.000 A 
ENDBRANCH  11  15
ENDBRANCH   2  11
ENDBRANCH   1   5
BRANCH   1  18
ATOM     18  C   UNL     1       3.197  -1.893   2.232  0.00  0.00    +0.231 C 
ATOM     19  O   UNL     1       2.542  -2.652   1.549  0.00  0.00    -0.274 OA
ATOM     20  N   UNL     1       3.924  -2.370   3.263  0.00  0.00    -0.207 N 
ATOM     21  H   UNL     1       4.447  -1.763   3.808  0.00  0.00    +0.177 HD
BRANCH  20  22
ATOM     22  N   UNL     1       3.922  -3.742   3.545  0.00  0.00    -0.188 NA
ATOM     23  C   UNL     1       4.622  -4.201   4.537  0.00  0.00    +0.142 C 
BRANCH  23  24
ATOM     24  C   UNL     1       4.621  -5.645   4.834  0.00  0.00    +0.039 A 
ATOM     25  C   UNL     1       5.373  -6.143   5.901  0.00  0.00    +0.033 A 
ATOM     26  C   UNL     1       5.367  -7.495   6.174  0.00  0.00    +0.043 A 
ATOM     27  C   UNL     1       4.620  -8.362   5.394  0.00  0.00    +0.043 A 
ATOM     28  C   UNL     1       3.872  -7.881   4.334  0.00  0.00    +0.084 A 
ATOM     29  C   UNL     1       3.861  -6.524   4.051  0.00  0.00    +0.144 A 
ATOM     30 CL   UNL     1       2.939  -8.977   3.363  0.00  0.00    -0.080 Cl
ATOM     31 CL   UNL     1       6.302  -8.113   7.500  0.00  0.00    -0.083 Cl
BRANCH  29  32
ATOM     32  O   UNL     1       3.122  -6.050   3.015  0.00  0.00    -0.505 OA
ATOM     33  H   UNL     1       3.596  -6.024   2.173  0.00  0.00    +0.292 HD
ENDBRANCH  29  32
ENDBRANCH  23  24
ENDBRANCH  20  22
ENDBRANCH   1  18
TORSDOF 7
