REMARK  Name = ZINC35636168
REMARK  7 active torsions:
REMARK  status: ('A' for Active; 'I' for Inactive)
REMARK    1  A    between atoms: C_1  and  C_2
REMARK    2  A    between atoms: C_5  and  C_8
REMARK    3  A    between atoms: N_13  and  C_16
REMARK    4  A    between atoms: C_16  and  C_18
REMARK    5  A    between atoms: C_16  and  C_24
REMARK    6  A    between atoms: N_26  and  C_27
REMARK    7  A    between atoms: N_34  and  C_38
REMARK                            x       y       z     vdW  Elec       q    Type
REMARK                         _______ _______ _______ _____ _____    ______ ____
ROOT
ATOM      1  C   UNL     1       0.176  -3.736   0.265  0.00  0.00    +0.142 C 
ATOM      2  C   UNL     1       1.597  -4.247   0.395  0.00  0.00    +0.058 C 
ATOM      3  C   UNL     1       1.932  -4.885   1.534  0.00  0.00    +0.042 C 
ATOM      4  C   UNL     1       3.385  -5.279   1.390  0.00  0.00    +0.160 C 
ATOM      5  N   UNL     1       3.781  -4.785   0.063  0.00  0.00    -0.277 N 
ATOM      6  C   UNL     1       2.703  -4.190  -0.479  0.00  0.00    +0.247 C 
ATOM      7  O   UNL     1       2.684  -3.670  -1.579  0.00  0.00    -0.270 OA
ATOM      8  N   UNL     1       1.023  -5.065   2.538  0.00  0.00    -0.260 N 
ATOM      9  C   UNL     1      -0.244  -4.635   2.476  0.00  0.00    +0.307 C 
ATOM     10  O   UNL     1      -0.982  -4.841   3.420  0.00  0.00    -0.252 OA
ATOM     11  N   UNL     1      -0.726  -3.980   1.402  0.00  0.00    -0.288 N 
ATOM     12  C   UNL     1       1.458  -5.768   3.747  0.00  0.00    +0.139 C 
ATOM     13  H   UNL     1      -1.647  -3.677   1.379  0.00  0.00    +0.151 HD
ENDROOT
BRANCH   1  18
ATOM     14  C   UNL     1       0.407   1.969  -0.629  0.00  0.00    +0.044 C 
ATOM     15  C   UNL     1       0.347   0.481  -0.396  0.00  0.00    -0.050 A 
ATOM     16  C   UNL     1       0.228  -0.382  -1.469  0.00  0.00    +0.004 A 
ATOM     17  C   UNL     1       0.173  -1.747  -1.255  0.00  0.00    +0.006 A 
ATOM     18  C   UNL     1       0.237  -2.248   0.031  0.00  0.00    -0.023 A 
ATOM     19  C   UNL     1       0.357  -1.385   1.104  0.00  0.00    +0.006 A 
ATOM     20  C   UNL     1       0.417  -0.020   0.890  0.00  0.00    +0.004 A 
ENDBRANCH   1  18
BRANCH   5  21
ATOM     21  C   UNL     1       5.103  -4.917  -0.554  0.00  0.00    +0.193 C 
BRANCH  21  22
ATOM     22  C   UNL     1       5.717  -3.550  -0.722  0.00  0.00    -0.018 A 
ATOM     23  C   UNL     1       5.686  -2.646   0.323  0.00  0.00    +0.006 A 
ATOM     24  C   UNL     1       6.249  -1.393   0.169  0.00  0.00    +0.000 A 
ATOM     25  C   UNL     1       6.844  -1.045  -1.030  0.00  0.00    +0.000 A 
ATOM     26  C   UNL     1       6.875  -1.950  -2.074  0.00  0.00    +0.000 A 
ATOM     27  C   UNL     1       6.316  -3.204  -1.919  0.00  0.00    +0.006 A 
ENDBRANCH  21  22
BRANCH  21  28
ATOM     28  C   UNL     1       5.987  -5.760   0.327  0.00  0.00    +0.242 C 
ATOM     29  O   UNL     1       5.556  -6.207   1.369  0.00  0.00    -0.273 OA
ATOM     30  N   UNL     1       7.258  -6.017  -0.042  0.00  0.00    -0.284 N 
ATOM     31  H   UNL     1       7.626  -5.601  -0.837  0.00  0.00    +0.155 HD
BRANCH  30  32
ATOM     32  C   UNL     1       8.047  -6.885   0.723  0.00  0.00    +0.034 A 
ATOM     33  C   UNL     1       9.414  -6.667   0.833  0.00  0.00    +0.026 A 
ATOM     34  C   UNL     1      10.190  -7.524   1.588  0.00  0.00    +0.040 A 
ATOM     35  C   UNL     1       9.606  -8.601   2.234  0.00  0.00    +0.124 A 
ATOM     36  C   UNL     1       8.243  -8.820   2.125  0.00  0.00    +0.040 A 
ATOM     37  C   UNL     1       7.463  -7.962   1.377  0.00  0.00    +0.026 A 
ATOM     38  F   UNL     1      10.368  -9.439   2.971  0.00  0.00    -0.205 F 
ENDBRANCH  30  32
ENDBRANCH  21  28
ENDBRANCH   5  21
TORSDOF 5
