REMARK  Name = ZINC12501365
REMARK  9 active torsions:
REMARK  status: ('A' for Active; 'I' for Inactive)
REMARK    1  A    between atoms: C_4  and  O_36
REMARK    2  A    between atoms: C_5  and  C_7
REMARK    3  A    between atoms: C_7  and  C_9
REMARK    4  A    between atoms: C_12  and  C_15
REMARK    5  A    between atoms: C_15  and  O_17
REMARK    6  A    between atoms: O_17  and  C_18
REMARK    7  A    between atoms: C_24  and  N_26
REMARK    8  A    between atoms: C_27  and  C_29
REMARK    9  A    between atoms: C_32  and  O_35
REMARK                            x       y       z     vdW  Elec       q    Type
REMARK                         _______ _______ _______ _____ _____    ______ ____
ROOT
ATOM      1  C   UNL     1      -1.376   2.729   1.292  0.00  0.00    +0.195 C 
ATOM      2  C   UNL     1      -0.188   3.443   0.708  0.00  0.00    +0.044 C 
ATOM      3  C   UNL     1      -0.379   3.563  -0.821  0.00  0.00    -0.015 C 
ATOM      4  C   UNL     1      -0.095   2.302  -1.498  0.00  0.00    -0.082 C 
ATOM      5  C   UNL     1      -0.485   0.619   0.146  0.00  0.00    -0.056 C 
ATOM      6  C   UNL     1      -1.174   1.203   1.394  0.00  0.00    +0.097 C 
ATOM      7  N   UNL     1      -0.990   1.206  -1.071  0.00  0.00    +0.380 N 
ATOM      8  H   UNL     1      -1.028   0.489  -1.806  0.00  0.00    -0.086 HD
ATOM      9  H   UNL     1      -1.933   1.577  -0.907  0.00  0.00    -0.086 HD
ENDROOT
BRANCH   6  10
ATOM     10  N   UNL     1      -0.350   0.913   2.571  0.00  0.00    -0.307 N 
ATOM     11  C   UNL     1      -0.475  -0.269   3.206  0.00  0.00    +0.244 C 
ATOM     12  O   UNL     1      -1.272  -1.095   2.802  0.00  0.00    -0.270 OA
ATOM     13  H   UNL     1       0.285   1.572   2.893  0.00  0.00    +0.149 HD
BRANCH  11  14
ATOM     14  C   UNL     1       0.354  -0.562   4.391  0.00  0.00    +0.037 A 
ATOM     15  C   UNL     1       1.274   0.384   4.853  0.00  0.00    +0.016 A 
ATOM     16  C   UNL     1       2.042   0.109   5.963  0.00  0.00    +0.046 A 
ATOM     17  C   UNL     1       1.911  -1.110   6.616  0.00  0.00    +0.117 A 
ATOM     18  C   UNL     1       1.002  -2.056   6.156  0.00  0.00    +0.046 A 
ATOM     19  C   UNL     1       0.226  -1.787   5.051  0.00  0.00    +0.016 A 
BRANCH  17  20
ATOM     20  O   UNL     1       2.674  -1.379   7.706  0.00  0.00    -0.507 OA
ATOM     21  H   UNL     1       3.518  -1.803   7.501  0.00  0.00    +0.292 HD
ENDBRANCH  17  20
ENDBRANCH  11  14
ENDBRANCH   6  10
BRANCH   1  22
ATOM     22  O   UNL     1      -1.632   3.257   2.620  0.00  0.00    -0.456 OA
BRANCH  22  23
ATOM     23  C   UNL     1      -2.469   4.308   2.709  0.00  0.00    +0.340 C 
ATOM     24  O   UNL     1      -2.971   4.771   1.705  0.00  0.00    -0.245 OA
BRANCH  23  28
ATOM     25  C   UNL     1      -3.352   6.007   6.507  0.00  0.00    +0.022 A 
ATOM     26  C   UNL     1      -3.930   6.539   5.353  0.00  0.00    +0.012 A 
ATOM     27  C   UNL     1      -3.644   5.989   4.122  0.00  0.00    +0.015 A 
ATOM     28  C   UNL     1      -2.776   4.899   4.030  0.00  0.00    +0.059 A 
ATOM     29  C   UNL     1      -2.203   4.364   5.185  0.00  0.00    +0.015 A 
ATOM     30  C   UNL     1      -2.484   4.918   6.415  0.00  0.00    +0.012 A 
BRANCH  25  31
ATOM     31  C   UNL     1      -3.659   6.599   7.828  0.00  0.00    +0.197 C 
ATOM     32  O   UNL     1      -4.767   7.049   8.050  0.00  0.00    -0.287 OA
BRANCH  31  37
ATOM     33  C   UNL     1      -0.348   6.297   9.566  0.00  0.00    +0.001 A 
ATOM     34  C   UNL     1      -0.671   6.724  10.845  0.00  0.00    +0.004 A 
ATOM     35  C   UNL     1      -1.962   7.109  11.148  0.00  0.00    +0.046 A 
ATOM     36  C   UNL     1      -2.945   7.078  10.169  0.00  0.00    +0.128 A 
ATOM     37  C   UNL     1      -2.623   6.642   8.875  0.00  0.00    +0.064 A 
ATOM     38  C   UNL     1      -1.311   6.254   8.583  0.00  0.00    +0.015 A 
BRANCH  36  39
ATOM     39  O   UNL     1      -4.212   7.462  10.464  0.00  0.00    -0.506 OA
ATOM     40  H   UNL     1      -4.777   6.744  10.780  0.00  0.00    +0.292 HD
ENDBRANCH  36  39
ENDBRANCH  31  37
ENDBRANCH  25  31
ENDBRANCH  23  28
ENDBRANCH  22  23
ENDBRANCH   1  22
TORSDOF 9
