REMARK  Name = ZINC45896360
REMARK  5 active torsions:
REMARK  status: ('A' for Active; 'I' for Inactive)
REMARK    1  A    between atoms: C_8  and  N_12
REMARK    2  A    between atoms: C_9  and  O_10
REMARK    3  A    between atoms: N_15  and  C_16
REMARK    4  A    between atoms: C_16  and  C_17
REMARK    5  A    between atoms: N_24  and  C_25
REMARK                            x       y       z     vdW  Elec       q    Type
REMARK                         _______ _______ _______ _____ _____    ______ ____
ROOT
ATOM      1  C   UNL     1       0.237   1.729  -0.202  0.00  0.00    +0.001 A 
ATOM      2  C   UNL     1       1.470   2.329  -0.002  0.00  0.00    +0.004 A 
ATOM      3  C   UNL     1       2.616   1.567   0.096  0.00  0.00    +0.047 A 
ATOM      4  C   UNL     1       2.538   0.183  -0.006  0.00  0.00    +0.141 A 
ATOM      5  C   UNL     1       1.290  -0.421  -0.208  0.00  0.00    +0.042 A 
ATOM      6  C   UNL     1       0.141   0.357  -0.305  0.00  0.00    +0.013 A 
ATOM      7  C   UNL     1       1.232  -1.897  -0.314  0.00  0.00    +0.075 A 
ATOM      8  C   UNL     1       2.462  -2.608  -0.202  0.00  0.00    +0.140 A 
ATOM      9  C   UNL     1       3.612  -1.919  -0.007  0.00  0.00    +0.309 A 
ATOM     10  O   UNL     1       3.648  -0.580   0.087  0.00  0.00    -0.424 OA
ATOM     11  N   UNL     1       0.091  -2.526  -0.503  0.00  0.00    -0.380 N 
ATOM     12  H   UNL     1       0.076  -3.370  -0.983  0.00  0.00    +0.160 HD
ENDROOT
BRANCH   8  13
ATOM     13  N   UNL     1       2.482  -4.015  -0.293  0.00  0.00    -0.262 N 
ATOM     14  C   UNL     1       1.753  -4.756   0.565  0.00  0.00    +0.304 C 
ATOM     15  O   UNL     1       1.006  -4.212   1.356  0.00  0.00    -0.252 OA
ATOM     16  N   UNL     1       1.853  -6.100   0.548  0.00  0.00    -0.295 N 
ATOM     17  H   UNL     1       3.019  -4.449  -0.973  0.00  0.00    +0.157 HD
ATOM     18  H   UNL     1       2.449  -6.534  -0.082  0.00  0.00    +0.151 HD
BRANCH  16  19
ATOM     19  C   UNL     1       1.061  -6.905   1.481  0.00  0.00    +0.141 C 
BRANCH  19  20
ATOM     20  C   UNL     1       1.354  -8.366   1.257  0.00  0.00    -0.030 A 
ATOM     21  C   UNL     1       0.604  -9.090   0.349  0.00  0.00    +0.008 A 
ATOM     22  C   UNL     1       0.872 -10.430   0.142  0.00  0.00    +0.038 A 
ATOM     23  C   UNL     1       1.892 -11.047   0.846  0.00  0.00    +0.123 A 
ATOM     24  C   UNL     1       2.643 -10.322   1.755  0.00  0.00    +0.038 A 
ATOM     25  C   UNL     1       2.376  -8.980   1.956  0.00  0.00    +0.008 A 
ATOM     26  F   UNL     1       2.155 -12.357   0.645  0.00  0.00    -0.205 F 
ENDBRANCH  19  20
ENDBRANCH  16  19
ENDBRANCH   8  13
BRANCH  11  27
ATOM     27  C   UNL     1      -1.156  -1.953   0.009  0.00  0.00    +0.079 C 
ATOM     28  C   UNL     1      -1.939  -3.018   0.804  0.00  0.00    +0.024 C 
ATOM     29  C   UNL     1      -3.423  -2.731   0.463  0.00  0.00    +0.002 C 
ATOM     30  C   UNL     1      -3.360  -2.344  -1.035  0.00  0.00    +0.002 C 
ATOM     31  C   UNL     1      -2.059  -1.525  -1.160  0.00  0.00    +0.024 C 
ENDBRANCH  11  27
BRANCH   9  32
ATOM     32  O   UNL     1       4.772  -2.608   0.097  0.00  0.00    -0.479 OA
ATOM     33  H   UNL     1       5.550  -2.051   0.235  0.00  0.00    +0.295 HD
ENDBRANCH   9  32
TORSDOF 5
