REMARK  Name = ZINC39674104
REMARK  8 active torsions:
REMARK  status: ('A' for Active; 'I' for Inactive)
REMARK    1  A    between atoms: C_1  and  C_2
REMARK    2  A    between atoms: C_3  and  C_8
REMARK    3  A    between atoms: C_4  and  C_7
REMARK    4  A    between atoms: C_12  and  C_21
REMARK    5  A    between atoms: N_23  and  C_24
REMARK    6  A    between atoms: C_24  and  C_25
REMARK    7  A    between atoms: C_25  and  C_26
REMARK    8  A    between atoms: C_34  and  C_36
REMARK                            x       y       z     vdW  Elec       q    Type
REMARK                         _______ _______ _______ _____ _____    ______ ____
ROOT
ATOM      1  C   UNL     1       0.029  -0.415  -2.749  0.00  0.00    +0.252 C 
ATOM      2  O   UNL     1       1.059  -0.160  -3.342  0.00  0.00    -0.270 OA
ATOM      3  N   UNL     1      -1.161  -0.208  -3.345  0.00  0.00    -0.296 N 
ATOM      4  C   UNL     1      -2.512  -0.450  -2.785  0.00  0.00    +0.121 C 
ATOM      5  C   UNL     1      -3.361   0.741  -3.283  0.00  0.00    +0.100 C 
ATOM      6  C   UNL     1      -2.638   1.236  -4.547  0.00  0.00    -0.004 C 
ATOM      7  C   UNL     1      -1.416   0.320  -4.707  0.00  0.00    +0.115 C 
ATOM      8  C   UNL     1      -2.184   2.682  -4.364  0.00  0.00    -0.010 C 
ATOM      9  C   UNL     1      -1.519   3.170  -5.653  0.00  0.00    -0.082 C 
ATOM     10  N   UNL     1      -2.472   3.072  -6.765  0.00  0.00    +0.379 N 
ATOM     11  C   UNL     1      -2.832   1.668  -6.995  0.00  0.00    -0.082 C 
ATOM     12  C   UNL     1      -3.553   1.116  -5.761  0.00  0.00    -0.010 C 
ATOM     13  H   UNL     1      -3.303   3.599  -6.541  0.00  0.00    -0.086 HD
ATOM     14  H   UNL     1      -2.052   3.451  -7.601  0.00  0.00    -0.086 HD
ENDROOT
BRANCH   1  17
ATOM     15  C   UNL     1       0.046   1.327  -0.020  0.00  0.00    +0.070 C 
ATOM     16  C   UNL     1       0.091  -0.174  -0.136  0.00  0.00    +0.093 A 
ATOM     17  C   UNL     1       0.083  -0.951  -1.377  0.00  0.00    +0.101 A 
ATOM     18  C   UNL     1       0.135  -2.268  -1.019  0.00  0.00    +0.147 A 
ATOM     19  O   UNL     1       0.172  -2.333   0.315  0.00  0.00    -0.359 OA
ATOM     20  N   UNL     1       0.149  -1.024   0.847  0.00  0.00    -0.083 NA
ATOM     21  C   UNL     1       0.148  -3.442  -1.963  0.00  0.00    +0.090 C 
ENDBRANCH   1  17
BRANCH   5  22
ATOM     22  C   UNL     1      -4.757   0.286  -3.620  0.00  0.00    +0.218 C 
ATOM     23  O   UNL     1      -4.947  -0.843  -4.021  0.00  0.00    -0.275 OA
ATOM     24  N   UNL     1      -5.796   1.133  -3.474  0.00  0.00    -0.315 N 
ATOM     25  H   UNL     1      -5.644   2.035  -3.153  0.00  0.00    +0.149 HD
BRANCH  24  26
ATOM     26  C   UNL     1      -7.153   0.690  -3.801  0.00  0.00    +0.109 C 
BRANCH  26  27
ATOM     27  C   UNL     1      -8.137   1.835  -3.550  0.00  0.00    +0.056 C 
BRANCH  27  28
ATOM     28  C   UNL     1      -9.534   1.379  -3.886  0.00  0.00    -0.018 A 
ATOM     29  C   UNL     1     -10.488   0.747  -2.972  0.00  0.00    +0.003 A 
ATOM     30  C   UNL     1     -10.447   0.384  -1.625  0.00  0.00    +0.010 A 
ATOM     31  C   UNL     1     -11.535  -0.207  -1.047  0.00  0.00    +0.001 A 
ATOM     32  C   UNL     1     -12.682  -0.450  -1.790  0.00  0.00    +0.002 A 
ATOM     33  C   UNL     1     -12.745  -0.100  -3.121  0.00  0.00    +0.026 A 
ATOM     34  C   UNL     1     -11.648   0.503  -3.729  0.00  0.00    +0.047 A 
ATOM     35  N   UNL     1     -11.404   0.958  -5.005  0.00  0.00    -0.358 N 
ATOM     36  C   UNL     1     -10.142   1.482  -5.078  0.00  0.00    +0.017 A 
ATOM     37  H   UNL     1     -12.034   0.918  -5.742  0.00  0.00    +0.166 HD
ATOM     38  C   UNL     1      -9.524   2.082  -6.315  0.00  0.00    +0.063 C 
ENDBRANCH  27  28
ENDBRANCH  26  27
ENDBRANCH  24  26
ENDBRANCH   5  22
TORSDOF 5
