REMARK  Name = ZINC30871893
REMARK  9 active torsions:
REMARK  status: ('A' for Active; 'I' for Inactive)
REMARK    1  A    between atoms: C_1  and  C_2
REMARK    2  A    between atoms: C_5  and  S_9
REMARK    3  A    between atoms: C_7  and  C_8
REMARK    4  A    between atoms: S_9  and  N_12
REMARK    5  A    between atoms: N_12  and  C_13
REMARK    6  A    between atoms: N_12  and  C_14
REMARK    7  A    between atoms: C_14  and  C_15
REMARK    8  A    between atoms: N_17  and  C_18
REMARK    9  A    between atoms: C_21  and  N_25
REMARK                            x       y       z     vdW  Elec       q    Type
REMARK                         _______ _______ _______ _____ _____    ______ ____
ROOT
ATOM      1  C   UNL     1       3.087  -3.942  -1.679  0.00  0.00    +0.233 C 
ATOM      2  O   UNL     1       3.033  -2.970  -0.955  0.00  0.00    -0.274 OA
ATOM      3  N   UNL     1       3.805  -3.894  -2.819  0.00  0.00    -0.284 N 
ATOM      4  H   UNL     1       3.904  -4.690  -3.364  0.00  0.00    +0.155 HD
ENDROOT
BRANCH   3   5
ATOM      5  C   UNL     1       4.410  -2.693  -3.216  0.00  0.00    +0.036 A 
ATOM      6  C   UNL     1       4.494  -2.372  -4.564  0.00  0.00    +0.045 A 
ATOM      7  C   UNL     1       5.090  -1.188  -4.957  0.00  0.00    +0.065 A 
ATOM      8  C   UNL     1       5.604  -0.320  -4.002  0.00  0.00    +0.062 A 
ATOM      9  C   UNL     1       5.519  -0.642  -2.653  0.00  0.00    +0.065 A 
ATOM     10  C   UNL     1       4.919  -1.823  -2.262  0.00  0.00    +0.045 A 
ATOM     11 CL   UNL     1       6.163   0.442  -1.460  0.00  0.00    -0.082 Cl
ATOM     12 CL   UNL     1       5.196  -0.787  -6.643  0.00  0.00    -0.082 Cl
BRANCH   8  13
ATOM     13  N   UNL     1       6.208   0.879  -4.399  0.00  0.00    -0.356 N 
ATOM     14  H   UNL     1       6.268   1.104  -5.341  0.00  0.00    +0.142 HD
ATOM     15  H   UNL     1       6.568   1.486  -3.733  0.00  0.00    +0.142 HD
ENDBRANCH   8  13
ENDBRANCH   3   5
BRANCH   1  16
ATOM     16  C   UNL     1       2.352  -5.202  -1.305  0.00  0.00    +0.205 C 
BRANCH  16  17
ATOM     17  N   UNL     1       1.653  -5.001  -0.033  0.00  0.00    -0.171 NA
ATOM     18  C   UNL     1       2.362  -5.205   1.233  0.00  0.00    +0.132 C 
BRANCH  17  19
ATOM     19  S   UNL     1       0.062  -4.541  -0.026  0.00  0.00    +0.061 S 
ATOM     20  O   UNL     1      -0.476  -4.959   1.221  0.00  0.00    -0.153 OA
ATOM     21  O   UNL     1      -0.486  -4.956  -1.270  0.00  0.00    -0.153 OA
BRANCH  19  26
ATOM     22  C   UNL     1      -0.056   1.491  -0.019  0.00  0.00    +0.044 C 
ATOM     23  C   UNL     1      -0.026  -0.015  -0.021  0.00  0.00    -0.047 A 
ATOM     24  C   UNL     1      -0.016  -0.705  -1.219  0.00  0.00    +0.005 A 
ATOM     25  C   UNL     1       0.011  -2.087  -1.220  0.00  0.00    +0.029 A 
ATOM     26  C   UNL     1       0.029  -2.780  -0.024  0.00  0.00    +0.106 A 
ATOM     27  C   UNL     1       0.020  -2.090   1.174  0.00  0.00    +0.032 A 
ATOM     28  C   UNL     1      -0.003  -0.708   1.175  0.00  0.00    -0.046 A 
ATOM     29  C   UNL     1      -0.007   0.044   2.482  0.00  0.00    +0.044 C 
ENDBRANCH  19  26
ENDBRANCH  17  19
ENDBRANCH  16  17
ENDBRANCH   1  16
TORSDOF 6
