REMARK  Name = ZINC26401942
REMARK  14 active torsions:
REMARK  status: ('A' for Active; 'I' for Inactive)
REMARK    1  A    between atoms: C_1  and  C_2
REMARK    2  A    between atoms: C_2  and  O_3
REMARK    3  A    between atoms: O_3  and  C_4
REMARK    4  A    between atoms: C_4  and  C_6
REMARK    5  A    between atoms: C_15  and  C_17
REMARK    6  A    between atoms: C_17  and  C_19
REMARK    7  A    between atoms: C_17  and  N_28
REMARK    8  A    between atoms: C_19  and  O_20
REMARK    9  A    between atoms: O_20  and  C_21
REMARK   10  A    between atoms: C_21  and  C_22
REMARK   11  A    between atoms: C_29  and  C_31
REMARK   12  A    between atoms: C_31  and  C_32
REMARK   13  A    between atoms: C_31  and  C_33
REMARK   14  A    between atoms: C_31  and  N_34
REMARK                            x       y       z     vdW  Elec       q    Type
REMARK                         _______ _______ _______ _____ _____    ______ ____
ROOT
ATOM      1  C   UNL     1       5.990  -5.769   2.558  0.00  0.00    +0.129 C 
ATOM      2  C   UNL     1       4.461  -5.846   2.355  0.00  0.00    +0.031 C 
ATOM      3  C   UNL     1       3.925  -5.386   3.723  0.00  0.00    -0.000 C 
ATOM      4  C   UNL     1       2.645  -6.144   4.063  0.00  0.00    +0.030 C 
ATOM      5  C   UNL     1       1.576  -5.839   3.007  0.00  0.00    +0.108 C 
ATOM      6  N   UNL     1       1.419  -4.382   2.902  0.00  0.00    -0.300 N 
ATOM      7  C   UNL     1       2.608  -3.560   2.638  0.00  0.00    +0.108 C 
ATOM      8  C   UNL     1       3.669  -3.881   3.703  0.00  0.00    +0.030 C 
ATOM      9  C   UNL     1       0.206  -3.811   3.039  0.00  0.00    +0.238 C 
ATOM     10  O   UNL     1      -0.768  -4.501   3.251  0.00  0.00    -0.273 OA
ATOM     11  C   UNL     1       5.011  -5.719   4.717  0.00  0.00    -0.037 A 
ATOM     12  C   UNL     1       6.201  -5.941   4.047  0.00  0.00    -0.030 A 
ATOM     13  C   UNL     1       7.344  -6.263   4.760  0.00  0.00    +0.005 A 
ATOM     14  C   UNL     1       7.299  -6.364   6.137  0.00  0.00    +0.000 A 
ATOM     15  C   UNL     1       6.111  -6.143   6.806  0.00  0.00    +0.000 A 
ATOM     16  C   UNL     1       4.970  -5.822   6.098  0.00  0.00    +0.004 A 
ENDROOT
BRANCH   1  17
ATOM     17  C   UNL     1       6.676  -6.878   1.802  0.00  0.00    +0.315 C 
ATOM     18  O   UNL     1       6.027  -7.633   1.117  0.00  0.00    -0.250 OA
BRANCH  17  19
ATOM     19  O   UNL     1       8.007  -7.025   1.888  0.00  0.00    -0.464 OA
BRANCH  19  21
ATOM     20  C   UNL     1      10.114  -8.124   1.355  0.00  0.00    +0.048 C 
ATOM     21  C   UNL     1       8.600  -8.114   1.133  0.00  0.00    +0.229 C 
ENDBRANCH  19  21
ENDBRANCH  17  19
ENDBRANCH   1  17
BRANCH   9  22
ATOM     22  C   UNL     1       0.061  -2.315   2.928  0.00  0.00    +0.185 C 
BRANCH  22  23
ATOM     23  N   UNL     1      -1.190  -1.897   3.564  0.00  0.00    -0.303 N 
ATOM     24  C   UNL     1      -2.368  -2.373   3.112  0.00  0.00    +0.202 C 
ATOM     25  O   UNL     1      -2.391  -3.147   2.179  0.00  0.00    -0.277 OA
ATOM     26  H   UNL     1      -1.169  -1.195   4.411  0.00  0.00    +0.149 HD
BRANCH  24  27
ATOM     27  C   UNL     1      -3.655  -1.944   3.767  0.00  0.00    +0.001 C 
ATOM     28  C   UNL     1      -4.122  -0.621   3.155  0.00  0.00    -0.001 C 
ATOM     29  C   UNL     1      -4.724  -3.015   3.543  0.00  0.00    -0.001 C 
BRANCH  27  30
ATOM     30  N   UNL     1      -3.436  -1.766   5.209  0.00  0.00    +0.387 N 
ATOM     31  H   UNL     1      -4.375  -1.452   5.687  0.00  0.00    -0.089 HD
ATOM     32  H   UNL     1      -2.667  -0.995   5.370  0.00  0.00    -0.089 HD
ATOM     33  H   UNL     1      -3.100  -2.716   5.649  0.00  0.00    -0.089 HD
ENDBRANCH  27  30
ENDBRANCH  24  27
ENDBRANCH  22  23
BRANCH  22  34
ATOM     34  C   UNL     1       0.042  -1.913   1.452  0.00  0.00    +0.192 C 
BRANCH  34  35
ATOM     35  O   UNL     1       0.021  -0.488   1.347  0.00  0.00    -0.373 OA
BRANCH  35  36
ATOM     36  C   UNL     1       0.002  -0.004   0.002  0.00  0.00    +0.195 C 
BRANCH  36  37
ATOM     37  C   UNL     1      -0.018   1.503   0.010  0.00  0.00    -0.022 A 
ATOM     38  C   UNL     1      -1.225   2.178   0.020  0.00  0.00    +0.006 A 
ATOM     39  C   UNL     1      -1.244   3.560   0.032  0.00  0.00    +0.000 A 
ATOM     40  C   UNL     1      -0.056   4.267   0.025  0.00  0.00    +0.000 A 
ATOM     41  C   UNL     1       1.151   3.592   0.010  0.00  0.00    +0.000 A 
ATOM     42  C   UNL     1       1.169   2.210   0.003  0.00  0.00    +0.006 A 
ENDBRANCH  36  37
ENDBRANCH  35  36
ENDBRANCH  34  35
ENDBRANCH  22  34
ENDBRANCH   9  22
TORSDOF 11
