REMARK  Name = ZINC39659886
REMARK  8 active torsions:
REMARK  status: ('A' for Active; 'I' for Inactive)
REMARK    1  A    between atoms: C_1  and  C_2
REMARK    2  A    between atoms: C_4  and  C_11
REMARK    3  A    between atoms: N_5  and  C_7
REMARK    4  A    between atoms: C_7  and  C_8
REMARK    5  A    between atoms: C_7  and  C_9
REMARK    6  A    between atoms: C_7  and  C_10
REMARK    7  A    between atoms: C_15  and  C_24
REMARK    8  A    between atoms: N_26  and  C_27
REMARK                            x       y       z     vdW  Elec       q    Type
REMARK                         _______ _______ _______ _____ _____    ______ ____
ROOT
ATOM      1  C   UNL     1      -0.534  -3.793  -1.522  0.00  0.00    +0.265 C 
ATOM      2  O   UNL     1      -0.683  -3.794  -2.729  0.00  0.00    -0.268 OA
ATOM      3  N   UNL     1      -0.446  -4.960  -0.853  0.00  0.00    -0.295 N 
ATOM      4  C   UNL     1      -0.398  -5.165   0.614  0.00  0.00    +0.121 C 
ATOM      5  C   UNL     1      -1.263  -6.420   0.861  0.00  0.00    +0.100 C 
ATOM      6  C   UNL     1      -1.243  -7.181  -0.475  0.00  0.00    -0.004 C 
ATOM      7  C   UNL     1      -0.381  -6.329  -1.419  0.00  0.00    +0.115 C 
ATOM      8  C   UNL     1      -2.657  -7.308  -1.033  0.00  0.00    -0.010 C 
ATOM      9  C   UNL     1      -2.618  -8.116  -2.333  0.00  0.00    -0.082 C 
ATOM     10  N   UNL     1      -2.054  -9.445  -2.067  0.00  0.00    +0.379 N 
ATOM     11  C   UNL     1      -0.662  -9.319  -1.619  0.00  0.00    -0.082 C 
ATOM     12  C   UNL     1      -0.619  -8.560  -0.289  0.00  0.00    -0.010 C 
ATOM     13  H   UNL     1      -2.597  -9.902  -1.349  0.00  0.00    -0.086 HD
ATOM     14  H   UNL     1      -2.086  -9.997  -2.911  0.00  0.00    -0.086 HD
ENDROOT
BRANCH   1  18
ATOM     15  C   UNL     1       0.088  -0.263   2.066  0.00  0.00    +0.067 C 
ATOM     16  C   UNL     1      -0.182  -0.967   0.761  0.00  0.00    +0.061 A 
ATOM     17  C   UNL     1      -0.131  -2.345   0.544  0.00  0.00    +0.057 A 
ATOM     18  C   UNL     1      -0.450  -2.518  -0.792  0.00  0.00    +0.124 A 
ATOM     19  N   UNL     1      -0.671  -1.268  -1.297  0.00  0.00    -0.254 N 
ATOM     20  N   UNL     1      -0.512  -0.394  -0.369  0.00  0.00    -0.175 NA
BRANCH  19  21
ATOM     21  C   UNL     1      -1.040  -0.971  -2.683  0.00  0.00    +0.056 C 
ATOM     22  C   UNL     1      -2.295  -1.761  -3.058  0.00  0.00    +0.036 C 
ATOM     23  C   UNL     1      -1.318   0.527  -2.826  0.00  0.00    +0.036 C 
ATOM     24  C   UNL     1       0.110  -1.367  -3.612  0.00  0.00    +0.036 C 
ENDBRANCH  19  21
ENDBRANCH   1  18
BRANCH   5  25
ATOM     25  C   UNL     1      -2.672  -6.024   1.221  0.00  0.00    +0.218 C 
ATOM     26  O   UNL     1      -3.154  -5.012   0.757  0.00  0.00    -0.275 OA
ATOM     27  N   UNL     1      -3.396  -6.794   2.057  0.00  0.00    -0.312 N 
ATOM     28  H   UNL     1      -2.990  -7.567   2.478  0.00  0.00    +0.149 HD
BRANCH  27  29
ATOM     29  C   UNL     1      -4.797  -6.463   2.329  0.00  0.00    +0.073 C 
ATOM     30  C   UNL     1      -5.684  -7.067   1.238  0.00  0.00    +0.022 C 
ATOM     31  C   UNL     1      -7.140  -7.075   1.712  0.00  0.00    +0.002 C 
ATOM     32  C   UNL     1      -7.713  -5.660   1.620  0.00  0.00    +0.000 C 
ATOM     33  C   UNL     1      -7.174  -4.815   2.775  0.00  0.00    +0.000 C 
ATOM     34  C   UNL     1      -7.229  -5.627   4.071  0.00  0.00    +0.000 C 
ATOM     35  C   UNL     1      -5.806  -5.922   4.549  0.00  0.00    +0.002 C 
ATOM     36  C   UNL     1      -5.201  -7.034   3.690  0.00  0.00    +0.022 C 
ENDBRANCH  27  29
ENDBRANCH   5  25
TORSDOF 4
