REMARK  Name = ZINC38651694
REMARK  9 active torsions:
REMARK  status: ('A' for Active; 'I' for Inactive)
REMARK    1  A    between atoms: C_1  and  C_2
REMARK    2  A    between atoms: C_2  and  C_4
REMARK    3  A    between atoms: C_2  and  O_28
REMARK    4  A    between atoms: C_4  and  O_6
REMARK    5  A    between atoms: O_6  and  C_7
REMARK    6  A    between atoms: C_14  and  N_27
REMARK    7  A    between atoms: C_15  and  C_25
REMARK    8  A    between atoms: C_16  and  C_18
REMARK    9  A    between atoms: O_28  and  C_29
REMARK                            x       y       z     vdW  Elec       q    Type
REMARK                         _______ _______ _______ _____ _____    ______ ____
ROOT
ATOM      1  C   UNL     1       1.085  -0.487  -3.618  0.00  0.00    +0.135 A 
ATOM      2  C   UNL     1       2.190  -1.302  -3.410  0.00  0.00    +0.047 A 
ATOM      3  C   UNL     1       2.925  -1.755  -4.487  0.00  0.00    +0.012 A 
ATOM      4  C   UNL     1       2.566  -1.400  -5.776  0.00  0.00    +0.008 A 
ATOM      5  C   UNL     1       1.464  -0.587  -5.989  0.00  0.00    +0.138 A 
ATOM      6  C   UNL     1       0.719  -0.136  -4.907  0.00  0.00    +0.093 A 
ATOM      7  O   UNL     1       1.096  -0.229  -7.244  0.00  0.00    -0.441 OA
ATOM      8  C   UNL     1       1.979  -0.321  -8.253  0.00  0.00    +0.199 C 
ATOM      9  C   UNL     1       3.084  -1.098  -8.170  0.00  0.00    +0.098 C 
ATOM     10  C   UNL     1       3.381  -1.905  -6.937  0.00  0.00    +0.098 C 
ENDROOT
BRANCH  10  11
ATOM     11  C   UNL     1       3.043  -3.351  -7.193  0.00  0.00    -0.035 A 
ATOM     12  C   UNL     1       1.748  -3.711  -7.516  0.00  0.00    +0.005 A 
ATOM     13  C   UNL     1       1.438  -5.038  -7.751  0.00  0.00    +0.015 A 
ATOM     14  C   UNL     1       2.424  -6.004  -7.664  0.00  0.00    +0.018 A 
ATOM     15  C   UNL     1       3.719  -5.643  -7.341  0.00  0.00    +0.015 A 
ATOM     16  C   UNL     1       4.030  -4.316  -7.111  0.00  0.00    +0.005 A 
ATOM     17 BR   UNL     1       2.000  -7.819  -7.985  0.00  0.00    -0.050 Br
ENDBRANCH  10  11
BRANCH   8  18
ATOM     18  N   UNL     1       1.753   0.396  -9.402  0.00  0.00    -0.328 N 
ATOM     19  H   UNL     1       0.966   0.957  -9.477  0.00  0.00    +0.145 HD
ATOM     20  H   UNL     1       2.381   0.340 -10.139  0.00  0.00    +0.145 HD
ENDBRANCH   8  18
BRANCH   9  21
ATOM     21  C   UNL     1       3.988  -1.154  -9.279  0.00  0.00    +0.101 C 
ATOM     22  N   UNL     1       4.705  -1.198 -10.159  0.00  0.00    -0.191 NA
ENDBRANCH   9  21
BRANCH   1  23
ATOM     23  O   UNL     1       0.360  -0.041  -2.559  0.00  0.00    -0.423 OA
BRANCH  23  24
ATOM     24  C   UNL     1       0.876   0.950  -1.815  0.00  0.00    +0.353 C 
ATOM     25  O   UNL     1       1.910   1.480  -2.148  0.00  0.00    -0.246 OA
BRANCH  24  27
ATOM     26  C   UNL     1      -1.184   2.016  -0.937  0.00  0.00    +0.064 C 
ATOM     27  C   UNL     1       0.167   1.402  -0.564  0.00  0.00    +0.279 C 
BRANCH  27  28
ATOM     28  O   UNL     1       0.964   2.377   0.110  0.00  0.00    -0.475 OA
BRANCH  28  29
ATOM     29  C   UNL     1       0.774   2.511   1.450  0.00  0.00    +0.157 A 
ATOM     30  C   UNL     1      -0.237   1.804   2.082  0.00  0.00    +0.048 A 
ATOM     31  C   UNL     1      -0.428   1.941   3.443  0.00  0.00    +0.004 A 
ATOM     32  C   UNL     1       0.386   2.784   4.176  0.00  0.00    +0.003 A 
ATOM     33  C   UNL     1       1.395   3.492   3.550  0.00  0.00    +0.042 A 
ATOM     34  C   UNL     1       1.596   3.353   2.188  0.00  0.00    +0.165 A 
ATOM     35  F   UNL     1       2.586   4.040   1.577  0.00  0.00    -0.202 F 
ENDBRANCH  28  29
ENDBRANCH  27  28
ENDBRANCH  24  27
ENDBRANCH  23  24
ENDBRANCH   1  23
TORSDOF 8
