REMARK  Name = ZINC39624825
REMARK  6 active torsions:
REMARK  status: ('A' for Active; 'I' for Inactive)
REMARK    1  A    between atoms: C_12  and  C_13
REMARK    2  A    between atoms: C_17  and  C_26
REMARK    3  A    between atoms: N_28  and  C_29
REMARK    4  A    between atoms: C_29  and  C_30
REMARK    5  A    between atoms: C_30  and  C_31
REMARK    6  A    between atoms: C_31  and  N_32
REMARK                            x       y       z     vdW  Elec       q    Type
REMARK                         _______ _______ _______ _____ _____    ______ ____
ROOT
ATOM      1  C   UNL     1      -0.716  -3.144   0.004  0.00  0.00    +0.247 C 
ATOM      2  O   UNL     1      -1.217  -2.041   0.098  0.00  0.00    -0.270 OA
ATOM      3  N   UNL     1      -1.501  -4.234  -0.103  0.00  0.00    -0.296 N 
ATOM      4  C   UNL     1      -1.085  -5.656  -0.116  0.00  0.00    +0.121 C 
ATOM      5  C   UNL     1      -2.164  -6.386   0.715  0.00  0.00    +0.100 C 
ATOM      6  C   UNL     1      -3.404  -5.480   0.632  0.00  0.00    -0.004 C 
ATOM      7  C   UNL     1      -2.978  -4.281  -0.229  0.00  0.00    +0.115 C 
ATOM      8  C   UNL     1      -4.558  -6.224  -0.032  0.00  0.00    -0.010 C 
ATOM      9  C   UNL     1      -5.796  -5.323  -0.051  0.00  0.00    -0.082 C 
ATOM     10  N   UNL     1      -6.153  -4.949   1.323  0.00  0.00    +0.379 N 
ATOM     11  C   UNL     1      -5.075  -4.154   1.922  0.00  0.00    -0.082 C 
ATOM     12  C   UNL     1      -3.806  -5.006   2.025  0.00  0.00    -0.010 C 
ATOM     13  H   UNL     1      -7.004  -4.406   1.313  0.00  0.00    -0.086 HD
ATOM     14  H   UNL     1      -6.298  -5.785   1.871  0.00  0.00    -0.086 HD
ENDROOT
BRANCH   1  26
ATOM     15  C   UNL     1      -0.159  -0.545   3.727  0.00  0.00    +0.001 A 
ATOM     16  C   UNL     1       0.990  -0.182   4.401  0.00  0.00    +0.001 A 
ATOM     17  C   UNL     1       2.228  -0.623   3.959  0.00  0.00    +0.012 A 
ATOM     18  C   UNL     1       2.313  -1.433   2.834  0.00  0.00    +0.030 A 
ATOM     19  C   UNL     1       1.144  -1.804   2.147  0.00  0.00    -0.006 A 
ATOM     20  C   UNL     1      -0.088  -1.354   2.603  0.00  0.00    +0.009 A 
ATOM     21  C   UNL     1       1.521  -2.663   0.997  0.00  0.00    +0.006 A 
ATOM     22  C   UNL     1       2.917  -2.813   0.986  0.00  0.00    +0.031 A 
ATOM     23  C   UNL     1       3.525  -3.580  -0.001  0.00  0.00    +0.012 A 
ATOM     24  C   UNL     1       2.757  -4.197  -0.977  0.00  0.00    +0.001 A 
ATOM     25  C   UNL     1       1.387  -4.059  -0.978  0.00  0.00    +0.014 A 
ATOM     26  C   UNL     1       0.754  -3.291   0.008  0.00  0.00    +0.045 A 
ATOM     27  C   UNL     1       3.465  -2.051   2.134  0.00  0.00    +0.194 C 
ATOM     28  O   UNL     1       4.635  -1.950   2.441  0.00  0.00    -0.287 OA
ENDBRANCH   1  26
BRANCH   5  29
ATOM     29  C   UNL     1      -2.459  -7.739   0.120  0.00  0.00    +0.218 C 
ATOM     30  O   UNL     1      -2.270  -7.936  -1.062  0.00  0.00    -0.275 OA
ATOM     31  N   UNL     1      -2.932  -8.730   0.900  0.00  0.00    -0.315 N 
ATOM     32  H   UNL     1      -3.083  -8.573   1.846  0.00  0.00    +0.149 HD
BRANCH  31  33
ATOM     33  C   UNL     1      -3.219 -10.045   0.322  0.00  0.00    +0.105 C 
BRANCH  33  34
ATOM     34  C   UNL     1      -3.741 -10.980   1.414  0.00  0.00    +0.034 C 
BRANCH  34  35
ATOM     35  C   UNL     1      -4.041 -12.354   0.809  0.00  0.00    +0.086 C 
BRANCH  35  36
ATOM     36  N   UNL     1      -4.542 -13.252   1.858  0.00  0.00    -0.298 NA
ATOM     37  C   UNL     1      -3.497 -13.535   2.853  0.00  0.00    +0.112 C 
ATOM     38  C   UNL     1      -4.078 -14.424   3.956  0.00  0.00    +0.175 C 
ATOM     39  O   UNL     1      -4.607 -15.617   3.372  0.00  0.00    -0.377 OA
ATOM     40  C   UNL     1      -5.627 -15.378   2.399  0.00  0.00    +0.175 C 
ATOM     41  C   UNL     1      -5.062 -14.499   1.280  0.00  0.00    +0.112 C 
ENDBRANCH  35  36
ENDBRANCH  34  35
ENDBRANCH  33  34
ENDBRANCH  31  33
ENDBRANCH   5  29
TORSDOF 6
