REMARK  Name = ZINC16323028
REMARK  7 active torsions:
REMARK  status: ('A' for Active; 'I' for Inactive)
REMARK    1  A    between atoms: C_1  and  N_2
REMARK    2  A    between atoms: C_15  and  S_16
REMARK    3  A    between atoms: S_16  and  C_17
REMARK    4  A    between atoms: C_17  and  C_18
REMARK    5  A    between atoms: N_23  and  C_24
REMARK    6  A    between atoms: C_24  and  C_25
REMARK    7  A    between atoms: C_25  and  C_26
REMARK                            x       y       z     vdW  Elec       q    Type
REMARK                         _______ _______ _______ _____ _____    ______ ____
ROOT
ATOM      1  S   UNL     1       8.898  -0.986  -5.574  0.00  0.00    -0.076 S 
ENDROOT
BRANCH   1  16
ATOM      2  C   UNL     1      14.895  -3.129  -6.123  0.00  0.00    +0.155 C 
ATOM      3  N   UNL     1      13.643  -2.681  -6.738  0.00  0.00    -0.280 N 
ATOM      4  C   UNL     1      13.535  -2.657  -8.082  0.00  0.00    +0.263 A 
ATOM      5  O   UNL     1      14.469  -2.995  -8.784  0.00  0.00    -0.267 OA
ATOM      6  C   UNL     1      12.268  -2.205  -8.686  0.00  0.00    +0.064 A 
ATOM      7  C   UNL     1      12.104  -2.153 -10.069  0.00  0.00    +0.015 A 
ATOM      8  C   UNL     1      10.904  -1.725 -10.596  0.00  0.00    +0.001 A 
ATOM      9  C   UNL     1       9.865  -1.349  -9.759  0.00  0.00    +0.002 A 
ATOM     10  C   UNL     1      10.015  -1.397  -8.388  0.00  0.00    +0.027 A 
ATOM     11  C   UNL     1      11.215  -1.825  -7.840  0.00  0.00    +0.064 A 
ATOM     12  N   UNL     1      11.393  -1.883  -6.459  0.00  0.00    -0.256 N 
ATOM     13  C   UNL     1      12.582  -2.304  -5.928  0.00  0.00    +0.240 A 
ATOM     14  N   UNL     1      12.473  -2.267  -4.619  0.00  0.00    -0.109 NA
ATOM     15  N   UNL     1      11.188  -1.808  -4.302  0.00  0.00    -0.120 NA
ATOM     16  C   UNL     1      10.551  -1.578  -5.424  0.00  0.00    +0.198 A 
ENDBRANCH   1  16
BRANCH   1  17
ATOM     17  C   UNL     1       8.345  -0.791  -3.857  0.00  0.00    +0.173 C 
BRANCH  17  18
ATOM     18  C   UNL     1       6.926  -0.283  -3.841  0.00  0.00    +0.231 C 
ATOM     19  O   UNL     1       6.346  -0.073  -4.885  0.00  0.00    -0.274 OA
ATOM     20  N   UNL     1       6.303  -0.062  -2.667  0.00  0.00    -0.240 N 
ATOM     21  C   UNL     1       5.034   0.392  -2.653  0.00  0.00    +0.306 C 
ATOM     22  O   UNL     1       4.452   0.603  -3.699  0.00  0.00    -0.252 OA
ATOM     23  N   UNL     1       4.410   0.614  -1.478  0.00  0.00    -0.299 N 
ATOM     24  H   UNL     1       6.767  -0.230  -1.832  0.00  0.00    +0.159 HD
ATOM     25  H   UNL     1       4.875   0.446  -0.644  0.00  0.00    +0.150 HD
BRANCH  23  26
ATOM     26  C   UNL     1       3.031   1.107  -1.463  0.00  0.00    +0.111 C 
BRANCH  26  27
ATOM     27  C   UNL     1       2.565   1.272  -0.015  0.00  0.00    +0.061 C 
BRANCH  27  28
ATOM     28  C   UNL     1       1.146   1.780   0.001  0.00  0.00    -0.009 A 
ATOM     29  C   UNL     1      -0.013   1.076   0.008  0.00  0.00    +0.011 A 
ATOM     30  C   UNL     1      -1.213   1.761   0.017  0.00  0.00    +0.008 A 
ATOM     31  C   UNL     1      -1.196   3.116   0.030  0.00  0.00    +0.045 A 
ATOM     32  S   UNL     1       0.555   3.464   0.015  0.00  0.00    -0.102 S 
ENDBRANCH  27  28
ENDBRANCH  26  27
ENDBRANCH  23  26
ENDBRANCH  17  18
ENDBRANCH   1  17
TORSDOF 6
