REMARK  Name = ZINC13626550
REMARK  11 active torsions:
REMARK  status: ('A' for Active; 'I' for Inactive)
REMARK    1  A    between atoms: C_1  and  C_2
REMARK    2  A    between atoms: C_2  and  C_33
REMARK    3  A    between atoms: C_7  and  O_32
REMARK    4  A    between atoms: C_9  and  O_13
REMARK    5  A    between atoms: O_13  and  C_14
REMARK    6  A    between atoms: C_14  and  C_15
REMARK    7  A    between atoms: N_17  and  C_18
REMARK    8  A    between atoms: C_18  and  C_19
REMARK    9  A    between atoms: C_19  and  C_20
REMARK   10  A    between atoms: C_25  and  C_26
REMARK   11  A    between atoms: C_25  and  N_68
REMARK                            x       y       z     vdW  Elec       q    Type
REMARK                         _______ _______ _______ _____ _____    ______ ____
ROOT
ATOM      1  C   UNL     1      -0.543   1.446  -3.655  0.00  0.00    +0.251 C 
ATOM      2  O   UNL     1      -1.540   2.130  -3.753  0.00  0.00    -0.272 OA
ATOM      3  N   UNL     1      -0.067   1.120  -2.437  0.00  0.00    -0.313 N 
ATOM      4  H   UNL     1       0.730   0.573  -2.358  0.00  0.00    +0.149 HD
ENDROOT
BRANCH   1   5
ATOM      5  C   UNL     1       0.162   0.960  -4.895  0.00  0.00    +0.324 C 
BRANCH   5   6
ATOM      6  O   UNL     1      -0.529   1.433  -6.052  0.00  0.00    -0.483 OA
BRANCH   6  15
ATOM      7  C   UNL     1       1.050   2.738 -11.889  0.00  0.00    +0.056 C 
ATOM      8  C   UNL     1      -0.008   1.639 -12.000  0.00  0.00    +0.112 C 
ATOM      9  C   UNL     1       0.680   0.287 -12.241  0.00  0.00    +0.127 C 
ATOM     10  C   UNL     1       1.569   0.015 -11.041  0.00  0.00    +0.174 C 
ATOM     11  O   UNL     1       2.674  -0.471 -11.163  0.00  0.00    -0.292 OA
ATOM     12  C   UNL     1       1.024   0.372  -9.726  0.00  0.00    +0.101 A 
ATOM     13  C   UNL     1       1.652  -0.064  -8.549  0.00  0.00    +0.134 A 
ATOM     14  C   UNL     1       1.124   0.296  -7.322  0.00  0.00    +0.092 A 
ATOM     15  C   UNL     1      -0.020   1.082  -7.260  0.00  0.00    +0.128 A 
ATOM     16  C   UNL     1      -0.652   1.508  -8.422  0.00  0.00    +0.092 A 
ATOM     17  C   UNL     1      -0.139   1.162  -9.659  0.00  0.00    +0.139 A 
ATOM     18  O   UNL     1      -0.760   1.577 -10.789  0.00  0.00    -0.485 OA
ATOM     19  C   UNL     1      -0.946   1.950 -13.169  0.00  0.00    +0.056 C 
BRANCH  13  20
ATOM     20  O   UNL     1       2.768  -0.832  -8.613  0.00  0.00    -0.506 OA
ATOM     21  H   UNL     1       2.591  -1.782  -8.634  0.00  0.00    +0.292 HD
ENDBRANCH  13  20
ENDBRANCH   6  15
ENDBRANCH   5   6
ENDBRANCH   1   5
BRANCH   3  22
ATOM     22  C   UNL     1      -0.753   1.593  -1.232  0.00  0.00    +0.104 C 
BRANCH  22  23
ATOM     23  C   UNL     1      -0.013   1.086   0.008  0.00  0.00    +0.022 C 
BRANCH  23  24
ATOM     24  C   UNL     1      -0.729   1.579   1.267  0.00  0.00    -0.013 C 
ATOM     25  C   UNL     1      -0.635   3.106   1.344  0.00  0.00    -0.015 C 
ATOM     26  C   UNL     1      -1.300   3.588   2.635  0.00  0.00    -0.078 C 
ATOM     27  C   UNL     1      -0.745   1.516   3.763  0.00  0.00    -0.078 C 
ATOM     28  C   UNL     1      -0.064   0.972   2.505  0.00  0.00    -0.015 C 
ATOM     29  N   UNL     1      -0.598   2.987   3.789  0.00  0.00    +0.382 N 
ATOM     30  H   UNL     1       0.399   3.223   3.733  0.00  0.00    -0.081 HD
BRANCH  29  31
ATOM     31  C   UNL     1      -1.148   3.526   5.051  0.00  0.00    -0.043 C 
BRANCH  31  32
ATOM     32  C   UNL     1      -0.791   4.987   5.150  0.00  0.00    -0.064 A 
ATOM     33  C   UNL     1       0.395   5.369   5.749  0.00  0.00    +0.002 A 
ATOM     34  C   UNL     1       0.724   6.709   5.835  0.00  0.00    +0.000 A 
ATOM     35  C   UNL     1      -0.137   7.667   5.333  0.00  0.00    +0.000 A 
ATOM     36  C   UNL     1      -1.325   7.284   4.739  0.00  0.00    +0.000 A 
ATOM     37  C   UNL     1      -1.652   5.944   4.648  0.00  0.00    +0.002 A 
ENDBRANCH  31  32
ENDBRANCH  29  31
ENDBRANCH  23  24
ENDBRANCH  22  23
ENDBRANCH   3  22
TORSDOF 9
