REMARK  Name = ZINC35711276
REMARK  11 active torsions:
REMARK  status: ('A' for Active; 'I' for Inactive)
REMARK    1  A    between atoms: C_1  and  C_2
REMARK    2  A    between atoms: C_2  and  C_3
REMARK    3  A    between atoms: C_3  and  C_4
REMARK    4  A    between atoms: C_4  and  N_5
REMARK    5  A    between atoms: C_6  and  C_34
REMARK    6  A    between atoms: C_7  and  C_30
REMARK    7  A    between atoms: C_8  and  C_13
REMARK    8  A    between atoms: C_17  and  N_19
REMARK    9  A    between atoms: C_20  and  C_22
REMARK   10  A    between atoms: C_30  and  O_32
REMARK   11  A    between atoms: O_32  and  C_33
REMARK                            x       y       z     vdW  Elec       q    Type
REMARK                         _______ _______ _______ _____ _____    ______ ____
ROOT
ATOM      1  C   UNL     1       3.799  -2.565   5.701  0.00  0.00    -0.021 A 
ATOM      2  C   UNL     1       3.584  -1.199   5.734  0.00  0.00    +0.006 A 
ATOM      3  C   UNL     1       4.287  -0.407   6.623  0.00  0.00    +0.002 A 
ATOM      4  C   UNL     1       5.207  -0.978   7.481  0.00  0.00    +0.023 A 
ATOM      5  C   UNL     1       5.425  -2.349   7.450  0.00  0.00    +0.034 A 
ATOM      6  C   UNL     1       4.713  -3.143   6.560  0.00  0.00    +0.029 A 
ENDROOT
BRANCH   1  10
ATOM      7  N   UNL     1       1.635  -2.533   2.515  0.00  0.00    -0.259 N 
ATOM      8  C   UNL     1       2.948  -2.865   2.342  0.00  0.00    +0.024 C 
ATOM      9  C   UNL     1       3.696  -3.309   3.375  0.00  0.00    +0.078 C 
ATOM     10  C   UNL     1       3.030  -3.425   4.731  0.00  0.00    +0.144 C 
ATOM     11  N   UNL     1       1.610  -3.040   4.811  0.00  0.00    -0.288 N 
ATOM     12  C   UNL     1       0.998  -2.611   3.691  0.00  0.00    +0.307 C 
ATOM     13  O   UNL     1      -0.173  -2.288   3.747  0.00  0.00    -0.252 OA
ATOM     14  C   UNL     1       3.571  -2.736   0.977  0.00  0.00    +0.061 C 
ATOM     15  H   UNL     1       1.129  -3.093   5.652  0.00  0.00    +0.151 HD
BRANCH   9  16
ATOM     16  C   UNL     1       5.056  -3.655   3.197  0.00  0.00    +0.339 C 
ATOM     17  O   UNL     1       5.571  -3.555   2.099  0.00  0.00    -0.245 OA
BRANCH  16  18
ATOM     18  O   UNL     1       5.783  -4.096   4.245  0.00  0.00    -0.465 OA
ATOM     19  C   UNL     1       7.150  -4.427   3.993  0.00  0.00    +0.280 C 
ENDBRANCH  16  18
ENDBRANCH   9  16
BRANCH   7  20
ATOM     20  C   UNL     1       0.882  -2.058   1.351  0.00  0.00    +0.115 C 
BRANCH  20  21
ATOM     21  C   UNL     1       0.356  -3.258   0.561  0.00  0.00    +0.019 C 
BRANCH  21  23
ATOM     22  C   UNL     1      -0.956  -3.962  -1.446  0.00  0.00    +0.004 C 
ATOM     23  C   UNL     1      -0.430  -2.763  -0.655  0.00  0.00    -0.002 C 
ENDBRANCH  21  23
ENDBRANCH  20  21
ENDBRANCH   7  20
ENDBRANCH   1  10
BRANCH   5  24
ATOM     24  N   UNL     1       6.356  -2.930   8.317  0.00  0.00    -0.281 N 
ATOM     25  C   UNL     1       6.517  -2.438   9.561  0.00  0.00    +0.248 C 
ATOM     26  O   UNL     1       5.911  -1.441   9.904  0.00  0.00    -0.270 OA
ATOM     27  H   UNL     1       6.886  -3.688   8.022  0.00  0.00    +0.155 HD
BRANCH  25  28
ATOM     28  C   UNL     1       7.429  -3.110  10.509  0.00  0.00    +0.038 A 
ATOM     29  C   UNL     1       8.131  -4.252  10.117  0.00  0.00    +0.014 A 
ATOM     30  C   UNL     1       8.981  -4.876  11.005  0.00  0.00    +0.022 A 
ATOM     31  C   UNL     1       9.141  -4.372  12.285  0.00  0.00    +0.059 A 
ATOM     32  C   UNL     1       8.447  -3.239  12.681  0.00  0.00    +0.060 A 
ATOM     33  C   UNL     1       7.598  -2.603  11.799  0.00  0.00    +0.034 A 
ATOM     34 CL   UNL     1       8.653  -2.615  14.288  0.00  0.00    -0.082 Cl
ATOM     35 CL   UNL     1      10.213  -5.162  13.398  0.00  0.00    -0.082 Cl
ENDBRANCH  25  28
ENDBRANCH   5  24
TORSDOF 8
