REMARK  Name = ZINC09429217
REMARK  12 active torsions:
REMARK  status: ('A' for Active; 'I' for Inactive)
REMARK    1  A    between atoms: C_1  and  C_2
REMARK    2  A    between atoms: C_4  and  C_34
REMARK    3  A    between atoms: C_6  and  N_8
REMARK    4  A    between atoms: C_9  and  C_11
REMARK    5  A    between atoms: C_11  and  C_13
REMARK    6  A    between atoms: C_11  and  N_16
REMARK    7  A    between atoms: C_13  and  C_14
REMARK    8  A    between atoms: C_13  and  C_15
REMARK    9  A    between atoms: N_16  and  S_17
REMARK   10  A    between atoms: S_17  and  C_20
REMARK   11  A    between atoms: C_27  and  C_33
REMARK   12  A    between atoms: C_30  and  C_32
REMARK                            x       y       z     vdW  Elec       q    Type
REMARK                         _______ _______ _______ _____ _____    ______ ____
ROOT
ATOM      1  N   UNL     1      -2.188   1.609   0.489  0.00  0.00    -0.178 NA
ATOM      2  H   UNL     1      -2.707   2.030  -0.214  0.00  0.00    +0.149 HD
ENDROOT
BRANCH   1   3
ATOM      3  S   UNL     1      -2.846   0.381   1.383  0.00  0.00    +0.059 S 
ATOM      4  O   UNL     1      -4.179   0.213   0.922  0.00  0.00    -0.153 OA
ATOM      5  O   UNL     1      -1.899  -0.678   1.378  0.00  0.00    -0.153 OA
BRANCH   3   6
ATOM      6  C   UNL     1      -2.957   0.950   3.047  0.00  0.00    +0.106 A 
ATOM      7  C   UNL     1      -4.096   1.601   3.483  0.00  0.00    +0.030 A 
ATOM      8  C   UNL     1      -4.185   2.047   4.784  0.00  0.00    +0.026 A 
ATOM      9  C   UNL     1      -3.127   1.845   5.672  0.00  0.00    +0.040 A 
ATOM     10  C   UNL     1      -1.990   1.190   5.226  0.00  0.00    -0.022 A 
ATOM     11  C   UNL     1      -1.907   0.740   3.922  0.00  0.00    +0.034 A 
ATOM     12  C   UNL     1      -1.006   1.101   6.370  0.00  0.00    +0.059 C 
ATOM     13  C   UNL     1      -1.717   1.790   7.547  0.00  0.00    +0.083 C 
ATOM     14  N   UNL     1      -3.016   2.213   7.016  0.00  0.00    -0.268 N 
ATOM     15  C   UNL     1      -3.964   2.862   7.721  0.00  0.00    +0.217 C 
ATOM     16  O   UNL     1      -5.047   3.082   7.221  0.00  0.00    -0.276 OA
ATOM     17  C   UNL     1      -3.678   3.314   9.130  0.00  0.00    +0.109 C 
ATOM     18  C   UNL     1      -1.911   0.803   8.701  0.00  0.00    +0.029 C 
ENDBRANCH   3   6
ENDBRANCH   1   3
BRANCH   1  19
ATOM     19  C   UNL     1      -0.820   2.060   0.758  0.00  0.00    +0.165 C 
BRANCH  19  21
ATOM     20  N   UNL     1       0.297   4.148   1.474  0.00  0.00    -0.284 N 
ATOM     21  C   UNL     1      -0.826   3.540   1.042  0.00  0.00    +0.236 C 
ATOM     22  O   UNL     1      -1.841   4.185   0.882  0.00  0.00    -0.274 OA
ATOM     23  H   UNL     1       1.125   3.647   1.538  0.00  0.00    +0.155 HD
BRANCH  20  29
ATOM     24  C   UNL     1      -2.098   7.950   3.467  0.00  0.00    +0.044 C 
ATOM     25  C   UNL     1      -0.880   7.371   2.795  0.00  0.00    -0.048 A 
ATOM     26  C   UNL     1       0.211   8.177   2.529  0.00  0.00    +0.006 A 
ATOM     27  C   UNL     1       1.331   7.649   1.914  0.00  0.00    -0.048 A 
ATOM     28  C   UNL     1       1.363   6.314   1.562  0.00  0.00    +0.026 A 
ATOM     29  C   UNL     1       0.268   5.501   1.828  0.00  0.00    +0.034 A 
ATOM     30  C   UNL     1      -0.857   6.036   2.441  0.00  0.00    +0.026 A 
ATOM     31  C   UNL     1       2.519   8.531   1.626  0.00  0.00    +0.044 C 
ENDBRANCH  20  29
ENDBRANCH  19  21
BRANCH  19  32
ATOM     32  C   UNL     1       0.060   1.778  -0.461  0.00  0.00    +0.010 C 
ATOM     33  C   UNL     1      -0.530   2.476  -1.688  0.00  0.00    +0.009 C 
ATOM     34  C   UNL     1       0.117   0.269  -0.710  0.00  0.00    +0.009 C 
ENDBRANCH  19  32
ENDBRANCH   1  19
TORSDOF 6
