REMARK  Name = ZINC36048681
REMARK  8 active torsions:
REMARK  status: ('A' for Active; 'I' for Inactive)
REMARK    1  A    between atoms: C_1  and  C_2
REMARK    2  A    between atoms: C_2  and  C_3
REMARK    3  A    between atoms: C_4  and  C_24
REMARK    4  A    between atoms: C_5  and  C_17
REMARK    5  A    between atoms: C_8  and  C_13
REMARK    6  A    between atoms: C_20  and  C_23
REMARK    7  A    between atoms: C_24  and  O_26
REMARK    8  A    between atoms: O_26  and  C_27
REMARK                            x       y       z     vdW  Elec       q    Type
REMARK                         _______ _______ _______ _____ _____    ______ ____
ROOT
ATOM      1  C   UNL     1       0.715  -0.996   1.312  0.00  0.00    +0.056 C 
ATOM      2  C   UNL     1       0.015  -1.025   2.482  0.00  0.00    +0.083 C 
ATOM      3  C   UNL     1       0.793  -1.186   3.769  0.00  0.00    +0.150 C 
ATOM      4  N   UNL     1       2.270  -1.300   3.650  0.00  0.00    -0.267 N 
ATOM      5  C   UNL     1       3.184  -1.452   4.656  0.00  0.00    +0.050 C 
ATOM      6  C   UNL     1       4.594  -1.541   4.267  0.00  0.00    +0.072 C 
ATOM      7  S   UNL     1       4.535  -1.411   2.593  0.00  0.00    -0.060 S 
ATOM      8  C   UNL     1       2.778  -1.247   2.376  0.00  0.00    +0.166 C 
ATOM      9  N   UNL     1       2.040  -1.112   1.309  0.00  0.00    -0.229 NA
ENDROOT
BRANCH   3  10
ATOM     10  C   UNL     1       0.489  -0.000   4.648  0.00  0.00    -0.022 A 
ATOM     11  C   UNL     1       0.991   1.247   4.325  0.00  0.00    +0.006 A 
ATOM     12  C   UNL     1       0.711   2.334   5.132  0.00  0.00    +0.004 A 
ATOM     13  C   UNL     1      -0.070   2.175   6.261  0.00  0.00    -0.050 A 
ATOM     14  C   UNL     1      -0.573   0.928   6.583  0.00  0.00    +0.004 A 
ATOM     15  C   UNL     1      -0.297  -0.159   5.774  0.00  0.00    +0.006 A 
ATOM     16  C   UNL     1      -0.374   3.360   7.141  0.00  0.00    +0.044 C 
ENDBRANCH   3  10
BRANCH   5  17
ATOM     17  C   UNL     1       2.796  -1.518   5.978  0.00  0.00    +0.119 C 
ATOM     18  C   UNL     1       3.738  -1.868   6.975  0.00  0.00    +0.381 C 
ATOM     19  O   UNL     1       5.025  -2.012   6.656  0.00  0.00    -0.241 OA
ATOM     20  O   UNL     1       3.338  -2.055   8.234  0.00  0.00    -0.241 OA
ENDBRANCH   5  17
BRANCH   1  22
ATOM     21  C   UNL     1      -0.268   0.649  -0.262  0.00  0.00    +0.010 C 
ATOM     22  C   UNL     1      -0.021  -0.837   0.007  0.00  0.00    +0.053 C 
ENDBRANCH   1  22
BRANCH   2  23
ATOM     23  C   UNL     1      -1.393  -0.907   2.491  0.00  0.00    +0.339 C 
ATOM     24  O   UNL     1      -1.991  -0.668   1.458  0.00  0.00    -0.245 OA
BRANCH  23  25
ATOM     25  O   UNL     1      -2.076  -1.061   3.646  0.00  0.00    -0.465 OA
ATOM     26  C   UNL     1      -3.497  -0.929   3.582  0.00  0.00    +0.280 C 
ENDBRANCH  23  25
ENDBRANCH   2  23
TORSDOF 5
