REMARK  Name = ZINC39687294
REMARK  11 active torsions:
REMARK  status: ('A' for Active; 'I' for Inactive)
REMARK    1  A    between atoms: C_1  and  C_2
REMARK    2  A    between atoms: C_2  and  C_3
REMARK    3  A    between atoms: C_3  and  C_4
REMARK    4  A    between atoms: C_4  and  C_5
REMARK    5  A    between atoms: C_5  and  C_7
REMARK    6  A    between atoms: C_5  and  C_8
REMARK    7  A    between atoms: C_12  and  C_21
REMARK    8  A    between atoms: N_23  and  C_24
REMARK    9  A    between atoms: C_24  and  C_26
REMARK   10  A    between atoms: C_24  and  C_33
REMARK   11  A    between atoms: C_26  and  C_27
REMARK                            x       y       z     vdW  Elec       q    Type
REMARK                         _______ _______ _______ _____ _____    ______ ____
ROOT
ATOM      1  C   UNL     1       2.098  -3.947   2.886  0.00  0.00    +0.218 C 
ATOM      2  O   UNL     1       1.769  -4.465   1.840  0.00  0.00    -0.275 OA
ATOM      3  N   UNL     1       2.394  -4.714   3.954  0.00  0.00    -0.300 N 
ATOM      4  C   UNL     1       2.707  -4.270   5.332  0.00  0.00    +0.121 C 
ATOM      5  C   UNL     1       2.003  -5.300   6.244  0.00  0.00    +0.100 C 
ATOM      6  C   UNL     1       1.859  -6.560   5.374  0.00  0.00    -0.004 C 
ATOM      7  C   UNL     1       2.475  -6.193   4.016  0.00  0.00    +0.115 C 
ATOM      8  C   UNL     1       0.386  -6.916   5.199  0.00  0.00    -0.010 C 
ATOM      9  C   UNL     1       0.271  -8.204   4.379  0.00  0.00    -0.082 C 
ATOM     10  N   UNL     1       0.980  -9.290   5.067  0.00  0.00    +0.379 N 
ATOM     11  C   UNL     1       2.412  -8.980   5.149  0.00  0.00    -0.082 C 
ATOM     12  C   UNL     1       2.618  -7.725   6.002  0.00  0.00    -0.010 C 
ATOM     13  H   UNL     1       0.606  -9.396   5.999  0.00  0.00    -0.086 HD
ATOM     14  H   UNL     1       0.851 -10.150   4.557  0.00  0.00    -0.086 HD
ENDROOT
BRANCH   5  15
ATOM     15  C   UNL     1       0.648  -4.790   6.662  0.00  0.00    +0.219 C 
ATOM     16  O   UNL     1       0.304  -4.864   7.822  0.00  0.00    -0.275 OA
ATOM     17  N   UNL     1      -0.182  -4.253   5.746  0.00  0.00    -0.303 N 
ATOM     18  H   UNL     1       0.093  -4.195   4.817  0.00  0.00    +0.149 HD
BRANCH  17  19
ATOM     19  C   UNL     1      -1.500  -3.758   6.152  0.00  0.00    +0.163 C 
BRANCH  19  20
ATOM     20  C   UNL     1      -2.434  -3.789   4.970  0.00  0.00    +0.236 C 
ATOM     21  O   UNL     1      -1.992  -3.702   3.845  0.00  0.00    -0.274 OA
ATOM     22  N   UNL     1      -3.762  -3.914   5.165  0.00  0.00    -0.300 N 
ATOM     23  C   UNL     1      -4.325  -3.899   6.522  0.00  0.00    +0.108 C 
ATOM     24  C   UNL     1      -5.422  -2.832   6.589  0.00  0.00    +0.019 C 
ATOM     25  C   UNL     1      -6.450  -3.093   5.485  0.00  0.00    +0.003 C 
ATOM     26  C   UNL     1      -5.768  -2.999   4.118  0.00  0.00    +0.019 C 
ATOM     27  C   UNL     1      -4.675  -4.062   4.023  0.00  0.00    +0.108 C 
ENDBRANCH  19  20
BRANCH  19  28
ATOM     28  C   UNL     1      -1.370  -2.321   6.662  0.00  0.00    +0.067 C 
BRANCH  28  29
ATOM     29  C   UNL     1      -0.534  -2.307   7.916  0.00  0.00    -0.045 A 
ATOM     30  C   UNL     1      -1.139  -2.451   9.151  0.00  0.00    +0.004 A 
ATOM     31  C   UNL     1      -0.373  -2.437  10.301  0.00  0.00    +0.000 A 
ATOM     32  C   UNL     1       0.998  -2.281  10.217  0.00  0.00    +0.000 A 
ATOM     33  C   UNL     1       1.603  -2.138   8.982  0.00  0.00    +0.000 A 
ATOM     34  C   UNL     1       0.837  -2.156   7.831  0.00  0.00    +0.004 A 
ENDBRANCH  28  29
ENDBRANCH  19  28
ENDBRANCH  17  19
ENDBRANCH   5  15
BRANCH   1  35
ATOM     35  C   UNL     1       2.175  -2.446   2.992  0.00  0.00    +0.072 C 
ATOM     36  C   UNL     1       1.130  -1.815   2.070  0.00  0.00    +0.017 C 
BRANCH  35  37
ATOM     37  C   UNL     1       3.571  -1.977   2.577  0.00  0.00    +0.012 C 
BRANCH  37  38
ATOM     38  C   UNL     1       3.690  -0.468   2.803  0.00  0.00    +0.000 C 
BRANCH  38  40
ATOM     39  C   UNL     1       5.205   1.510   2.613  0.00  0.00    +0.004 C 
ATOM     40  C   UNL     1       5.086   0.001   2.388  0.00  0.00    -0.003 C 
ENDBRANCH  38  40
ENDBRANCH  37  38
ENDBRANCH  35  37
ENDBRANCH   1  35
TORSDOF 9
