REMARK  Name = ZINC63390378
REMARK  8 active torsions:
REMARK  status: ('A' for Active; 'I' for Inactive)
REMARK    1  A    between atoms: C_1  and  C_2
REMARK    2  A    between atoms: C_2  and  C_38
REMARK    3  A    between atoms: C_3  and  C_14
REMARK    4  A    between atoms: N_16  and  C_17
REMARK    5  A    between atoms: C_17  and  C_19
REMARK    6  A    between atoms: C_17  and  C_29
REMARK    7  A    between atoms: C_19  and  C_20
REMARK    8  A    between atoms: N_31  and  C_32
REMARK                            x       y       z     vdW  Elec       q    Type
REMARK                         _______ _______ _______ _____ _____    ______ ____
ROOT
ATOM      1  C   UNL     1      -0.815   0.419  -4.397  0.00  0.00    +0.163 C 
ENDROOT
BRANCH   1   4
ATOM      2  C   UNL     1       0.133  -0.627  -2.411  0.00  0.00    +0.236 C 
ATOM      3  O   UNL     1      -0.332  -1.684  -2.782  0.00  0.00    -0.274 OA
ATOM      4  N   UNL     1      -0.052   0.486  -3.148  0.00  0.00    -0.302 N 
ATOM      5  H   UNL     1       0.320   1.332  -2.852  0.00  0.00    +0.150 HD
BRANCH   2   8
ATOM      6  C   UNL     1      -0.019   1.526   0.010  0.00  0.00    +0.037 C 
ATOM      7  C   UNL     1       0.002  -0.004   0.002  0.00  0.00    +0.111 C 
ATOM      8  C   UNL     1       0.918  -0.558  -1.127  0.00  0.00    +0.190 C 
ATOM      9  N   UNL     1       1.415  -1.897  -0.797  0.00  0.00    -0.265 N 
ATOM     10  C   UNL     1       1.564  -2.196   0.634  0.00  0.00    +0.228 C 
ATOM     11  S   UNL     1       0.923  -0.680   1.457  0.00  0.00    -0.004 S 
ATOM     12  O   UNL     1       2.008   0.182   1.770  0.00  0.00    -0.172 OA
ATOM     13  O   UNL     1      -0.003  -1.049   2.470  0.00  0.00    -0.172 OA
ATOM     14  C   UNL     1       3.067  -2.201   0.421  0.00  0.00    +0.142 C 
ATOM     15  C   UNL     1       2.713  -2.168  -1.036  0.00  0.00    +0.221 C 
ATOM     16  O   UNL     1       3.356  -2.325  -2.052  0.00  0.00    -0.275 OA
ATOM     17  C   UNL     1      -1.413  -0.580  -0.086  0.00  0.00    +0.037 C 
ENDBRANCH   2   8
ENDBRANCH   1   4
BRANCH   1  18
ATOM     18  C   UNL     1       0.097   0.001  -5.521  0.00  0.00    +0.234 C 
ATOM     19  O   UNL     1       1.269  -0.220  -5.301  0.00  0.00    -0.274 OA
ATOM     20  N   UNL     1      -0.390  -0.128  -6.771  0.00  0.00    -0.311 N 
ATOM     21  H   UNL     1      -1.327   0.048  -6.947  0.00  0.00    +0.149 HD
BRANCH  20  22
ATOM     22  C   UNL     1       0.497  -0.535  -7.864  0.00  0.00    +0.073 C 
ATOM     23  C   UNL     1       1.210   0.696  -8.427  0.00  0.00    +0.022 C 
ATOM     24  C   UNL     1       2.136   0.271  -9.569  0.00  0.00    +0.002 C 
ATOM     25  C   UNL     1       1.312  -0.391 -10.675  0.00  0.00    +0.000 C 
ATOM     26  C   UNL     1       0.598  -1.621 -10.112  0.00  0.00    +0.002 C 
ATOM     27  C   UNL     1      -0.328  -1.196  -8.971  0.00  0.00    +0.022 C 
ENDBRANCH  20  22
ENDBRANCH   1  18
BRANCH   1  28
ATOM     28  C   UNL     1      -1.408   1.795  -4.707  0.00  0.00    +0.065 C 
BRANCH  28  29
ATOM     29  C   UNL     1      -2.413   2.160  -3.644  0.00  0.00    -0.039 C 
ATOM     30  C   UNL     1      -2.193   2.909  -2.540  0.00  0.00    -0.001 A 
ATOM     31  C   UNL     1      -0.999   3.582  -2.017  0.00  0.00    +0.010 A 
ATOM     32  C   UNL     1      -1.090   4.273  -0.858  0.00  0.00    +0.001 A 
ATOM     33  C   UNL     1      -2.294   4.362  -0.145  0.00  0.00    +0.002 A 
ATOM     34  C   UNL     1      -3.433   3.771  -0.563  0.00  0.00    +0.026 A 
ATOM     35  C   UNL     1      -3.453   3.019  -1.769  0.00  0.00    +0.043 A 
ATOM     36  N   UNL     1      -4.413   2.363  -2.374  0.00  0.00    -0.380 N 
ATOM     37  C   UNL     1      -3.873   1.768  -3.601  0.00  0.00    +0.144 C 
ATOM     38  H   UNL     1      -5.329   2.288  -2.064  0.00  0.00    +0.160 HD
ENDBRANCH  28  29
ENDBRANCH   1  28
TORSDOF 6
