REMARK  Name = ZINC07880011
REMARK  8 active torsions:
REMARK  status: ('A' for Active; 'I' for Inactive)
REMARK    1  A    between atoms: C_3  and  S_25
REMARK    2  A    between atoms: C_6  and  C_7
REMARK    3  A    between atoms: C_7  and  C_8
REMARK    4  A    between atoms: C_8  and  N_9
REMARK    5  A    between atoms: C_10  and  C_12
REMARK    6  A    between atoms: C_12  and  N_53
REMARK    7  A    between atoms: C_20  and  C_22
REMARK    8  A    between atoms: S_25  and  N_28
REMARK                            x       y       z     vdW  Elec       q    Type
REMARK                         _______ _______ _______ _____ _____    ______ ____
ROOT
ATOM      1  N   UNL     1       7.679  -1.180   1.463  0.00  0.00    -0.317 N 
ATOM      2  C   UNL     1       6.350  -1.055   1.278  0.00  0.00    +0.196 C 
ATOM      3  O   UNL     1       5.595  -1.895   1.720  0.00  0.00    -0.278 OA
ATOM      4  H   UNL     1       8.284  -0.509   1.110  0.00  0.00    +0.149 HD
ENDROOT
BRANCH   1   5
ATOM      5  C   UNL     1       8.212  -2.331   2.197  0.00  0.00    +0.109 C 
BRANCH   5   6
ATOM      6  C   UNL     1       9.737  -2.233   2.263  0.00  0.00    +0.054 C 
BRANCH   6  12
ATOM      7  C   UNL     1      10.457  -3.344   4.387  0.00  0.00    +0.005 A 
ATOM      8  C   UNL     1      10.955  -4.431   5.080  0.00  0.00    +0.029 A 
ATOM      9  C   UNL     1      11.289  -5.588   4.402  0.00  0.00    +0.105 A 
ATOM     10  C   UNL     1      11.122  -5.660   3.032  0.00  0.00    +0.029 A 
ATOM     11  C   UNL     1      10.620  -4.574   2.340  0.00  0.00    +0.005 A 
ATOM     12  C   UNL     1      10.284  -3.417   3.018  0.00  0.00    -0.046 A 
BRANCH   9  13
ATOM     13  S   UNL     1      11.928  -6.973   5.285  0.00  0.00    +0.056 S 
ATOM     14  O   UNL     1      11.477  -6.843   6.627  0.00  0.00    -0.153 OA
ATOM     15  O   UNL     1      11.650  -8.121   4.496  0.00  0.00    -0.153 OA
BRANCH  13  16
ATOM     16  N   UNL     1      13.576  -6.812   5.322  0.00  0.00    -0.204 NA
ATOM     17  H   UNL     1      13.998  -6.049   4.899  0.00  0.00    +0.144 HD
ATOM     18  H   UNL     1      14.118  -7.481   5.768  0.00  0.00    +0.144 HD
ENDBRANCH  13  16
ENDBRANCH   9  13
ENDBRANCH   6  12
ENDBRANCH   5   6
ENDBRANCH   1   5
BRANCH   2  19
ATOM     19  C   UNL     1       5.803   0.129   0.524  0.00  0.00    +0.019 C 
BRANCH  19  28
ATOM     20  C   UNL     1       3.919  -1.119  -0.348  0.00  0.00    -0.072 C 
ATOM     21  C   UNL     1       2.440  -1.420  -0.054  0.00  0.00    +0.024 C 
ATOM     22  C   UNL     1       1.695  -0.126  -0.101  0.00  0.00    -0.010 A 
ATOM     23  C   UNL     1       2.235   1.125  -0.091  0.00  0.00    -0.051 A 
ATOM     24  C   UNL     1       1.339   2.190  -0.144  0.00  0.00    +0.010 A 
ATOM     25  C   UNL     1       0.008   1.952  -0.200  0.00  0.00    +0.045 A 
ATOM     26  S   UNL     1      -0.049   0.166  -0.181  0.00  0.00    -0.101 S 
ATOM     27  C   UNL     1       3.751   1.290  -0.025  0.00  0.00    -0.033 C 
ATOM     28  N   UNL     1       4.330   0.029   0.495  0.00  0.00    +0.390 N 
ATOM     29  H   UNL     1       3.988  -0.123   1.451  0.00  0.00    -0.080 HD
BRANCH  27  30
ATOM     30  C   UNL     1       4.105   2.427   0.936  0.00  0.00    -0.020 C 
ATOM     31  C   UNL     1       2.966   3.049   1.746  0.00  0.00    +0.002 C 
ATOM     32  C   UNL     1       3.597   3.828   0.589  0.00  0.00    +0.002 C 
ENDBRANCH  27  30
ENDBRANCH  19  28
ENDBRANCH   2  19
TORSDOF 8
