REMARK  Name = ZINC36583688
REMARK  19 active torsions:
REMARK  status: ('A' for Active; 'I' for Inactive)
REMARK    1  A    between atoms: C_1  and  C_2
REMARK    2  A    between atoms: C_2  and  C_3
REMARK    3  A    between atoms: C_2  and  C_4
REMARK    4  A    between atoms: C_2  and  C_5
REMARK    5  A    between atoms: C_5  and  C_6
REMARK    6  A    between atoms: C_6  and  C_7
REMARK    7  A    between atoms: C_6  and  C_8
REMARK    8  A    between atoms: C_6  and  N_9
REMARK    9  A    between atoms: C_10  and  C_12
REMARK   10  A    between atoms: C_12  and  C_14
REMARK   11  A    between atoms: C_12  and  N_21
REMARK   12  A    between atoms: C_17  and  O_20
REMARK   13  A    between atoms: N_21  and  C_36
REMARK   14  A    between atoms: C_22  and  C_24
REMARK   15  A    between atoms: C_26  and  N_33
REMARK   16  A    between atoms: C_28  and  N_30
REMARK   17  A    between atoms: C_36  and  C_37
REMARK   18  A    between atoms: C_36  and  C_38
REMARK   19  A    between atoms: C_36  and  C_39
REMARK                            x       y       z     vdW  Elec       q    Type
REMARK                         _______ _______ _______ _____ _____    ______ ____
ROOT
ATOM      1  C   UNL     1       5.233  -1.535  -1.946  0.00  0.00    +0.193 C 
ENDROOT
BRANCH   1   2
ATOM      2  C   UNL     1       5.678  -2.971  -2.056  0.00  0.00    -0.018 A 
ATOM      3  C   UNL     1       6.506  -3.513  -1.091  0.00  0.00    +0.009 A 
ATOM      4  C   UNL     1       6.916  -4.828  -1.190  0.00  0.00    +0.046 A 
ATOM      5  C   UNL     1       6.495  -5.606  -2.259  0.00  0.00    +0.117 A 
ATOM      6  C   UNL     1       5.663  -5.060  -3.226  0.00  0.00    +0.046 A 
ATOM      7  C   UNL     1       5.252  -3.745  -3.119  0.00  0.00    +0.009 A 
BRANCH   5   8
ATOM      8  O   UNL     1       6.897  -6.900  -2.359  0.00  0.00    -0.507 OA
ATOM      9  H   UNL     1       6.306  -7.530  -1.923  0.00  0.00    +0.292 HD
ENDBRANCH   5   8
ENDBRANCH   1   2
BRANCH   1  11
ATOM     10  N   UNL     1       2.902  -2.193  -1.445  0.00  0.00    -0.308 N 
ATOM     11  C   UNL     1       3.982  -1.460  -1.110  0.00  0.00    +0.239 C 
ATOM     12  O   UNL     1       3.947  -0.740  -0.135  0.00  0.00    -0.273 OA
ATOM     13  H   UNL     1       2.930  -2.769  -2.225  0.00  0.00    +0.149 HD
BRANCH  10  14
ATOM     14  C   UNL     1       1.685  -2.119  -0.632  0.00  0.00    +0.030 C 
ATOM     15  C   UNL     1       1.175  -0.677  -0.607  0.00  0.00    +0.031 C 
ATOM     16  C   UNL     1       1.998  -2.575   0.795  0.00  0.00    +0.031 C 
BRANCH  14  17
ATOM     17  C   UNL     1       0.613  -3.030  -1.235  0.00  0.00    +0.031 C 
BRANCH  17  19
ATOM     18  C   UNL     1       1.616  -3.203  -3.517  0.00  0.00    +0.010 C 
ATOM     19  C   UNL     1       0.422  -2.683  -2.712  0.00  0.00    -0.036 C 
ATOM     20  C   UNL     1       0.323  -1.165  -2.872  0.00  0.00    +0.010 C 
ATOM     21  C   UNL     1      -0.863  -3.335  -3.227  0.00  0.00    +0.010 C 
ENDBRANCH  17  19
ENDBRANCH  14  17
ENDBRANCH  10  14
ENDBRANCH   1  11
BRANCH   1  22
ATOM     22  N   UNL     1       6.291  -0.743  -1.314  0.00  0.00    -0.277 N 
ATOM     23  C   UNL     1       6.677  -1.019  -0.053  0.00  0.00    +0.248 C 
ATOM     24  O   UNL     1       6.138  -1.916   0.566  0.00  0.00    -0.270 OA
BRANCH  23  25
ATOM     25  C   UNL     1       7.756  -0.230   0.579  0.00  0.00    +0.041 A 
ATOM     26  C   UNL     1       8.417   0.762  -0.147  0.00  0.00    +0.046 A 
ATOM     27  C   UNL     1       9.422   1.495   0.448  0.00  0.00    +0.129 A 
ATOM     28  C   UNL     1       9.777   1.248   1.763  0.00  0.00    +0.065 A 
ATOM     29  C   UNL     1       9.126   0.266   2.489  0.00  0.00    +0.129 A 
ATOM     30  C   UNL     1       8.115  -0.470   1.907  0.00  0.00    +0.046 A 
BRANCH  29  31
ATOM     31  N   UNL     1       9.512   0.009   3.894  0.00  0.00    +0.057 N 
ATOM     32  O   UNL     1      10.395   0.656   4.407  0.00  0.00    -0.126 OA
ATOM     33  O   UNL     1       8.944  -0.849   4.529  0.00  0.00    -0.126 OA
ENDBRANCH  29  31
BRANCH  27  34
ATOM     34  N   UNL     1      10.124   2.547  -0.321  0.00  0.00    +0.057 N 
ATOM     35  O   UNL     1       9.880   2.703  -1.494  0.00  0.00    -0.126 OA
ATOM     36  O   UNL     1      10.942   3.251   0.225  0.00  0.00    -0.126 OA
ENDBRANCH  27  34
ENDBRANCH  23  25
BRANCH  22  37
ATOM     37  C   UNL     1       6.930   0.348  -2.054  0.00  0.00    +0.030 C 
ATOM     38  C   UNL     1       6.296   0.463  -3.442  0.00  0.00    +0.031 C 
ATOM     39  C   UNL     1       6.735   1.662  -1.294  0.00  0.00    +0.031 C 
ATOM     40  C   UNL     1       8.426   0.060  -2.198  0.00  0.00    +0.031 C 
ENDBRANCH  22  37
ENDBRANCH   1  22
TORSDOF 11
