REMARK  Name = ZINC11841194
REMARK  10 active torsions:
REMARK  status: ('A' for Active; 'I' for Inactive)
REMARK    1  A    between atoms: C_1  and  C_2
REMARK    2  A    between atoms: C_5  and  C_7
REMARK    3  A    between atoms: C_11  and  O_13
REMARK    4  A    between atoms: O_13  and  C_14
REMARK    5  A    between atoms: C_14  and  C_15
REMARK    6  A    between atoms: C_26  and  C_27
REMARK    7  A    between atoms: C_26  and  N_68
REMARK    8  A    between atoms: C_29  and  O_34
REMARK    9  A    between atoms: C_32  and  O_33
REMARK   10  A    between atoms: O_34  and  C_35
REMARK                            x       y       z     vdW  Elec       q    Type
REMARK                         _______ _______ _______ _____ _____    ______ ____
ROOT
ATOM      1  C   UNL     1       3.359   2.654   2.167  0.00  0.00    -0.007 A 
ATOM      2  C   UNL     1       2.030   2.270   1.972  0.00  0.00    +0.014 A 
ATOM      3  C   UNL     1       1.617   1.850   0.727  0.00  0.00    -0.018 A 
ATOM      4  C   UNL     1       2.507   1.785  -0.328  0.00  0.00    +0.163 A 
ATOM      5  C   UNL     1       3.832   2.178  -0.145  0.00  0.00    +0.163 A 
ATOM      6  C   UNL     1       4.256   2.611   1.098  0.00  0.00    +0.058 A 
ATOM      7  O   UNL     1       2.095   1.333  -1.544  0.00  0.00    -0.490 OA
ATOM      8  C   UNL     1       1.784  -0.065  -1.604  0.00  0.00    +0.211 C 
ATOM      9  C   UNL     1       0.356  -0.313  -1.167  0.00  0.00    -0.036 C 
ATOM     10  C   UNL     1       0.170   1.456   0.497  0.00  0.00    -0.039 C 
ATOM     11  N   UNL     1       0.130  -0.007   0.262  0.00  0.00    +0.387 N 
ATOM     12  H   UNL     1       0.873  -0.450   0.815  0.00  0.00    -0.081 HD
ENDROOT
BRANCH   1  17
ATOM     13  C   UNL     1       4.156   4.204   7.527  0.00  0.00    +0.051 C 
ATOM     14  C   UNL     1       4.198   3.846   6.064  0.00  0.00    -0.013 A 
ATOM     15  C   UNL     1       5.248   3.894   5.204  0.00  0.00    +0.011 A 
ATOM     16  C   UNL     1       5.059   3.516   3.893  0.00  0.00    +0.016 A 
ATOM     17  C   UNL     1       3.814   3.103   3.500  0.00  0.00    +0.020 A 
ATOM     18  S   UNL     1       2.880   3.257   5.014  0.00  0.00    -0.093 S 
ENDBRANCH   1  17
BRANCH   5  19
ATOM     19  O   UNL     1       4.706   2.135  -1.186  0.00  0.00    -0.486 OA
BRANCH  19  20
ATOM     20  C   UNL     1       6.048   2.552  -0.925  0.00  0.00    +0.260 C 
BRANCH  20  21
ATOM     21  C   UNL     1       6.877   2.435  -2.206  0.00  0.00    +0.156 C 
ATOM     22  C   UNL     1       8.340   2.762  -1.898  0.00  0.00    +0.035 C 
ATOM     23  C   UNL     1       9.152   2.702  -3.195  0.00  0.00    +0.005 C 
ATOM     24  C   UNL     1       8.542   3.670  -4.213  0.00  0.00    +0.028 C 
ATOM     25  C   UNL     1       7.070   3.308  -4.431  0.00  0.00    +0.160 C 
ATOM     26  O   UNL     1       6.380   3.354  -3.181  0.00  0.00    -0.373 OA
ENDBRANCH  20  21
ENDBRANCH  19  20
ENDBRANCH   5  19
BRANCH  11  27
ATOM     27  C   UNL     1      -1.170  -0.550   0.689  0.00  0.00    -0.039 C 
BRANCH  27  28
ATOM     28  C   UNL     1      -1.056  -2.051   0.769  0.00  0.00    -0.019 A 
ATOM     29  C   UNL     1      -1.661  -2.842  -0.188  0.00  0.00    +0.051 A 
ATOM     30  C   UNL     1      -1.551  -4.222  -0.117  0.00  0.00    +0.121 A 
ATOM     31  C   UNL     1      -0.845  -4.809   0.922  0.00  0.00    +0.049 A 
ATOM     32  C   UNL     1      -0.245  -4.019   1.883  0.00  0.00    +0.049 A 
ATOM     33  C   UNL     1      -0.350  -2.638   1.808  0.00  0.00    +0.118 A 
BRANCH  33  34
ATOM     34  O   UNL     1       0.241  -1.859   2.754  0.00  0.00    -0.507 OA
ATOM     35  H   UNL     1      -0.296  -1.728   3.547  0.00  0.00    +0.292 HD
ENDBRANCH  33  34
BRANCH  30  36
ATOM     36  O   UNL     1      -2.142  -5.001  -1.063  0.00  0.00    -0.495 OA
ATOM     37  C   UNL     1      -1.993  -6.415  -0.924  0.00  0.00    +0.277 C 
ENDBRANCH  30  36
ENDBRANCH  27  28
ENDBRANCH  11  27
TORSDOF 8
