REMARK  Name = ZINC05513776
REMARK  4 active torsions:
REMARK  status: ('A' for Active; 'I' for Inactive)
REMARK    1  A    between atoms: C_6  and  S_7
REMARK    2  A    between atoms: S_7  and  C_8
REMARK    3  A    between atoms: C_8  and  C_9
REMARK    4  A    between atoms: N_11  and  N_12
REMARK                            x       y       z     vdW  Elec       q    Type
REMARK                         _______ _______ _______ _____ _____    ______ ____
ROOT
ATOM      1  C   UNL     1       1.855   3.722   0.004  0.00  0.00    +0.242 C 
ATOM      2  O   UNL     1       0.858   4.413   0.018  0.00  0.00    -0.273 OA
ATOM      3  N   UNL     1       3.074   4.299  -0.004  0.00  0.00    -0.206 N 
ATOM      4  H   UNL     1       3.871   3.747  -0.015  0.00  0.00    +0.177 HD
ENDROOT
BRANCH   3   5
ATOM      5  N   UNL     1       3.188   5.695   0.002  0.00  0.00    -0.189 NA
ATOM      6  C   UNL     1       4.346   6.242  -0.006  0.00  0.00    +0.037 C 
ATOM      7  C   UNL     1       5.585   5.384  -0.016  0.00  0.00    +0.052 C 
ATOM      8  C   UNL     1       5.504   4.394  -1.185  0.00  0.00    +0.006 C 
ATOM      9  C   UNL     1       6.669   4.640  -2.146  0.00  0.00    +0.000 C 
ATOM     10  C   UNL     1       6.137   4.746  -3.576  0.00  0.00    +0.000 C 
ATOM     11  C   UNL     1       6.665   6.028  -4.224  0.00  0.00    +0.000 C 
ATOM     12  C   UNL     1       5.490   6.859  -4.743  0.00  0.00    +0.000 C 
ATOM     13  C   UNL     1       5.584   8.279  -4.183  0.00  0.00    +0.000 C 
ATOM     14  C   UNL     1       4.256   8.655  -3.521  0.00  0.00    +0.000 C 
ATOM     15  C   UNL     1       4.515   9.117  -2.086  0.00  0.00    +0.000 C 
ATOM     16  C   UNL     1       3.618   8.331  -1.127  0.00  0.00    +0.006 C 
ATOM     17  C   UNL     1       4.469   7.744   0.001  0.00  0.00    +0.052 C 
ENDBRANCH   3   5
BRANCH   1  18
ATOM     18  C   UNL     1       1.732   2.220  -0.003  0.00  0.00    +0.171 C 
BRANCH  18  19
ATOM     19  S   UNL     1      -0.022   1.758   0.012  0.00  0.00    -0.116 S 
BRANCH  19  25
ATOM     20  C   UNL     1       1.214  -0.684  -0.019  0.00  0.00    +0.016 A 
ATOM     21  C   UNL     1       1.229  -2.065  -0.021  0.00  0.00    +0.021 A 
ATOM     22  C   UNL     1       0.040  -2.771  -0.014  0.00  0.00    +0.041 A 
ATOM     23  C   UNL     1      -1.169  -2.097   0.002  0.00  0.00    +0.021 A 
ATOM     24  C   UNL     1      -1.191  -0.717   0.010  0.00  0.00    +0.016 A 
ATOM     25  C   UNL     1       0.002  -0.004   0.002  0.00  0.00    +0.008 A 
ATOM     26 CL   UNL     1       0.063  -4.507  -0.024  0.00  0.00    -0.084 Cl
ENDBRANCH  19  25
ENDBRANCH  18  19
ENDBRANCH   1  18
TORSDOF 4
