REMARK  Name = ZINC39676361
REMARK  4 active torsions:
REMARK  status: ('A' for Active; 'I' for Inactive)
REMARK    1  A    between atoms: C_11  and  C_13
REMARK    2  A    between atoms: C_13  and  N_14
REMARK    3  A    between atoms: C_15  and  C_17
REMARK    4  A    between atoms: C_28  and  C_30
REMARK                            x       y       z     vdW  Elec       q    Type
REMARK                         _______ _______ _______ _____ _____    ______ ____
ROOT
ATOM      1  C   UNL     1       8.431  -0.891  -0.090  0.00  0.00    +0.100 C 
ATOM      2  C   UNL     1       8.297   0.028   1.145  0.00  0.00    +0.121 C 
ATOM      3  N   UNL     1       9.214  -0.558   2.150  0.00  0.00    -0.296 N 
ATOM      4  C   UNL     1      10.399  -0.982   1.365  0.00  0.00    +0.115 C 
ATOM      5  C   UNL     1       9.813  -1.549   0.057  0.00  0.00    -0.004 C 
ATOM      6  C   UNL     1      10.704  -1.177  -1.125  0.00  0.00    -0.010 C 
ATOM      7  C   UNL     1      12.052  -1.891  -0.987  0.00  0.00    -0.082 C 
ATOM      8  N   UNL     1      11.838  -3.342  -0.948  0.00  0.00    +0.379 N 
ATOM      9  C   UNL     1      11.059  -3.701   0.244  0.00  0.00    -0.082 C 
ATOM     10  C   UNL     1       9.669  -3.065   0.158  0.00  0.00    -0.010 C 
ATOM     11  C   UNL     1       9.017  -0.678   3.478  0.00  0.00    +0.252 C 
ATOM     12  O   UNL     1       9.873  -1.187   4.176  0.00  0.00    -0.270 OA
ATOM     13  H   UNL     1      11.337  -3.630  -1.775  0.00  0.00    -0.086 HD
ATOM     14  H   UNL     1      12.731  -3.812  -0.918  0.00  0.00    -0.086 HD
ENDROOT
BRANCH  11  15
ATOM     15  C   UNL     1       7.762  -0.193   4.084  0.00  0.00    +0.108 A 
ATOM     16  C   UNL     1       6.662  -1.050   4.205  0.00  0.00    +0.138 A 
ATOM     17  C   UNL     1       5.491  -0.588   4.774  0.00  0.00    +0.041 A 
ATOM     18  C   UNL     1       5.403   0.717   5.224  0.00  0.00    +0.026 A 
ATOM     19  C   UNL     1       6.486   1.571   5.109  0.00  0.00    +0.077 A 
ATOM     20  C   UNL     1       7.668   1.123   4.546  0.00  0.00    +0.156 A 
ATOM     21  F   UNL     1       8.726   1.957   4.439  0.00  0.00    -0.203 F 
ATOM     22 CL   UNL     1       6.362   3.207   5.676  0.00  0.00    -0.081 Cl
ATOM     23  F   UNL     1       6.745  -2.325   3.766  0.00  0.00    -0.205 F 
ENDBRANCH  11  15
BRANCH   1  25
ATOM     24  N   UNL     1       6.905  -2.456  -1.247  0.00  0.00    -0.308 N 
ATOM     25  C   UNL     1       7.348  -1.939  -0.084  0.00  0.00    +0.219 C 
ATOM     26  O   UNL     1       6.875  -2.316   0.967  0.00  0.00    -0.275 OA
ATOM     27  H   UNL     1       7.284  -2.154  -2.088  0.00  0.00    +0.149 HD
BRANCH  24  28
ATOM     28  C   UNL     1       5.852  -3.474  -1.242  0.00  0.00    +0.178 C 
BRANCH  28  39
ATOM     29  C   UNL     1       5.465  -4.335  -7.563  0.00  0.00    +0.001 A 
ATOM     30  C   UNL     1       6.428  -3.380  -7.263  0.00  0.00    +0.002 A 
ATOM     31  C   UNL     1       6.689  -3.027  -5.958  0.00  0.00    +0.028 A 
ATOM     32  C   UNL     1       5.978  -3.635  -4.922  0.00  0.00    +0.078 A 
ATOM     33  C   UNL     1       4.999  -4.605  -5.230  0.00  0.00    +0.065 A 
ATOM     34  C   UNL     1       4.751  -4.949  -6.558  0.00  0.00    +0.015 A 
ATOM     35  C   UNL     1       4.268  -5.227  -4.116  0.00  0.00    +0.259 A 
ATOM     36  O   UNL     1       3.413  -6.071  -4.313  0.00  0.00    -0.267 OA
ATOM     37  N   UNL     1       4.584  -4.825  -2.863  0.00  0.00    -0.309 N 
ATOM     38  H   UNL     1       4.122  -5.213  -2.103  0.00  0.00    +0.170 HD
ATOM     39  C   UNL     1       5.541  -3.883  -2.659  0.00  0.00    +0.128 A 
ATOM     40  N   UNL     1       6.202  -3.317  -3.622  0.00  0.00    -0.232 NA
ENDBRANCH  28  39
ENDBRANCH  24  28
ENDBRANCH   1  25
TORSDOF 4
