REMARK  Name = ZINC08788918
REMARK  5 active torsions:
REMARK  status: ('A' for Active; 'I' for Inactive)
REMARK    1  A    between atoms: C_1  and  C_2
REMARK    2  A    between atoms: N_24  and  C_27
REMARK    3  A    between atoms: C_32  and  C_33
REMARK    4  A    between atoms: C_33  and  O_35
REMARK    5  A    between atoms: O_35  and  C_36
REMARK                            x       y       z     vdW  Elec       q    Type
REMARK                         _______ _______ _______ _____ _____    ______ ____
ROOT
ATOM      1  C   UNL     1      -1.163   2.438   4.979  0.00  0.00    +0.044 C 
ATOM      2  C   UNL     1      -1.387   2.584   3.495  0.00  0.00    -0.049 A 
ATOM      3  C   UNL     1      -0.543   1.949   2.601  0.00  0.00    +0.008 A 
ATOM      4  C   UNL     1      -0.747   2.083   1.246  0.00  0.00    -0.026 A 
ATOM      5  C   UNL     1      -1.799   2.855   0.761  0.00  0.00    +0.054 A 
ATOM      6  C   UNL     1      -2.644   3.491   1.667  0.00  0.00    +0.063 A 
ATOM      7  C   UNL     1      -2.435   3.354   3.025  0.00  0.00    +0.025 A 
ATOM      8 CL   UNL     1      -3.963   4.459   1.088  0.00  0.00    -0.082 Cl
ATOM      9  N   UNL     1      -1.803   2.840  -0.636  0.00  0.00    -0.285 N 
ATOM     10  C   UNL     1      -0.798   2.097  -1.139  0.00  0.00    +0.212 C 
ATOM     11  O   UNL     1      -0.554   1.909  -2.312  0.00  0.00    -0.277 OA
ATOM     12  C   UNL     1      -0.037   1.546   0.035  0.00  0.00    +0.053 C 
ATOM     13  C   UNL     1      -0.027   0.013   0.026  0.00  0.00    +0.089 C 
ATOM     14  C   UNL     1       1.350  -0.369  -0.585  0.00  0.00    +0.074 C 
ATOM     15  C   UNL     1       2.044   0.972  -0.884  0.00  0.00    -0.054 C 
ATOM     16  C   UNL     1       1.988   1.745   1.341  0.00  0.00    -0.076 C 
ATOM     17  C   UNL     1       3.471   1.434   1.057  0.00  0.00    -0.020 C 
ATOM     18  C   UNL     1       3.509   0.904  -0.416  0.00  0.00    -0.016 C 
ATOM     19  C   UNL     1       2.060  -1.059   0.558  0.00  0.00    +0.228 C 
ATOM     20  O   UNL     1       3.180  -1.520   0.511  0.00  0.00    -0.275 OA
ATOM     21  N   UNL     1       1.259  -1.081   1.630  0.00  0.00    -0.209 N 
ATOM     22  C   UNL     1       0.065  -0.506   1.443  0.00  0.00    +0.229 C 
ATOM     23  O   UNL     1      -0.807  -0.415   2.280  0.00  0.00    -0.275 OA
ATOM     24  H   UNL     1      -2.454   3.310  -1.181  0.00  0.00    +0.155 HD
ATOM     25  N   UNL     1       1.384   1.905   0.002  0.00  0.00    +0.395 N 
ATOM     26  H   UNL     1       1.500   2.870  -0.328  0.00  0.00    -0.079 HD
ENDROOT
BRANCH  21  27
ATOM     27  C   UNL     1       1.638  -1.657   2.844  0.00  0.00    +0.058 A 
ATOM     28  C   UNL     1       2.353  -0.916   3.774  0.00  0.00    +0.025 A 
ATOM     29  C   UNL     1       2.727  -1.487   4.974  0.00  0.00    +0.002 A 
ATOM     30  C   UNL     1       2.392  -2.801   5.260  0.00  0.00    +0.001 A 
ATOM     31  C   UNL     1       1.681  -3.551   4.349  0.00  0.00    +0.017 A 
ATOM     32  C   UNL     1       1.292  -2.985   3.132  0.00  0.00    +0.081 A 
BRANCH  32  33
ATOM     33  C   UNL     1       0.525  -3.781   2.156  0.00  0.00    +0.341 C 
ATOM     34  O   UNL     1       0.278  -3.321   1.058  0.00  0.00    -0.245 OA
BRANCH  33  35
ATOM     35  O   UNL     1       0.099  -5.017   2.480  0.00  0.00    -0.464 OA
ATOM     36  C   UNL     1      -0.650  -5.743   1.469  0.00  0.00    +0.280 C 
ENDBRANCH  33  35
ENDBRANCH  32  33
ENDBRANCH  21  27
TORSDOF 3
