REMARK  Name = ZINC20094982
REMARK  9 active torsions:
REMARK  status: ('A' for Active; 'I' for Inactive)
REMARK    1  A    between atoms: C_1  and  C_2
REMARK    2  A    between atoms: N_4  and  C_5
REMARK    3  A    between atoms: C_8  and  S_11
REMARK    4  A    between atoms: S_11  and  N_14
REMARK    5  A    between atoms: C_15  and  C_32
REMARK    6  A    between atoms: C_17  and  C_30
REMARK    7  A    between atoms: C_18  and  N_29
REMARK    8  A    between atoms: C_19  and  C_21
REMARK    9  A    between atoms: C_21  and  C_23
REMARK                            x       y       z     vdW  Elec       q    Type
REMARK                         _______ _______ _______ _____ _____    ______ ____
ROOT
ATOM      1  N   UNL     1       0.910   3.576   0.005  0.00  0.00    -0.148 NA
ATOM      2  C   UNL     1       1.568   2.264   0.045  0.00  0.00    +0.153 C 
ATOM      3  C   UNL     1       0.485   1.217   0.026  0.00  0.00    +0.071 C 
ATOM      4  C   UNL     1      -0.716   1.815  -0.026  0.00  0.00    +0.044 C 
ATOM      5  C   UNL     1      -0.533   3.310  -0.036  0.00  0.00    +0.196 C 
ENDROOT
BRANCH   2   6
ATOM      6  C   UNL     1       2.383   2.135   1.306  0.00  0.00    -0.024 A 
ATOM      7  C   UNL     1       1.897   2.640   2.498  0.00  0.00    +0.005 A 
ATOM      8  C   UNL     1       2.643   2.518   3.655  0.00  0.00    +0.000 A 
ATOM      9  C   UNL     1       3.879   1.899   3.619  0.00  0.00    +0.000 A 
ATOM     10  C   UNL     1       4.367   1.399   2.426  0.00  0.00    +0.000 A 
ATOM     11  C   UNL     1       3.619   1.517   1.270  0.00  0.00    +0.005 A 
ENDBRANCH   2   6
BRANCH   1  12
ATOM     12  S   UNL     1       1.648   5.059   0.007  0.00  0.00    +0.063 S 
ATOM     13  O   UNL     1       0.697   5.985   0.515  0.00  0.00    -0.153 OA
ATOM     14  O   UNL     1       2.926   4.876   0.602  0.00  0.00    -0.153 OA
BRANCH  12  18
ATOM     15  C   UNL     1       2.383   6.196  -4.314  0.00  0.00    +0.033 A 
ATOM     16  C   UNL     1       1.194   6.556  -3.692  0.00  0.00    +0.025 A 
ATOM     17  C   UNL     1       0.973   6.208  -2.374  0.00  0.00    +0.030 A 
ATOM     18  C   UNL     1       1.934   5.501  -1.674  0.00  0.00    +0.106 A 
ATOM     19  C   UNL     1       3.120   5.145  -2.289  0.00  0.00    +0.030 A 
ATOM     20  C   UNL     1       3.345   5.486  -3.608  0.00  0.00    +0.025 A 
BRANCH  15  24
ATOM     21  C   UNL     1       2.255   8.025  -7.601  0.00  0.00    +0.109 C 
ATOM     22  C   UNL     1       2.113   7.702  -6.136  0.00  0.00    +0.214 C 
ATOM     23  O   UNL     1       1.552   8.481  -5.395  0.00  0.00    -0.276 OA
ATOM     24  N   UNL     1       2.610   6.548  -5.650  0.00  0.00    -0.286 N 
ATOM     25  H   UNL     1       3.194   5.882  -6.302  0.00  0.00    +0.155 HD
ENDBRANCH  15  24
ENDBRANCH  12  18
ENDBRANCH   1  12
BRANCH   4  26
ATOM     26  N   UNL     1      -1.923   1.166  -0.061  0.00  0.00    -0.359 N 
ATOM     27  H   UNL     1      -2.858   1.744  -0.104  0.00  0.00    +0.142 HD
ATOM     28  H   UNL     1      -1.956   0.066  -0.047  0.00  0.00    +0.142 HD
ENDBRANCH   4  26
BRANCH   5  29
ATOM     29  C   UNL     1      -1.124   3.885  -1.298  0.00  0.00    +0.187 C 
ATOM     30  O   UNL     1      -0.408   4.132  -2.245  0.00  0.00    -0.290 OA
BRANCH  29  31
ATOM     31  C   UNL     1      -2.570   4.146  -1.381  0.00  0.00    +0.019 A 
ATOM     32  C   UNL     1      -3.400   3.857  -0.294  0.00  0.00    +0.011 A 
ATOM     33  C   UNL     1      -4.753   4.108  -0.378  0.00  0.00    +0.001 A 
ATOM     34  C   UNL     1      -5.292   4.636  -1.539  0.00  0.00    +0.000 A 
ATOM     35  C   UNL     1      -4.477   4.921  -2.621  0.00  0.00    +0.001 A 
ATOM     36  C   UNL     1      -3.122   4.679  -2.551  0.00  0.00    +0.011 A 
ENDBRANCH  29  31
ENDBRANCH   5  29
BRANCH   3  37
ATOM     37  C   UNL     1       0.704  -0.198   0.054  0.00  0.00    +0.098 C 
ATOM     38  N   UNL     1       0.877  -1.321   0.076  0.00  0.00    -0.191 NA
ENDBRANCH   3  37
TORSDOF 8
