REMARK  Name = ZINC37238815
REMARK  5 active torsions:
REMARK  status: ('A' for Active; 'I' for Inactive)
REMARK    1  A    between atoms: C_1  and  C_2
REMARK    2  A    between atoms: C_4  and  S_10
REMARK    3  A    between atoms: C_6  and  C_7
REMARK    4  A    between atoms: S_10  and  N_13
REMARK    5  A    between atoms: N_13  and  C_14
REMARK                            x       y       z     vdW  Elec       q    Type
REMARK                         _______ _______ _______ _____ _____    ______ ____
ROOT
ATOM      1  S   UNL     1       0.033  -3.231  -2.437  0.00  0.00    +0.098 S 
ATOM      2  O   UNL     1      -0.498  -4.448  -1.932  0.00  0.00    -0.148 OA
ATOM      3  O   UNL     1      -0.533  -2.557  -3.553  0.00  0.00    -0.148 OA
ENDROOT
BRANCH   1   7
ATOM      4  C   UNL     1      -0.018   1.503   0.010  0.00  0.00    +0.045 C 
ATOM      5  C   UNL     1       0.002  -0.004   0.002  0.00  0.00    -0.027 A 
ATOM      6  C   UNL     1       0.006  -0.728  -1.164  0.00  0.00    +0.041 A 
ATOM      7  C   UNL     1       0.025  -2.084  -1.099  0.00  0.00    +0.149 A 
ATOM      8  S   UNL     1       0.037  -2.418   0.547  0.00  0.00    -0.061 S 
ATOM      9  C   UNL     1       0.024  -0.750   1.175  0.00  0.00    +0.105 A 
BRANCH   9  10
ATOM     10  C   UNL     1       0.031  -0.301   2.519  0.00  0.00    +0.393 C 
ATOM     11  O   UNL     1       0.017   0.899   2.764  0.00  0.00    -0.240 OA
ATOM     12  O   UNL     1       0.051  -1.113   3.436  0.00  0.00    -0.240 OA
ENDBRANCH   9  10
ENDBRANCH   1   7
BRANCH   1  13
ATOM     13  N   UNL     1       1.617  -3.528  -2.817  0.00  0.00    -0.097 NA
BRANCH  13  14
ATOM     14  C   UNL     1       1.934  -4.411  -3.854  0.00  0.00    +0.077 A 
ATOM     15  C   UNL     1       0.920  -5.035  -4.569  0.00  0.00    +0.029 A 
ATOM     16  C   UNL     1       1.234  -5.908  -5.593  0.00  0.00    +0.043 A 
ATOM     17  C   UNL     1       2.558  -6.162  -5.907  0.00  0.00    +0.159 A 
ATOM     18  C   UNL     1       3.572  -5.540  -5.195  0.00  0.00    +0.160 A 
ATOM     19  C   UNL     1       3.262  -4.661  -4.173  0.00  0.00    +0.068 A 
ATOM     20  F   UNL     1       4.864  -5.790  -5.502  0.00  0.00    -0.202 F 
ATOM     21  F   UNL     1       2.862  -7.016  -6.909  0.00  0.00    -0.202 F 
ENDBRANCH  13  14
ENDBRANCH   1  13
TORSDOF 4
