REMARK  Name = ZINC33121106
REMARK  8 active torsions:
REMARK  status: ('A' for Active; 'I' for Inactive)
REMARK    1  A    between atoms: C_1  and  C_2
REMARK    2  A    between atoms: C_2  and  C_3
REMARK    3  A    between atoms: C_3  and  N_4
REMARK    4  A    between atoms: C_5  and  C_7
REMARK    5  A    between atoms: C_9  and  N_19
REMARK    6  A    between atoms: C_12  and  N_13
REMARK    7  A    between atoms: N_19  and  S_20
REMARK    8  A    between atoms: S_20  and  C_23
REMARK                            x       y       z     vdW  Elec       q    Type
REMARK                         _______ _______ _______ _____ _____    ______ ____
ROOT
ATOM      1  C   UNL     1       0.723  -2.042  -0.833  0.00  0.00    +0.059 A 
ATOM      2  C   UNL     1       0.164  -2.806   0.194  0.00  0.00    +0.039 A 
ATOM      3  C   UNL     1       0.198  -4.187   0.121  0.00  0.00    +0.049 A 
ATOM      4  C   UNL     1       0.786  -4.816  -0.971  0.00  0.00    +0.026 A 
ATOM      5  C   UNL     1       1.341  -4.070  -1.990  0.00  0.00    +0.026 A 
ATOM      6  C   UNL     1       1.311  -2.682  -1.934  0.00  0.00    +0.042 A 
ENDROOT
BRANCH   6   7
ATOM      7  N   UNL     1       1.866  -1.930  -2.965  0.00  0.00    -0.333 N 
ATOM      8  C   UNL     1       3.292  -2.239  -3.134  0.00  0.00    +0.086 C 
ATOM      9  C   UNL     1       3.882  -1.337  -4.220  0.00  0.00    -0.063 C 
ATOM     10  N   UNL     1       3.149  -1.544  -5.477  0.00  0.00    +0.381 N 
ATOM     11  C   UNL     1       1.723  -1.235  -5.308  0.00  0.00    -0.063 C 
ATOM     12  C   UNL     1       1.133  -2.137  -4.222  0.00  0.00    +0.086 C 
ATOM     13  H   UNL     1       3.564  -0.887  -6.255  0.00  0.00    -0.086 HD
ATOM     14  H   UNL     1       3.249  -2.594  -5.790  0.00  0.00    -0.086 HD
ENDBRANCH   6   7
BRANCH   1  16
ATOM     15  N   UNL     1       0.027   0.043   0.237  0.00  0.00    -0.311 N 
ATOM     16  C   UNL     1       0.691  -0.569  -0.763  0.00  0.00    +0.246 C 
ATOM     17  O   UNL     1       1.263   0.093  -1.608  0.00  0.00    -0.270 OA
ATOM     18  H   UNL     1      -0.490  -0.555   1.002  0.00  0.00    +0.149 HD
BRANCH  15  19
ATOM     19  C   UNL     1      -0.005   1.506   0.307  0.00  0.00    +0.104 C 
BRANCH  19  21
ATOM     20  C   UNL     1      -0.851   3.469   1.601  0.00  0.00    +0.005 C 
ATOM     21  C   UNL     1      -0.818   1.941   1.528  0.00  0.00    +0.015 C 
ENDBRANCH  19  21
ENDBRANCH  15  19
ENDBRANCH   1  16
BRANCH   3  22
ATOM     22  N   UNL     1      -0.362  -4.954   1.150  0.00  0.00    -0.216 N 
ATOM     23  H   UNL     1      -0.151  -4.704   2.200  0.00  0.00    +0.174 HD
BRANCH  22  24
ATOM     24  S   UNL     1      -1.343  -6.238   0.786  0.00  0.00    +0.079 S 
ATOM     25  O   UNL     1      -0.625  -7.050  -0.134  0.00  0.00    -0.149 OA
ATOM     26  O   UNL     1      -1.833  -6.739   2.022  0.00  0.00    -0.149 OA
BRANCH  24  27
ATOM     27  C   UNL     1      -2.735  -5.600  -0.086  0.00  0.00    +0.147 A 
ATOM     28  C   UNL     1      -2.866  -5.338  -1.409  0.00  0.00    +0.038 A 
ATOM     29  C   UNL     1      -4.065  -4.834  -1.877  0.00  0.00    +0.025 A 
ATOM     30  C   UNL     1      -5.074  -4.616  -0.997  0.00  0.00    +0.057 A 
ATOM     31  S   UNL     1      -4.340  -5.137   0.544  0.00  0.00    -0.061 S 
ATOM     32 BR   UNL     1      -6.812  -3.943  -1.321  0.00  0.00    -0.043 Br
ENDBRANCH  24  27
ENDBRANCH  22  24
ENDBRANCH   3  22
TORSDOF 7
