REMARK  Name = ZINC40986311
REMARK  8 active torsions:
REMARK  status: ('A' for Active; 'I' for Inactive)
REMARK    1  A    between atoms: C_4  and  C_7
REMARK    2  A    between atoms: C_7  and  S_8
REMARK    3  A    between atoms: S_8  and  C_11
REMARK    4  A    between atoms: C_14  and  C_18
REMARK    5  A    between atoms: N_20  and  C_21
REMARK    6  A    between atoms: C_21  and  C_22
REMARK    7  A    between atoms: C_22  and  C_24
REMARK    8  A    between atoms: C_22  and  N_31
REMARK                            x       y       z     vdW  Elec       q    Type
REMARK                         _______ _______ _______ _____ _____    ______ ____
ROOT
ATOM      1  C   UNL     1       9.857  -3.845   0.354  0.00  0.00    +0.248 C 
ATOM      2  O   UNL     1      10.969  -3.384   0.189  0.00  0.00    -0.270 OA
ATOM      3  N   UNL     1       9.706  -5.150   0.654  0.00  0.00    -0.312 N 
ATOM      4  H   UNL     1       8.819  -5.519   0.786  0.00  0.00    +0.149 HD
ENDROOT
BRANCH   1   8
ATOM      5  C   UNL     1       6.516  -1.397  -0.008  0.00  0.00    +0.272 A 
ATOM      6  N   UNL     1       6.346  -2.671   0.286  0.00  0.00    -0.219 NA
ATOM      7  C   UNL     1       7.380  -3.485   0.411  0.00  0.00    +0.130 A 
ATOM      8  C   UNL     1       8.670  -2.975   0.225  0.00  0.00    +0.092 A 
ATOM      9  C   UNL     1       8.803  -1.615  -0.087  0.00  0.00    +0.146 A 
ATOM     10  N   UNL     1       7.712  -0.875  -0.197  0.00  0.00    -0.199 NA
ATOM     11 CL   UNL     1      10.373  -0.915  -0.331  0.00  0.00    -0.061 Cl
BRANCH   5  12
ATOM     12  S   UNL     1       5.099  -0.361  -0.162  0.00  0.00    +0.036 S 
ATOM     13  O   UNL     1       5.573   0.946   0.133  0.00  0.00    -0.166 OA
ATOM     14  O   UNL     1       4.112  -0.975   0.655  0.00  0.00    -0.166 OA
BRANCH  12  15
ATOM     15  C   UNL     1       4.625  -0.475  -1.909  0.00  0.00    +0.210 C 
BRANCH  15  19
ATOM     16  C   UNL     1       1.182   1.952  -2.613  0.00  0.00    +0.000 A 
ATOM     17  C   UNL     1       2.447   2.491  -2.752  0.00  0.00    +0.000 A 
ATOM     18  C   UNL     1       3.562   1.706  -2.523  0.00  0.00    +0.005 A 
ATOM     19  C   UNL     1       3.410   0.381  -2.156  0.00  0.00    -0.026 A 
ATOM     20  C   UNL     1       2.145  -0.157  -2.018  0.00  0.00    +0.005 A 
ATOM     21  C   UNL     1       1.031   0.628  -2.247  0.00  0.00    +0.000 A 
ENDBRANCH  15  19
ENDBRANCH  12  15
ENDBRANCH   5  12
ENDBRANCH   1   8
BRANCH   3  22
ATOM     22  C   UNL     1      10.884  -6.013   0.782  0.00  0.00    +0.094 C 
BRANCH  22  23
ATOM     23  C   UNL     1      10.435  -7.460   0.998  0.00  0.00    -0.019 C 
BRANCH  23  24
ATOM     24  C   UNL     1       9.713  -7.570   2.316  0.00  0.00    -0.041 A 
ATOM     25  C   UNL     1       8.331  -7.593   2.348  0.00  0.00    +0.003 A 
ATOM     26  C   UNL     1       7.669  -7.695   3.556  0.00  0.00    +0.000 A 
ATOM     27  C   UNL     1       8.388  -7.773   4.735  0.00  0.00    +0.001 A 
ATOM     28  C   UNL     1       9.769  -7.750   4.704  0.00  0.00    +0.020 A 
ATOM     29  C   UNL     1      10.433  -7.654   3.494  0.00  0.00    +0.043 A 
ATOM     30 CL   UNL     1      12.168  -7.632   3.455  0.00  0.00    -0.083 Cl
ENDBRANCH  23  24
BRANCH  23  31
ATOM     31  N   UNL     1       9.532  -7.860  -0.090  0.00  0.00    +0.385 N 
ATOM     32  C   UNL     1      10.218  -7.724  -1.401  0.00  0.00    -0.078 C 
ATOM     33  C   UNL     1       9.410  -8.671  -2.323  0.00  0.00    -0.020 C 
ATOM     34  C   UNL     1       9.073  -9.858  -1.391  0.00  0.00    -0.020 C 
ATOM     35  C   UNL     1       9.184  -9.291   0.037  0.00  0.00    -0.078 C 
ATOM     36  H   UNL     1       8.696  -7.295  -0.074  0.00  0.00    -0.081 HD
ENDBRANCH  23  31
ENDBRANCH  22  23
ENDBRANCH   3  22
TORSDOF 8
