REMARK  Name = ZINC12559035
REMARK  7 active torsions:
REMARK  status: ('A' for Active; 'I' for Inactive)
REMARK    1  A    between atoms: C_4  and  C_7
REMARK    2  A    between atoms: N_9  and  C_10
REMARK    3  A    between atoms: C_10  and  C_19
REMARK    4  A    between atoms: C_11  and  C_12
REMARK    5  A    between atoms: N_21  and  C_22
REMARK    6  A    between atoms: C_22  and  C_23
REMARK    7  A    between atoms: C_23  and  C_24
REMARK                            x       y       z     vdW  Elec       q    Type
REMARK                         _______ _______ _______ _____ _____    ______ ____
ROOT
ATOM      1  C   UNL     1      -3.665   1.674   0.136  0.00  0.00    +0.097 C 
ATOM      2  C   UNL     1      -2.497   1.016  -0.050  0.00  0.00    +0.036 C 
ENDROOT
BRANCH   2   3
ATOM      3  C   UNL     1      -1.231   1.763  -0.092  0.00  0.00    -0.023 A 
ATOM      4  C   UNL     1      -0.106   1.206  -0.710  0.00  0.00    +0.009 A 
ATOM      5  C   UNL     1       1.075   1.914  -0.751  0.00  0.00    +0.020 A 
ATOM      6  C   UNL     1       1.153   3.173  -0.178  0.00  0.00    +0.041 A 
ATOM      7  C   UNL     1       0.045   3.729   0.441  0.00  0.00    +0.020 A 
ATOM      8  C   UNL     1      -1.143   3.032   0.490  0.00  0.00    +0.009 A 
ATOM      9 CL   UNL     1       2.645   4.058  -0.235  0.00  0.00    -0.084 Cl
ENDBRANCH   2   3
BRANCH   1  12
ATOM     10  C   UNL     1      -4.189   3.733   1.203  0.00  0.00    +0.248 C 
ATOM     11  O   UNL     1      -4.710   3.117   2.112  0.00  0.00    -0.270 OA
ATOM     12  N   UNL     1      -3.686   3.072   0.142  0.00  0.00    -0.277 N 
ATOM     13  H   UNL     1      -3.339   3.565  -0.618  0.00  0.00    +0.155 HD
BRANCH  10  17
ATOM     14  C   UNL     1      -3.954   7.971   1.369  0.00  0.00    +0.000 A 
ATOM     15  C   UNL     1      -4.447   7.266   2.452  0.00  0.00    +0.001 A 
ATOM     16  C   UNL     1      -4.526   5.889   2.405  0.00  0.00    +0.013 A 
ATOM     17  C   UNL     1      -4.108   5.208   1.260  0.00  0.00    +0.037 A 
ATOM     18  C   UNL     1      -3.607   5.926   0.173  0.00  0.00    +0.013 A 
ATOM     19  C   UNL     1      -3.538   7.302   0.231  0.00  0.00    +0.001 A 
ENDBRANCH  10  17
ENDBRANCH   1  12
BRANCH   1  20
ATOM     20  C   UNL     1      -4.911   0.919   0.331  0.00  0.00    +0.258 C 
ATOM     21  O   UNL     1      -5.961   1.510   0.498  0.00  0.00    -0.269 OA
ATOM     22  N   UNL     1      -4.890  -0.429   0.326  0.00  0.00    -0.310 N 
ATOM     23  H   UNL     1      -4.053  -0.900   0.192  0.00  0.00    +0.149 HD
BRANCH  22  24
ATOM     24  C   UNL     1      -6.132  -1.181   0.520  0.00  0.00    +0.109 C 
BRANCH  24  25
ATOM     25  C   UNL     1      -5.833  -2.681   0.470  0.00  0.00    +0.056 C 
BRANCH  25  26
ATOM     26  C   UNL     1      -7.110  -3.455   0.671  0.00  0.00    -0.021 A 
ATOM     27  C   UNL     1      -7.568  -3.953   1.830  0.00  0.00    +0.087 A 
ATOM     28  N   UNL     1      -8.760  -4.593   1.625  0.00  0.00    -0.360 N 
ATOM     29  H   UNL     1      -9.284  -5.030   2.314  0.00  0.00    +0.165 HD
ATOM     30  C   UNL     1      -9.102  -4.528   0.292  0.00  0.00    +0.047 A 
ATOM     31  C   UNL     1      -8.084  -3.812  -0.363  0.00  0.00    +0.003 A 
ATOM     32  C   UNL     1      -8.165  -3.588  -1.739  0.00  0.00    +0.010 A 
ATOM     33  C   UNL     1      -9.235  -4.065  -2.442  0.00  0.00    +0.001 A 
ATOM     34  C   UNL     1     -10.242  -4.772  -1.800  0.00  0.00    +0.002 A 
ATOM     35  C   UNL     1     -10.182  -5.005  -0.443  0.00  0.00    +0.026 A 
ENDBRANCH  25  26
ENDBRANCH  24  25
ENDBRANCH  22  24
ENDBRANCH   1  20
TORSDOF 7
