REMARK  Name = ZINC40426482
REMARK  12 active torsions:
REMARK  status: ('A' for Active; 'I' for Inactive)
REMARK    1  A    between atoms: C_1  and  C_2
REMARK    2  A    between atoms: C_2  and  C_3
REMARK    3  A    between atoms: C_2  and  C_4
REMARK    4  A    between atoms: C_4  and  C_5
REMARK    5  A    between atoms: C_5  and  C_7
REMARK    6  A    between atoms: C_5  and  N_18
REMARK    7  A    between atoms: N_9  and  C_10
REMARK    8  A    between atoms: N_9  and  C_11
REMARK    9  A    between atoms: N_14  and  C_17
REMARK   10  A    between atoms: C_24  and  C_31
REMARK   11  A    between atoms: N_29  and  C_30
REMARK   12  A    between atoms: C_36  and  C_37
REMARK                            x       y       z     vdW  Elec       q    Type
REMARK                         _______ _______ _______ _____ _____    ______ ____
ROOT
ATOM      1  N   UNL     1      -2.301  -0.551  -3.302  0.00  0.00    -0.281 N 
ATOM      2  C   UNL     1      -1.521   0.589  -3.806  0.00  0.00    +0.160 C 
ATOM      3  C   UNL     1      -1.014   0.145  -5.159  0.00  0.00    +0.042 C 
ATOM      4  C   UNL     1      -1.481  -1.105  -5.349  0.00  0.00    +0.058 C 
ATOM      5  C   UNL     1      -2.244  -1.517  -4.237  0.00  0.00    +0.247 C 
ATOM      6  O   UNL     1      -2.782  -2.604  -4.136  0.00  0.00    -0.270 OA
ATOM      7  C   UNL     1      -1.121  -1.804  -6.644  0.00  0.00    +0.142 C 
ATOM      8  N   UNL     1      -0.283  -1.053  -7.596  0.00  0.00    -0.288 N 
ATOM      9  C   UNL     1       0.107   0.193  -7.263  0.00  0.00    +0.307 C 
ATOM     10  O   UNL     1       0.798   0.821  -8.042  0.00  0.00    -0.252 OA
ATOM     11  N   UNL     1      -0.241   0.763  -6.102  0.00  0.00    -0.260 N 
ATOM     12  C   UNL     1       0.231   2.122  -5.828  0.00  0.00    +0.139 C 
ATOM     13  H   UNL     1      -0.019  -1.447  -8.442  0.00  0.00    +0.151 HD
ENDROOT
BRANCH   7  14
ATOM     14  C   UNL     1      -0.399  -3.080  -6.298  0.00  0.00    -0.011 A 
ATOM     15  C   UNL     1       0.881  -3.032  -5.778  0.00  0.00    +0.006 A 
ATOM     16  C   UNL     1       1.542  -4.204  -5.461  0.00  0.00    +0.000 A 
ATOM     17  C   UNL     1       0.924  -5.423  -5.664  0.00  0.00    +0.001 A 
ATOM     18  C   UNL     1      -0.355  -5.472  -6.184  0.00  0.00    +0.013 A 
ATOM     19  C   UNL     1      -1.019  -4.300  -6.497  0.00  0.00    +0.060 A 
BRANCH  19  20
ATOM     20  C   UNL     1      -2.416  -4.352  -7.059  0.00  0.00    +0.418 C 
ATOM     21  F   UNL     1      -2.821  -5.686  -7.178  0.00  0.00    -0.166 F 
ATOM     22  F   UNL     1      -3.289  -3.674  -6.201  0.00  0.00    -0.166 F 
ATOM     23  F   UNL     1      -2.436  -3.745  -8.319  0.00  0.00    -0.166 F 
ENDBRANCH  19  20
ENDBRANCH   7  14
BRANCH   1  24
ATOM     24  C   UNL     1      -3.004  -0.624  -2.019  0.00  0.00    +0.163 C 
BRANCH  24  25
ATOM     25  C   UNL     1      -4.473  -0.856  -2.264  0.00  0.00    +0.236 C 
ATOM     26  O   UNL     1      -4.845  -1.328  -3.317  0.00  0.00    -0.274 OA
ATOM     27  N   UNL     1      -5.373  -0.537  -1.312  0.00  0.00    -0.300 N 
ATOM     28  C   UNL     1      -6.786  -0.878  -1.497  0.00  0.00    +0.132 C 
BRANCH  27  29
ATOM     29  C   UNL     1      -4.939   0.150  -0.093  0.00  0.00    +0.072 C 
ATOM     30  C   UNL     1      -5.402  -0.641   1.133  0.00  0.00    +0.004 C 
ATOM     31  C   UNL     1      -5.015   0.121   2.402  0.00  0.00    -0.077 C 
ATOM     32  N   UNL     1      -5.656   1.442   2.398  0.00  0.00    +0.378 N 
ATOM     33  C   UNL     1      -5.162   2.232   1.265  0.00  0.00    -0.077 C 
ATOM     34  C   UNL     1      -5.555   1.551  -0.048  0.00  0.00    +0.004 C 
ATOM     35  C   UNL     1      -5.344   2.139   3.653  0.00  0.00    -0.096 C 
ATOM     36  H   UNL     1      -6.655   1.329   2.318  0.00  0.00    -0.082 HD
ENDBRANCH  27  29
ENDBRANCH  24  25
BRANCH  24  37
ATOM     37  C   UNL     1      -2.437  -1.779  -1.191  0.00  0.00    +0.035 C 
BRANCH  37  39
ATOM     38  C   UNL     1      -0.925  -0.258   0.090  0.00  0.00    +0.007 C 
ATOM     39  C   UNL     1      -0.981  -1.480  -0.829  0.00  0.00    -0.015 C 
ATOM     40  C   UNL     1      -0.376  -2.687  -0.109  0.00  0.00    +0.007 C 
ENDBRANCH  37  39
ENDBRANCH  24  37
ENDBRANCH   1  24
TORSDOF 7
