REMARK  Name = ZINC06546839
REMARK  13 active torsions:
REMARK  status: ('A' for Active; 'I' for Inactive)
REMARK    1  A    between atoms: C_1  and  C_2
REMARK    2  A    between atoms: C_2  and  O_3
REMARK    3  A    between atoms: O_3  and  C_4
REMARK    4  A    between atoms: C_4  and  C_6
REMARK    5  A    between atoms: C_6  and  N_7
REMARK    6  A    between atoms: C_8  and  C_10
REMARK    7  A    between atoms: C_10  and  C_12
REMARK    8  A    between atoms: C_10  and  N_17
REMARK    9  A    between atoms: N_17  and  C_18
REMARK   10  A    between atoms: C_18  and  C_19
REMARK   11  A    between atoms: C_25  and  C_27
REMARK   12  A    between atoms: C_28  and  N_35
REMARK   13  A    between atoms: C_29  and  C_32
REMARK                            x       y       z     vdW  Elec       q    Type
REMARK                         _______ _______ _______ _____ _____    ______ ____
ROOT
ATOM      1  N   UNL     1      -0.531   2.507  -0.524  0.00  0.00    -0.277 N 
ATOM      2  C   UNL     1       0.565   3.291  -0.556  0.00  0.00    +0.258 C 
ATOM      3  O   UNL     1       1.631   2.863  -0.156  0.00  0.00    -0.269 OA
ENDROOT
BRANCH   2   4
ATOM      4  C   UNL     1       0.473   4.656  -1.079  0.00  0.00    +0.115 A 
ATOM      5  C   UNL     1       1.484   5.598  -1.275  0.00  0.00    +0.076 A 
ATOM      6  C   UNL     1       1.002   6.798  -1.797  0.00  0.00    +0.155 A 
ATOM      7  N   UNL     1      -0.284   6.923  -2.040  0.00  0.00    -0.203 NA
ATOM      8  S   UNL     1      -0.957   5.555  -1.641  0.00  0.00    +0.019 S 
BRANCH   6   9
ATOM      9  C   UNL     1       1.925   7.915  -2.071  0.00  0.00    +0.262 C 
ATOM     10  O   UNL     1       3.113   7.793  -1.843  0.00  0.00    -0.269 OA
ATOM     11  N   UNL     1       1.451   9.072  -2.575  0.00  0.00    -0.324 N 
ATOM     12  H   UNL     1       0.503   9.170  -2.757  0.00  0.00    +0.145 HD
ATOM     13  H   UNL     1       2.058   9.807  -2.756  0.00  0.00    +0.145 HD
ENDBRANCH   6   9
BRANCH   5  14
ATOM     14  N   UNL     1       2.822   5.365  -0.985  0.00  0.00    -0.355 N 
ATOM     15  H   UNL     1       3.098   4.508  -0.623  0.00  0.00    +0.142 HD
ATOM     16  H   UNL     1       3.481   6.060  -1.143  0.00  0.00    +0.142 HD
ENDBRANCH   5  14
ENDBRANCH   2   4
BRANCH   1  17
ATOM     17  C   UNL     1      -0.472   1.192   0.119  0.00  0.00    +0.199 C 
BRANCH  17  18
ATOM     18  C   UNL     1      -0.642   0.116  -0.923  0.00  0.00    +0.019 A 
ATOM     19  C   UNL     1       0.029  -1.055  -1.058  0.00  0.00    +0.013 A 
ATOM     20  C   UNL     1      -0.302  -1.900  -2.100  0.00  0.00    +0.008 A 
ATOM     21  C   UNL     1      -1.280  -1.529  -2.962  0.00  0.00    +0.045 A 
ATOM     22  S   UNL     1      -1.773   0.055  -2.302  0.00  0.00    -0.099 S 
ENDBRANCH  17  18
BRANCH  17  24
ATOM     23  N   UNL     1      -2.020  -0.132   1.522  0.00  0.00    -0.303 N 
ATOM     24  C   UNL     1      -1.575   1.081   1.140  0.00  0.00    +0.239 C 
ATOM     25  O   UNL     1      -2.062   2.084   1.617  0.00  0.00    -0.273 OA
ATOM     26  H   UNL     1      -1.631  -0.934   1.140  0.00  0.00    +0.149 HD
BRANCH  23  27
ATOM     27  C   UNL     1      -3.093  -0.239   2.514  0.00  0.00    +0.225 C 
BRANCH  27  28
ATOM     28  C   UNL     1      -3.402  -1.693   2.764  0.00  0.00    +0.324 C 
ATOM     29  O   UNL     1      -2.790  -2.551   2.174  0.00  0.00    -0.249 OA
BRANCH  28  30
ATOM     30  O   UNL     1      -4.358  -2.034   3.642  0.00  0.00    -0.464 OA
BRANCH  30  32
ATOM     31  C   UNL     1      -5.718  -3.645   4.862  0.00  0.00    +0.048 C 
ATOM     32  C   UNL     1      -4.603  -3.453   3.832  0.00  0.00    +0.229 C 
ENDBRANCH  30  32
ENDBRANCH  28  30
ENDBRANCH  27  28
ENDBRANCH  23  27
ENDBRANCH  17  24
ENDBRANCH   1  17
BRANCH   1  33
ATOM     33  C   UNL     1      -1.781   2.970  -1.131  0.00  0.00    +0.144 C 
BRANCH  33  34
ATOM     34  C   UNL     1      -2.577   3.746  -0.113  0.00  0.00    -0.030 A 
ATOM     35  C   UNL     1      -3.931   3.511   0.031  0.00  0.00    +0.005 A 
ATOM     36  C   UNL     1      -4.660   4.219   0.969  0.00  0.00    +0.000 A 
ATOM     37  C   UNL     1      -4.036   5.170   1.754  0.00  0.00    +0.000 A 
ATOM     38  C   UNL     1      -2.683   5.410   1.606  0.00  0.00    +0.000 A 
ATOM     39  C   UNL     1      -1.953   4.697   0.672  0.00  0.00    +0.005 A 
ENDBRANCH  33  34
ENDBRANCH   1  33
TORSDOF 12
