REMARK  Name = ZINC43686882
REMARK  8 active torsions:
REMARK  status: ('A' for Active; 'I' for Inactive)
REMARK    1  A    between atoms: CD1_1  and  CG_2
REMARK    2  A    between atoms: CG_2  and  CD2_3
REMARK    3  A    between atoms: CG_2  and  CB_4
REMARK    4  A    between atoms: CB_4  and  CA_5
REMARK    5  A    between atoms: CA_5  and  C_7
REMARK    6  A    between atoms: CA_5  and  N_10
REMARK    7  A    between atoms: N_13  and  C_14
REMARK    8  A    between atoms: C_14  and  C_15
REMARK                            x       y       z     vdW  Elec       q    Type
REMARK                         _______ _______ _______ _____ _____    ______ ____
ROOT
ATOM      1  N   LEU A   1      -0.290   1.103   2.662  0.00  0.00    -0.286 N 
ATOM      2  C   UNK A   0      -1.344   1.602   3.339  0.00  0.00    +0.301 C 
ATOM      3  O   UNK A   0      -2.187   0.852   3.791  0.00  0.00    -0.253 OA
ATOM      4  N   UNK A   0      -1.463   2.933   3.514  0.00  0.00    -0.295 N 
ATOM      5  H   LEU A   1       0.382   1.702   2.302  0.00  0.00    +0.151 HD
ATOM      6  H   UNK A   0      -0.790   3.532   3.153  0.00  0.00    +0.151 HD
ENDROOT
BRANCH   1   7
ATOM      7  CA  LEU A   1      -0.161  -0.344   2.472  0.00  0.00    +0.188 C 
BRANCH   7   8
ATOM      8  C   LEU A   1       0.510  -0.951   3.677  0.00  0.00    +0.376 C 
ATOM      9  O   LEU A   1       1.311  -0.297   4.324  0.00  0.00    -0.244 OA
ATOM     10  OXT LEU A   1       0.251  -2.096   4.006  0.00  0.00    -0.244 OA
ENDBRANCH   7   8
BRANCH   7  11
ATOM     11  CB  LEU A   1       0.683  -0.621   1.226  0.00  0.00    +0.037 C 
BRANCH  11  13
ATOM     12  CD1 LEU A   1       0.855  -0.243  -1.238  0.00  0.00    +0.007 C 
ATOM     13  CG  LEU A   1      -0.046  -0.092  -0.011  0.00  0.00    -0.015 C 
ATOM     14  CD2 LEU A   1      -1.335  -0.888  -0.224  0.00  0.00    +0.007 C 
ENDBRANCH  11  13
ENDBRANCH   7  11
ENDBRANCH   1   7
BRANCH   4  15
ATOM     15  C   UNK A   0      -2.608   3.475   4.249  0.00  0.00    +0.148 C 
BRANCH  15  16
ATOM     16  C   UNK A   0      -2.504   4.978   4.303  0.00  0.00    +0.008 A 
ATOM     17  C   UNK A   0      -2.994   5.899   3.438  0.00  0.00    +0.028 A 
ATOM     18  C   UNK A   0      -2.776   7.240   3.691  0.00  0.00    +0.025 A 
ATOM     19  C   UNK A   0      -2.077   7.595   4.798  0.00  0.00    +0.060 A 
ATOM     20  S   UNK A   0      -1.711   6.007   5.527  0.00  0.00    -0.099 S 
ATOM     21 BR   UNK A   0      -3.440   8.561   2.511  0.00  0.00    -0.050 Br
ENDBRANCH  15  16
ENDBRANCH   4  15
TORSDOF 6
