REMARK  Name = ZINC08685262
REMARK  18 active torsions:
REMARK  status: ('A' for Active; 'I' for Inactive)
REMARK    1  A    between atoms: C_1  and  C_2
REMARK    2  A    between atoms: C_2  and  C_3
REMARK    3  A    between atoms: C_2  and  C_4
REMARK    4  A    between atoms: C_2  and  C_5
REMARK    5  A    between atoms: C_8  and  O_11
REMARK    6  A    between atoms: O_11  and  C_12
REMARK    7  A    between atoms: C_12  and  C_13
REMARK    8  A    between atoms: C_13  and  C_15
REMARK    9  A    between atoms: C_13  and  O_34
REMARK   10  A    between atoms: C_15  and  N_16
REMARK   11  A    between atoms: N_16  and  C_17
REMARK   12  A    between atoms: N_16  and  C_20
REMARK   13  A    between atoms: C_17  and  C_18
REMARK   14  A    between atoms: C_18  and  O_19
REMARK   15  A    between atoms: C_20  and  C_21
REMARK   16  A    between atoms: C_21  and  C_23
REMARK   17  A    between atoms: C_21  and  O_33
REMARK   18  A    between atoms: C_23  and  N_24
REMARK                            x       y       z     vdW  Elec       q    Type
REMARK                         _______ _______ _______ _____ _____    ______ ____
ROOT
ATOM      1  N   UNL     1       6.612  -2.197  -7.878  0.00  0.00    +0.385 N 
ATOM      2  H   UNL     1       6.790  -3.169  -8.082  0.00  0.00    -0.082 HD
ENDROOT
BRANCH   1   3
ATOM      3  C   UNL     1       5.926  -2.085  -6.584  0.00  0.00    -0.044 C 
BRANCH   3   4
ATOM      4  C   UNL     1       4.628  -2.894  -6.622  0.00  0.00    +0.135 C 
BRANCH   4   5
ATOM      5  O   UNL     1       4.937  -4.282  -6.768  0.00  0.00    -0.390 OA
ATOM      6  H   UNL     1       5.477  -4.642  -6.051  0.00  0.00    +0.210 HD
ENDBRANCH   4   5
BRANCH   4   7
ATOM      7  C   UNL     1       3.853  -2.678  -5.321  0.00  0.00    +0.258 C 
BRANCH   7   8
ATOM      8  O   UNL     1       2.590  -3.340  -5.403  0.00  0.00    -0.489 OA
BRANCH   8  12
ATOM      9  C   UNL     1       0.109  -3.055  -2.120  0.00  0.00    -0.042 A 
ATOM     10  C   UNL     1      -0.299  -3.767  -3.233  0.00  0.00    +0.008 A 
ATOM     11  C   UNL     1       0.530  -3.864  -4.333  0.00  0.00    +0.046 A 
ATOM     12  C   UNL     1       1.772  -3.245  -4.322  0.00  0.00    +0.121 A 
ATOM     13  C   UNL     1       2.178  -2.531  -3.204  0.00  0.00    +0.046 A 
ATOM     14  C   UNL     1       1.344  -2.433  -2.108  0.00  0.00    +0.008 A 
BRANCH   9  16
ATOM     15  C   UNL     1      -1.126  -1.480  -0.654  0.00  0.00    +0.015 C 
ATOM     16  C   UNL     1      -0.797  -2.951  -0.920  0.00  0.00    -0.013 C 
ATOM     17  C   UNL     1      -0.095  -3.546   0.302  0.00  0.00    +0.015 C 
ATOM     18  C   UNL     1      -2.091  -3.722  -1.190  0.00  0.00    +0.015 C 
ENDBRANCH   9  16
ENDBRANCH   8  12
ENDBRANCH   7   8
ENDBRANCH   4   7
ENDBRANCH   3   4
ENDBRANCH   1   3
BRANCH   1  19
ATOM     19  C   UNL     1       5.764  -1.624  -8.932  0.00  0.00    -0.050 C 
BRANCH  19  20
ATOM     20  C   UNL     1       6.447  -1.803 -10.290  0.00  0.00    +0.137 C 
BRANCH  20  21
ATOM     21  O   UNL     1       6.540  -3.195 -10.597  0.00  0.00    -0.397 OA
ATOM     22  H   UNL     1       6.964  -3.384 -11.445  0.00  0.00    +0.209 HD
ENDBRANCH  20  21
ENDBRANCH  19  20
ENDBRANCH   1  19
BRANCH   1  23
ATOM     23  C   UNL     1       7.885  -1.467  -7.823  0.00  0.00    -0.045 C 
BRANCH  23  24
ATOM     24  C   UNL     1       8.843  -2.184  -6.869  0.00  0.00    +0.118 C 
BRANCH  24  25
ATOM     25  O   UNL     1       8.384  -2.023  -5.525  0.00  0.00    -0.392 OA
ATOM     26  H   UNL     1       8.329  -1.103  -5.235  0.00  0.00    +0.210 HD
ENDBRANCH  24  25
BRANCH  24  27
ATOM     27  C   UNL     1      10.243  -1.583  -7.005  0.00  0.00    +0.151 C 
BRANCH  27  28
ATOM     28  N   UNL     1      11.184  -2.346  -6.181  0.00  0.00    -0.344 N 
ATOM     29  C   UNL     1      11.551  -2.023  -4.903  0.00  0.00    +0.087 A 
ATOM     30  C   UNL     1      12.427  -2.927  -4.436  0.00  0.00    +0.027 A 
ATOM     31  C   UNL     1      12.638  -3.909  -5.502  0.00  0.00    -0.000 A 
ATOM     32  C   UNL     1      11.827  -3.498  -6.576  0.00  0.00    +0.049 A 
ATOM     33  C   UNL     1      11.813  -4.249  -7.746  0.00  0.00    +0.026 A 
ATOM     34  C   UNL     1      12.588  -5.385  -7.840  0.00  0.00    +0.002 A 
ATOM     35  C   UNL     1      13.383  -5.788  -6.776  0.00  0.00    +0.001 A 
ATOM     36  C   UNL     1      13.419  -5.060  -5.620  0.00  0.00    +0.010 A 
ENDBRANCH  27  28
ENDBRANCH  24  27
ENDBRANCH  23  24
ENDBRANCH   1  23
TORSDOF 15
