REMARK  Name = ZINC09013940
REMARK  4 active torsions:
REMARK  status: ('A' for Active; 'I' for Inactive)
REMARK    1  A    between atoms: C_1  and  C_2
REMARK    2  A    between atoms: C_5  and  N_9
REMARK    3  A    between atoms: C_27  and  C_34
REMARK    4  A    between atoms: C_28  and  C_33
REMARK                            x       y       z     vdW  Elec       q    Type
REMARK                         _______ _______ _______ _____ _____    ______ ____
ROOT
ATOM      1  N   UNL     1      -0.319   1.724   0.030  0.00  0.00    -0.209 N 
ATOM      2  C   UNL     1       0.928   1.120   0.094  0.00  0.00    +0.228 C 
ATOM      3  O   UNL     1       1.152  -0.071   0.123  0.00  0.00    -0.275 OA
ATOM      4  C   UNL     1       1.918   2.187   0.114  0.00  0.00    +0.074 C 
ATOM      5  C   UNL     1       3.332   2.462  -0.105  0.00  0.00    -0.054 C 
ATOM      6  C   UNL     1       4.187   1.945   1.005  0.00  0.00    -0.016 C 
ATOM      7  C   UNL     1       4.842   3.213   1.649  0.00  0.00    -0.020 C 
ATOM      8  C   UNL     1       3.809   4.354   1.167  0.00  0.00    -0.076 C 
ATOM      9  C   UNL     1       2.056   4.487  -0.504  0.00  0.00    +0.053 C 
ATOM     10  C   UNL     1       1.279   3.215  -0.842  0.00  0.00    +0.089 C 
ATOM     11  C   UNL     1      -0.151   3.068  -0.255  0.00  0.00    +0.229 C 
ATOM     12  O   UNL     1      -0.961   3.954  -0.085  0.00  0.00    -0.275 OA
ATOM     13  C   UNL     1       1.399   5.282   0.627  0.00  0.00    -0.027 A 
ATOM     14  C   UNL     1       0.992   4.978   1.903  0.00  0.00    +0.005 A 
ATOM     15  C   UNL     1       0.372   5.952   2.664  0.00  0.00    +0.004 A 
ATOM     16  C   UNL     1       0.231   7.162   2.106  0.00  0.00    -0.046 A 
ATOM     17  C   UNL     1       0.552   7.495   0.839  0.00  0.00    -0.026 A 
ATOM     18  C   UNL     1       1.221   6.537   0.116  0.00  0.00    +0.039 A 
ATOM     19  N   UNL     1       1.647   6.526  -1.208  0.00  0.00    -0.286 N 
ATOM     20  C   UNL     1       2.187   5.403  -1.718  0.00  0.00    +0.212 C 
ATOM     21  O   UNL     1       2.644   5.184  -2.820  0.00  0.00    -0.277 OA
ATOM     22  C   UNL     1       0.199   8.838   0.252  0.00  0.00    +0.046 C 
ATOM     23  C   UNL     1      -0.342   8.253   2.974  0.00  0.00    +0.044 C 
ATOM     24  H   UNL     1       1.557   7.320  -1.758  0.00  0.00    +0.155 HD
ATOM     25  N   UNL     1       3.387   3.906  -0.150  0.00  0.00    +0.395 N 
ATOM     26  H   UNL     1       4.075   4.202  -0.852  0.00  0.00    -0.079 HD
ENDROOT
BRANCH   1  31
ATOM     27  C   UNL     1      -5.296  -0.889   0.818  0.00  0.00    +0.044 C 
ATOM     28  C   UNL     1      -3.975  -0.195   0.608  0.00  0.00    -0.049 A 
ATOM     29  C   UNL     1      -3.312   0.366   1.684  0.00  0.00    +0.005 A 
ATOM     30  C   UNL     1      -2.099   0.998   1.496  0.00  0.00    +0.025 A 
ATOM     31  C   UNL     1      -1.549   1.079   0.224  0.00  0.00    +0.058 A 
ATOM     32  C   UNL     1      -2.217   0.514  -0.855  0.00  0.00    +0.040 A 
ATOM     33  C   UNL     1      -3.429  -0.122  -0.659  0.00  0.00    +0.020 A 
ATOM     34 BR   UNL     1      -1.469   0.614  -2.589  0.00  0.00    -0.048 Br
ENDBRANCH   1  31
TORSDOF 1
