REMARK  Name = ZINC25758797
REMARK  13 active torsions:
REMARK  status: ('A' for Active; 'I' for Inactive)
REMARK    1  A    between atoms: C_1  and  C_2
REMARK    2  A    between atoms: C_2  and  C_3
REMARK    3  A    between atoms: C_3  and  C_4
REMARK    4  A    between atoms: C_4  and  C_6
REMARK    5  A    between atoms: C_4  and  N_22
REMARK    6  A    between atoms: N_8  and  C_9
REMARK    7  A    between atoms: C_12  and  N_15
REMARK    8  A    between atoms: C_16  and  C_18
REMARK    9  A    between atoms: C_18  and  C_19
REMARK   10  A    between atoms: C_19  and  C_20
REMARK   11  A    between atoms: C_19  and  C_21
REMARK   12  A    between atoms: N_25  and  C_26
REMARK   13  A    between atoms: C_26  and  C_27
REMARK                            x       y       z     vdW  Elec       q    Type
REMARK                         _______ _______ _______ _____ _____    ______ ____
ROOT
ATOM      1  C   UNL     1      -5.808   5.812   0.857  0.00  0.00    +0.161 C 
ENDROOT
BRANCH   1   2
ATOM      2  N   UNL     1      -5.589   7.260   0.887  0.00  0.00    -0.288 N 
ATOM      3  C   UNL     1      -6.505   8.068   1.458  0.00  0.00    +0.300 C 
ATOM      4  O   UNL     1      -7.513   7.595   1.946  0.00  0.00    -0.253 OA
ATOM      5  N   UNL     1      -6.304   9.401   1.486  0.00  0.00    -0.295 N 
ATOM      6  H   UNL     1      -4.678   7.689   0.445  0.00  0.00    +0.151 HD
ATOM      7  H   UNL     1      -5.392   9.829   1.044  0.00  0.00    +0.151 HD
BRANCH   5   8
ATOM      8  C   UNL     1      -7.300  10.279   2.105  0.00  0.00    +0.141 C 
BRANCH   8   9
ATOM      9  C   UNL     1      -6.838  11.710   2.005  0.00  0.00    -0.030 A 
ATOM     10  C   UNL     1      -6.071  12.261   3.014  0.00  0.00    +0.008 A 
ATOM     11  C   UNL     1      -5.644  13.572   2.921  0.00  0.00    +0.038 A 
ATOM     12  C   UNL     1      -5.993  14.337   1.822  0.00  0.00    +0.123 A 
ATOM     13  C   UNL     1      -6.766  13.786   0.814  0.00  0.00    +0.038 A 
ATOM     14  C   UNL     1      -7.188  12.473   0.906  0.00  0.00    +0.008 A 
ATOM     15  F   UNL     1      -5.580  15.620   1.732  0.00  0.00    -0.205 F 
ENDBRANCH   8   9
ENDBRANCH   5   8
ENDBRANCH   1   2
BRANCH   1  16
ATOM     16  C   UNL     1      -4.480   5.106   0.761  0.00  0.00    +0.238 C 
ATOM     17  O   UNL     1      -3.452   5.748   0.722  0.00  0.00    -0.273 OA
ATOM     18  N   UNL     1      -4.435   3.759   0.719  0.00  0.00    -0.284 N 
ATOM     19  H   UNL     1      -5.359   3.174   0.830  0.00  0.00    +0.155 HD
BRANCH  18  20
ATOM     20  C   UNL     1      -3.210   3.105   0.532  0.00  0.00    +0.034 A 
ATOM     21  C   UNL     1      -3.156   1.930  -0.205  0.00  0.00    +0.025 A 
ATOM     22  C   UNL     1      -1.950   1.285  -0.389  0.00  0.00    +0.025 A 
ATOM     23  C   UNL     1      -0.790   1.812   0.163  0.00  0.00    +0.033 A 
ATOM     24  C   UNL     1      -0.845   2.985   0.905  0.00  0.00    +0.025 A 
ATOM     25  C   UNL     1      -2.050   3.632   1.085  0.00  0.00    +0.025 A 
BRANCH  23  26
ATOM     26  N   UNL     1       0.435   1.158  -0.024  0.00  0.00    -0.285 N 
ATOM     27  C   UNL     1       0.690   0.523  -1.185  0.00  0.00    +0.217 C 
ATOM     28  O   UNL     1      -0.170   0.450  -2.037  0.00  0.00    -0.275 OA
ATOM     29  H   UNL     1       1.189   1.163   0.777  0.00  0.00    +0.155 HD
BRANCH  27  30
ATOM     30  C   UNL     1       2.042  -0.097  -1.424  0.00  0.00    +0.099 C 
BRANCH  30  31
ATOM     31  C   UNL     1       2.067  -0.749  -2.808  0.00  0.00    -0.008 C 
ATOM     32  C   UNL     1       3.476  -1.268  -3.101  0.00  0.00    +0.008 C 
ATOM     33  C   UNL     1       1.077  -1.915  -2.840  0.00  0.00    +0.008 C 
ENDBRANCH  30  31
ENDBRANCH  27  30
ENDBRANCH  23  26
ENDBRANCH  18  20
ENDBRANCH   1  16
BRANCH   1  34
ATOM     34  C   UNL     1      -6.666   5.452  -0.357  0.00  0.00    +0.031 C 
BRANCH  34  36
ATOM     35  C   UNL     1      -8.916   5.707  -1.413  0.00  0.00    +0.004 C 
ATOM     36  C   UNL     1      -8.058   6.068  -0.199  0.00  0.00    -0.001 C 
ENDBRANCH  34  36
ENDBRANCH   1  34
TORSDOF 10
