REMARK  Name = ZINC63514838
REMARK  12 active torsions:
REMARK  status: ('A' for Active; 'I' for Inactive)
REMARK    1  A    between atoms: C_1  and  C_2
REMARK    2  A    between atoms: C_4  and  C_35
REMARK    3  A    between atoms: C_9  and  C_14
REMARK    4  A    between atoms: C_11  and  N_13
REMARK    5  A    between atoms: N_16  and  C_17
REMARK    6  A    between atoms: C_17  and  C_18
REMARK    7  A    between atoms: C_18  and  C_19
REMARK    8  A    between atoms: C_22  and  O_30
REMARK    9  A    between atoms: C_27  and  C_29
REMARK   10  A    between atoms: O_30  and  C_31
REMARK   11  A    between atoms: C_35  and  O_36
REMARK   12  A    between atoms: O_36  and  C_37
REMARK                            x       y       z     vdW  Elec       q    Type
REMARK                         _______ _______ _______ _____ _____    ______ ____
ROOT
ATOM      1  C   UNL     1       0.342  -5.955   2.210  0.00  0.00    +0.228 C 
ATOM      2  O   UNL     1      -0.684  -6.429   1.771  0.00  0.00    -0.275 OA
ATOM      3  N   UNL     1       1.021  -6.600   3.179  0.00  0.00    -0.314 N 
ATOM      4  H   UNL     1       1.842  -6.222   3.530  0.00  0.00    +0.149 HD
ENDROOT
BRANCH   1  13
ATOM      5  C   UNL     1       4.963   0.139   2.712  0.00  0.00    +0.065 C 
ATOM      6  C   UNL     1       3.751  -0.756   2.686  0.00  0.00    +0.040 A 
ATOM      7  C   UNL     1       2.514  -0.256   3.042  0.00  0.00    +0.029 A 
ATOM      8  C   UNL     1       1.405  -1.081   3.026  0.00  0.00    -0.013 A 
ATOM      9  C   UNL     1       1.549  -2.418   2.645  0.00  0.00    +0.008 A 
ATOM     10  C   UNL     1       2.832  -2.832   2.287  0.00  0.00    +0.103 A 
ATOM     11  N   UNL     1       3.869  -2.019   2.318  0.00  0.00    -0.245 NA
ATOM     12  S   UNL     1       2.691  -4.541   1.807  0.00  0.00    -0.091 S 
ATOM     13  C   UNL     1       0.859  -4.646   1.672  0.00  0.00    +0.160 C 
ATOM     14  C   UNL     1       0.465  -3.465   2.588  0.00  0.00    +0.106 C 
BRANCH  14  15
ATOM     15  N   UNL     1       0.217  -3.972   3.944  0.00  0.00    -0.322 NA
ATOM     16  H   UNL     1       0.029  -3.215   4.584  0.00  0.00    +0.119 HD
ATOM     17  H   UNL     1      -0.536  -4.643   3.947  0.00  0.00    +0.119 HD
ENDBRANCH  14  15
BRANCH   8  18
ATOM     18  C   UNL     1       0.052  -0.544   3.418  0.00  0.00    +0.195 C 
BRANCH  18  19
ATOM     19  O   UNL     1       0.170   0.837   3.763  0.00  0.00    -0.378 OA
ATOM     20  C   UNL     1      -1.062   1.446   4.152  0.00  0.00    +0.194 C 
ENDBRANCH  18  19
ENDBRANCH   8  18
ENDBRANCH   1  13
BRANCH   3  21
ATOM     21  C   UNL     1       0.519  -7.873   3.702  0.00  0.00    +0.108 C 
BRANCH  21  22
ATOM     22  C   UNL     1       1.469  -8.390   4.785  0.00  0.00    +0.052 C 
BRANCH  22  23
ATOM     23  C   UNL     1       0.953  -9.700   5.323  0.00  0.00    -0.037 C 
ATOM     24  C   UNL     1      -0.165 -10.354   4.934  0.00  0.00    +0.003 A 
ATOM     25  C   UNL     1      -1.197 -10.055   3.935  0.00  0.00    +0.056 A 
ATOM     26  C   UNL     1      -2.227 -10.917   3.762  0.00  0.00    +0.131 A 
ATOM     27  C   UNL     1      -2.350 -12.101   4.511  0.00  0.00    +0.048 A 
ATOM     28  C   UNL     1      -1.452 -12.461   5.453  0.00  0.00    +0.029 A 
ATOM     29  C   UNL     1      -0.296 -11.601   5.723  0.00  0.00    +0.043 A 
ATOM     30  N   UNL     1       0.702 -11.713   6.564  0.00  0.00    -0.378 N 
ATOM     31  C   UNL     1       1.583 -10.551   6.402  0.00  0.00    +0.103 C 
ATOM     32  C   UNL     1       1.664  -9.767   7.713  0.00  0.00    +0.035 C 
ATOM     33  H   UNL     1       0.837 -12.443   7.188  0.00  0.00    +0.160 HD
BRANCH  26  34
ATOM     34  O   UNL     1      -3.176 -10.628   2.832  0.00  0.00    -0.406 OA
BRANCH  34  35
ATOM     35  C   UNL     1      -4.245 -11.564   2.683  0.00  0.00    +0.575 C 
ATOM     36  F   UNL     1      -4.932 -11.685   3.896  0.00  0.00    -0.133 F 
ATOM     37  F   UNL     1      -5.124 -11.114   1.692  0.00  0.00    -0.133 F 
ATOM     38  F   UNL     1      -3.726 -12.810   2.315  0.00  0.00    -0.133 F 
ENDBRANCH  34  35
ENDBRANCH  26  34
ENDBRANCH  22  23
ENDBRANCH  21  22
ENDBRANCH   3  21
TORSDOF 9
