REMARK  Name = ZINC39693363
REMARK  10 active torsions:
REMARK  status: ('A' for Active; 'I' for Inactive)
REMARK    1  A    between atoms: C_1  and  C_2
REMARK    2  A    between atoms: C_2  and  C_3
REMARK    3  A    between atoms: C_2  and  C_4
REMARK    4  A    between atoms: C_2  and  O_5
REMARK    5  A    between atoms: O_5  and  C_6
REMARK    6  A    between atoms: N_8  and  C_9
REMARK    7  A    between atoms: C_9  and  C_10
REMARK    8  A    between atoms: C_10  and  N_11
REMARK    9  A    between atoms: C_12  and  C_14
REMARK   10  A    between atoms: C_25  and  C_27
REMARK                            x       y       z     vdW  Elec       q    Type
REMARK                         _______ _______ _______ _____ _____    ______ ____
ROOT
ATOM      1  C   UNL     1       7.672  -0.611  -5.523  0.00  0.00    +0.100 C 
ATOM      2  C   UNL     1       8.578  -0.856  -4.296  0.00  0.00    +0.121 C 
ATOM      3  N   UNL     1       9.370  -2.058  -4.649  0.00  0.00    -0.296 N 
ATOM      4  C   UNL     1       9.689  -1.880  -6.085  0.00  0.00    +0.115 C 
ATOM      5  C   UNL     1       8.406  -1.282  -6.696  0.00  0.00    -0.004 C 
ATOM      6  C   UNL     1       7.544  -2.388  -7.296  0.00  0.00    -0.010 C 
ATOM      7  C   UNL     1       8.271  -3.002  -8.496  0.00  0.00    -0.082 C 
ATOM      8  N   UNL     1       8.533  -1.960  -9.497  0.00  0.00    +0.379 N 
ATOM      9  C   UNL     1       9.438  -0.948  -8.941  0.00  0.00    -0.082 C 
ATOM     10  C   UNL     1       8.760  -0.247  -7.760  0.00  0.00    -0.010 C 
ATOM     11  C   UNL     1       9.721  -3.081  -3.845  0.00  0.00    +0.249 C 
ATOM     12  O   UNL     1      10.457  -3.955  -4.260  0.00  0.00    -0.270 OA
ATOM     13  H   UNL     1       8.957  -2.378 -10.312  0.00  0.00    -0.086 HD
ATOM     14  H   UNL     1       7.663  -1.523  -9.761  0.00  0.00    -0.086 HD
ENDROOT
BRANCH  11  15
ATOM     15  C   UNL     1       9.212  -3.140  -2.460  0.00  0.00    +0.072 A 
ATOM     16  C   UNL     1       9.025  -1.964  -1.730  0.00  0.00    +0.016 A 
ATOM     17  C   UNL     1       8.549  -2.026  -0.437  0.00  0.00    +0.001 A 
ATOM     18  C   UNL     1       8.256  -3.251   0.139  0.00  0.00    +0.003 A 
ATOM     19  C   UNL     1       8.438  -4.420  -0.575  0.00  0.00    +0.039 A 
ATOM     20  C   UNL     1       8.909  -4.373  -1.874  0.00  0.00    +0.135 A 
ATOM     21  F   UNL     1       9.082  -5.516  -2.574  0.00  0.00    -0.205 F 
ENDBRANCH  11  15
BRANCH   1  23
ATOM     22  N   UNL     1       5.236  -0.743  -5.929  0.00  0.00    -0.314 N 
ATOM     23  C   UNL     1       6.323  -1.250  -5.315  0.00  0.00    +0.218 C 
ATOM     24  O   UNL     1       6.215  -2.219  -4.594  0.00  0.00    -0.275 OA
ATOM     25  H   UNL     1       5.321   0.032  -6.506  0.00  0.00    +0.149 HD
BRANCH  22  26
ATOM     26  C   UNL     1       3.924  -1.363  -5.726  0.00  0.00    +0.123 C 
BRANCH  26  27
ATOM     27  C   UNL     1       2.869  -0.601  -6.531  0.00  0.00    +0.126 C 
BRANCH  27  30
ATOM     28  C   UNL     1       0.470  -0.715  -6.943  0.00  0.00    +0.401 C 
ATOM     29  O   UNL     1       0.578   0.257  -7.665  0.00  0.00    -0.226 OA
ATOM     30  N   UNL     1       1.558  -1.221  -6.328  0.00  0.00    -0.280 N 
ATOM     31  H   UNL     1       1.472  -1.997  -5.752  0.00  0.00    +0.152 HD
BRANCH  28  32
ATOM     32  O   UNL     1      -0.735  -1.285  -6.756  0.00  0.00    -0.445 OA
BRANCH  32  34
ATOM     33  C   UNL     1      -1.596  -0.741  -8.948  0.00  0.00    +0.055 C 
ATOM     34  C   UNL     1      -1.844  -0.696  -7.439  0.00  0.00    +0.107 C 
ATOM     35  C   UNL     1      -2.003   0.759  -6.991  0.00  0.00    +0.055 C 
ATOM     36  C   UNL     1      -3.119  -1.474  -7.107  0.00  0.00    +0.055 C 
ENDBRANCH  32  34
ENDBRANCH  28  32
ENDBRANCH  27  30
ENDBRANCH  26  27
ENDBRANCH  22  26
ENDBRANCH   1  23
TORSDOF 7
