REMARK  Name = ZINC01295640
REMARK  9 active torsions:
REMARK  status: ('A' for Active; 'I' for Inactive)
REMARK    1  A    between atoms: C_1  and  C_2
REMARK    2  A    between atoms: C_7  and  N_8
REMARK    3  A    between atoms: C_18  and  S_19
REMARK    4  A    between atoms: S_19  and  C_20
REMARK    5  A    between atoms: C_20  and  C_21
REMARK    6  A    between atoms: N_23  and  N_24
REMARK    7  A    between atoms: C_25  and  C_26
REMARK    8  A    between atoms: C_29  and  O_33
REMARK    9  A    between atoms: C_31  and  O_32
REMARK                            x       y       z     vdW  Elec       q    Type
REMARK                         _______ _______ _______ _____ _____    ______ ____
ROOT
ATOM      1  N   UNL     1      -5.416   9.921   0.082  0.00  0.00    -0.255 N 
ATOM      2  C   UNL     1      -6.671  10.426   0.090  0.00  0.00    +0.267 A 
ATOM      3  O   UNL     1      -6.868  11.627   0.097  0.00  0.00    -0.267 OA
ATOM      4  C   UNL     1      -7.788   9.472   0.090  0.00  0.00    +0.065 A 
ATOM      5  C   UNL     1      -9.117   9.893   0.098  0.00  0.00    +0.015 A 
ATOM      6  C   UNL     1     -10.119   8.962   0.098  0.00  0.00    +0.001 A 
ATOM      7  C   UNL     1      -9.826   7.604   0.089  0.00  0.00    +0.002 A 
ATOM      8  C   UNL     1      -8.533   7.164   0.081  0.00  0.00    +0.028 A 
ATOM      9  C   UNL     1      -7.486   8.091   0.081  0.00  0.00    +0.079 A 
ATOM     10  N   UNL     1      -6.191   7.699   0.068  0.00  0.00    -0.223 NA
ATOM     11  C   UNL     1      -5.211   8.569   0.073  0.00  0.00    +0.177 A 
ENDROOT
BRANCH   1  18
ATOM     12  C   UNL     1      -4.348  10.743   2.589  0.00  0.00    +0.046 C 
ATOM     13  C   UNL     1      -3.766  11.215   1.282  0.00  0.00    -0.026 A 
ATOM     14  C   UNL     1      -2.682  12.072   1.278  0.00  0.00    +0.005 A 
ATOM     15  C   UNL     1      -2.147  12.507   0.079  0.00  0.00    +0.000 A 
ATOM     16  C   UNL     1      -2.694  12.085  -1.119  0.00  0.00    +0.002 A 
ATOM     17  C   UNL     1      -3.774  11.224  -1.122  0.00  0.00    +0.026 A 
ATOM     18  C   UNL     1      -4.317  10.790   0.081  0.00  0.00    +0.055 A 
ENDBRANCH   1  18
BRANCH  11  19
ATOM     19  S   UNL     1      -3.554   7.970   0.062  0.00  0.00    -0.078 S 
BRANCH  19  20
ATOM     20  C   UNL     1      -3.865   6.187   0.054  0.00  0.00    +0.174 C 
BRANCH  20  21
ATOM     21  C   UNL     1      -2.552   5.448   0.044  0.00  0.00    +0.242 C 
ATOM     22  O   UNL     1      -1.508   6.066   0.042  0.00  0.00    -0.273 OA
ATOM     23  N   UNL     1      -2.537   4.100   0.036  0.00  0.00    -0.206 N 
ATOM     24  H   UNL     1      -3.371   3.606   0.038  0.00  0.00    +0.177 HD
BRANCH  23  25
ATOM     25  N   UNL     1      -1.315   3.413   0.027  0.00  0.00    -0.188 NA
ATOM     26  C   UNL     1      -1.301   2.115   0.020  0.00  0.00    +0.142 C 
BRANCH  26  27
ATOM     27  C   UNL     1      -0.017   1.393   0.010  0.00  0.00    +0.036 A 
ATOM     28  C   UNL     1       0.002  -0.004   0.002  0.00  0.00    +0.016 A 
ATOM     29  C   UNL     1       1.205  -0.675  -0.013  0.00  0.00    +0.046 A 
ATOM     30  C   UNL     1       2.401   0.032  -0.021  0.00  0.00    +0.120 A 
ATOM     31  C   UNL     1       2.393   1.419  -0.014  0.00  0.00    +0.091 A 
ATOM     32  C   UNL     1       1.191   2.105   0.002  0.00  0.00    +0.129 A 
BRANCH  32  33
ATOM     33  O   UNL     1       1.182   3.463   0.009  0.00  0.00    -0.506 OA
ATOM     34  H   UNL     1       1.187   3.852   0.894  0.00  0.00    +0.292 HD
ENDBRANCH  32  33
BRANCH  30  35
ATOM     35  O   UNL     1       3.583  -0.637  -0.037  0.00  0.00    -0.507 OA
ATOM     36  H   UNL     1       3.916  -0.826  -0.925  0.00  0.00    +0.292 HD
ENDBRANCH  30  35
ENDBRANCH  26  27
ENDBRANCH  23  25
ENDBRANCH  20  21
ENDBRANCH  19  20
ENDBRANCH  11  19
TORSDOF 8
