REMARK  Name = ZINC20912974
REMARK  8 active torsions:
REMARK  status: ('A' for Active; 'I' for Inactive)
REMARK    1  A    between atoms: C_1  and  C_2
REMARK    2  A    between atoms: C_2  and  C_3
REMARK    3  A    between atoms: C_6  and  C_8
REMARK    4  A    between atoms: C_8  and  S_9
REMARK    5  A    between atoms: S_9  and  C_10
REMARK    6  A    between atoms: N_14  and  N_15
REMARK    7  A    between atoms: N_16  and  N_17
REMARK    8  A    between atoms: C_18  and  C_19
REMARK                            x       y       z     vdW  Elec       q    Type
REMARK                         _______ _______ _______ _____ _____    ______ ____
ROOT
ATOM      1  C   UNL     1       2.540   5.370  -1.412  0.00  0.00    +0.210 A 
ATOM      2  N   UNL     1       2.748   5.916  -0.237  0.00  0.00    -0.119 NA
ATOM      3  N   UNL     1       3.195   7.228  -0.443  0.00  0.00    -0.109 NA
ATOM      4  C   UNL     1       3.245   7.440  -1.736  0.00  0.00    +0.254 A 
ATOM      5  N   UNL     1       2.847   6.295  -2.368  0.00  0.00    -0.211 N 
ATOM      6  N   UNL     1       3.640   8.618  -2.354  0.00  0.00    -0.204 N 
ATOM      7  H   UNL     1       3.646   8.688  -3.452  0.00  0.00    +0.177 HD
ENDROOT
BRANCH   5   8
ATOM      8  N   UNL     1       2.767   6.110  -3.719  0.00  0.00    -0.294 N 
ATOM      9  H   UNL     1       3.040   6.927  -4.403  0.00  0.00    +0.163 HD
ATOM     10  H   UNL     1       2.430   5.144  -4.123  0.00  0.00    +0.163 HD
ENDBRANCH   5   8
BRANCH   6  11
ATOM     11  N   UNL     1       4.031   9.718  -1.580  0.00  0.00    -0.187 NA
ATOM     12  C   UNL     1       4.401  10.822  -2.159  0.00  0.00    +0.139 C 
BRANCH  12  13
ATOM     13  C   UNL     1       4.812  11.976  -1.347  0.00  0.00    +0.002 A 
ATOM     14  C   UNL     1       5.315  13.124  -1.948  0.00  0.00    +0.010 A 
ATOM     15  C   UNL     1       5.696  14.215  -1.178  0.00  0.00    +0.001 A 
ATOM     16  C   UNL     1       5.606  14.203   0.180  0.00  0.00    +0.008 A 
ATOM     17  C   UNL     1       5.112  13.074   0.855  0.00  0.00    -0.017 A 
ATOM     18  C   UNL     1       4.705  11.940   0.111  0.00  0.00    -0.009 A 
ATOM     19  C   UNL     1       4.212  10.813   0.780  0.00  0.00    +0.009 A 
ATOM     20  C   UNL     1       4.130  10.821   2.141  0.00  0.00    +0.001 A 
ATOM     21  C   UNL     1       4.529  11.934   2.876  0.00  0.00    +0.001 A 
ATOM     22  C   UNL     1       5.013  13.046   2.257  0.00  0.00    +0.008 A 
ENDBRANCH  12  13
ENDBRANCH   6  11
BRANCH   1  23
ATOM     23  S   UNL     1       1.972   3.728  -1.704  0.00  0.00    -0.075 S 
BRANCH  23  24
ATOM     24  C   UNL     1       1.801   3.146   0.001  0.00  0.00    +0.175 C 
BRANCH  24  28
ATOM     25  C   UNL     1       0.053  -0.024   0.005  0.00  0.00    +0.217 A 
ATOM     26  N   UNL     1       1.302  -0.393  -0.016  0.00  0.00    -0.112 NA
ATOM     27  N   UNL     1       2.055   0.650  -0.020  0.00  0.00    -0.112 NA
ATOM     28  C   UNL     1       1.312   1.720  -0.001  0.00  0.00    +0.227 A 
ATOM     29  O   UNL     1       0.030   1.319   0.015  0.00  0.00    -0.424 OA
BRANCH  25  31
ATOM     30  C   UNL     1      -1.530  -1.256   1.463  0.00  0.00    +0.013 C 
ATOM     31  C   UNL     1      -1.146  -0.937   0.017  0.00  0.00    +0.094 C 
ENDBRANCH  25  31
ENDBRANCH  24  28
ENDBRANCH  23  24
ENDBRANCH   1  23
TORSDOF 7
