REMARK  Name = ZINC12309520
REMARK  10 active torsions:
REMARK  status: ('A' for Active; 'I' for Inactive)
REMARK    1  A    between atoms: C_1  and  C_2
REMARK    2  A    between atoms: C_2  and  C_3
REMARK    3  A    between atoms: C_9  and  N_10
REMARK    4  A    between atoms: N_10  and  O_11
REMARK    5  A    between atoms: O_11  and  C_12
REMARK    6  A    between atoms: C_12  and  C_13
REMARK    7  A    between atoms: N_15  and  C_16
REMARK    8  A    between atoms: C_19  and  C_22
REMARK    9  A    between atoms: N_27  and  C_32
REMARK   10  A    between atoms: N_30  and  C_31
REMARK                            x       y       z     vdW  Elec       q    Type
REMARK                         _______ _______ _______ _____ _____    ______ ____
ROOT
ATOM      1  N   UNL     1      -0.949   6.369   0.622  0.00  0.00    -0.264 N 
ATOM      2  H   UNL     1      -1.115   7.320   0.095  0.00  0.00    +0.194 HD
ENDROOT
BRANCH   1   9
ATOM      3  C   UNL     1       1.451   6.514   0.220  0.00  0.00    -0.006 A 
ATOM      4  C   UNL     1       2.634   5.906   0.403  0.00  0.00    +0.090 A 
ATOM      5  N   UNL     1       2.723   4.628   0.886  0.00  0.00    -0.347 N 
ATOM      6  H   UNL     1       3.688   4.241   1.243  0.00  0.00    +0.167 HD
ATOM      7  C   UNL     1       1.645   3.802   0.943  0.00  0.00    +0.129 A 
ATOM      8  C   UNL     1       0.363   4.322   0.785  0.00  0.00    +0.106 A 
ATOM      9  C   UNL     1       0.218   5.771   0.547  0.00  0.00    +0.082 A 
ATOM     10  C   UNL     1      -0.753   3.457   0.855  0.00  0.00    +0.268 A 
ATOM     11  O   UNL     1      -1.883   3.891   0.723  0.00  0.00    -0.267 OA
ATOM     12  N   UNL     1      -0.542   2.140   1.066  0.00  0.00    -0.263 N 
ATOM     13  C   UNL     1       0.704   1.659   1.218  0.00  0.00    +0.333 A 
ATOM     14  O   UNL     1       0.857   0.468   1.409  0.00  0.00    -0.246 OA
ATOM     15  N   UNL     1       1.787   2.455   1.159  0.00  0.00    -0.282 N 
ATOM     16  C   UNL     1       3.125   1.881   1.326  0.00  0.00    +0.155 C 
ATOM     17  C   UNL     1      -1.684   1.226   1.136  0.00  0.00    +0.157 C 
BRANCH   3  19
ATOM     18  C   UNL     1       1.309   7.895  -1.835  0.00  0.00    +0.009 C 
ATOM     19  C   UNL     1       1.384   7.925  -0.307  0.00  0.00    +0.035 C 
ENDBRANCH   3  19
ENDBRANCH   1   9
BRANCH   1  20
ATOM     20  O   UNL     1      -1.994   5.790   1.382  0.00  0.00    -0.265 OA
BRANCH  20  21
ATOM     21  C   UNL     1      -3.206   6.547   1.375  0.00  0.00    +0.288 C 
BRANCH  21  22
ATOM     22  C   UNL     1      -4.244   5.841   2.210  0.00  0.00    +0.246 C 
ATOM     23  O   UNL     1      -3.972   4.793   2.757  0.00  0.00    -0.273 OA
ATOM     24  N   UNL     1      -5.473   6.375   2.349  0.00  0.00    -0.284 N 
ATOM     25  H   UNL     1      -5.744   7.285   1.794  0.00  0.00    +0.155 HD
BRANCH  24  26
ATOM     26  C   UNL     1      -6.402   5.773   3.197  0.00  0.00    +0.033 A 
ATOM     27  C   UNL     1      -6.444   4.387   3.310  0.00  0.00    +0.024 A 
ATOM     28  C   UNL     1      -7.356   3.790   4.150  0.00  0.00    +0.015 A 
ATOM     29  C   UNL     1      -8.249   4.578   4.882  0.00  0.00    +0.037 A 
ATOM     30  C   UNL     1      -8.209   5.970   4.762  0.00  0.00    +0.015 A 
ATOM     31  C   UNL     1      -7.290   6.560   3.924  0.00  0.00    +0.024 A 
BRANCH  29  32
ATOM     32  C   UNL     1      -9.233   3.941   5.780  0.00  0.00    +0.242 C 
ATOM     33  O   UNL     1     -10.009   4.628   6.416  0.00  0.00    -0.270 OA
ATOM     34  N   UNL     1      -9.271   2.599   5.894  0.00  0.00    -0.325 N 
ATOM     35  H   UNL     1     -10.004   2.124   6.563  0.00  0.00    +0.145 HD
ATOM     36  H   UNL     1      -8.569   1.978   5.319  0.00  0.00    +0.145 HD
ENDBRANCH  29  32
ENDBRANCH  24  26
ENDBRANCH  21  22
ENDBRANCH  20  21
ENDBRANCH   1  20
TORSDOF 7
