REMARK  Name = ZINC59227654
REMARK  10 active torsions:
REMARK  status: ('A' for Active; 'I' for Inactive)
REMARK    1  A    between atoms: C_1  and  C_2
REMARK    2  A    between atoms: C_5  and  C_8
REMARK    3  A    between atoms: C_8  and  O_9
REMARK    4  A    between atoms: O_9  and  C_10
REMARK    5  A    between atoms: C_13  and  C_18
REMARK    6  A    between atoms: C_15  and  O_16
REMARK    7  A    between atoms: O_16  and  C_17
REMARK    8  A    between atoms: C_20  and  C_27
REMARK    9  A    between atoms: C_21  and  C_26
REMARK   10  A    between atoms: N_29  and  C_30
REMARK                            x       y       z     vdW  Elec       q    Type
REMARK                         _______ _______ _______ _____ _____    ______ ____
ROOT
ATOM      1  C   UNL     1       2.326 -11.095  -0.901  0.00  0.00    +0.139 C 
ATOM      2  C   UNL     1       1.663 -11.069   0.461  0.00  0.00    +0.056 C 
ATOM      3  C   UNL     1       0.440 -11.628   0.575  0.00  0.00    +0.017 C 
ATOM      4  N   UNL     1      -0.179 -12.195  -0.501  0.00  0.00    -0.300 N 
ATOM      5  C   UNL     1       0.359 -12.246  -1.726  0.00  0.00    +0.135 C 
ATOM      6  S   UNL     1      -0.526 -12.988  -2.990  0.00  0.00    -0.019 S 
ATOM      7  N   UNL     1       1.574 -11.731  -1.996  0.00  0.00    -0.315 N 
ATOM      8  C   UNL     1      -0.255 -11.624   1.913  0.00  0.00    +0.061 C 
ATOM      9  H   UNL     1      -1.058 -12.585  -0.371  0.00  0.00    +0.154 HD
ATOM     10  H   UNL     1       1.945 -11.777  -2.891  0.00  0.00    +0.149 HD
ENDROOT
BRANCH   1  14
ATOM     11  C   UNL     1       3.146  -7.056  -2.042  0.00  0.00    +0.162 A 
ATOM     12  C   UNL     1       1.885  -7.593  -2.245  0.00  0.00    +0.050 A 
ATOM     13  C   UNL     1       1.623  -8.899  -1.875  0.00  0.00    +0.009 A 
ATOM     14  C   UNL     1       2.617  -9.672  -1.303  0.00  0.00    -0.019 A 
ATOM     15  C   UNL     1       3.877  -9.141  -1.098  0.00  0.00    +0.055 A 
ATOM     16  C   UNL     1       4.148  -7.835  -1.472  0.00  0.00    +0.162 A 
BRANCH  16  17
ATOM     17  O   UNL     1       5.388  -7.313  -1.276  0.00  0.00    -0.491 OA
ATOM     18  C   UNL     1       6.394  -8.199  -0.780  0.00  0.00    +0.277 C 
ENDBRANCH  16  17
BRANCH  11  19
ATOM     19  O   UNL     1       3.405  -5.771  -2.406  0.00  0.00    -0.484 OA
BRANCH  19  20
ATOM     20  C   UNL     1       2.329  -5.031  -2.986  0.00  0.00    +0.264 C 
BRANCH  20  25
ATOM     21  C   UNL     1       4.132   0.305  -4.277  0.00  0.00    +0.044 C 
ATOM     22  C   UNL     1       3.662  -1.087  -3.940  0.00  0.00    -0.050 A 
ATOM     23  C   UNL     1       3.776  -2.099  -4.874  0.00  0.00    +0.004 A 
ATOM     24  C   UNL     1       3.345  -3.376  -4.565  0.00  0.00    +0.007 A 
ATOM     25  C   UNL     1       2.800  -3.640  -3.322  0.00  0.00    -0.010 A 
ATOM     26  C   UNL     1       2.687  -2.627  -2.388  0.00  0.00    +0.007 A 
ATOM     27  C   UNL     1       3.122  -1.351  -2.696  0.00  0.00    +0.004 A 
ENDBRANCH  20  25
ENDBRANCH  19  20
ENDBRANCH  11  19
ENDBRANCH   1  14
BRANCH   2  28
ATOM     28  C   UNL     1       2.306 -10.480   1.577  0.00  0.00    +0.248 C 
ATOM     29  O   UNL     1       3.187 -11.084   2.162  0.00  0.00    -0.270 OA
ATOM     30  N   UNL     1       1.943  -9.250   1.992  0.00  0.00    -0.282 N 
ATOM     31  H   UNL     1       1.183  -8.806   1.585  0.00  0.00    +0.155 HD
BRANCH  30  32
ATOM     32  C   UNL     1       2.661  -8.616   3.011  0.00  0.00    +0.034 A 
ATOM     33  C   UNL     1       4.029  -8.822   3.130  0.00  0.00    +0.025 A 
ATOM     34  C   UNL     1       4.736  -8.193   4.137  0.00  0.00    +0.022 A 
ATOM     35  C   UNL     1       4.082  -7.359   5.027  0.00  0.00    +0.041 A 
ATOM     36  C   UNL     1       2.719  -7.152   4.911  0.00  0.00    +0.022 A 
ATOM     37  C   UNL     1       2.008  -7.774   3.902  0.00  0.00    +0.025 A 
ATOM     38 CL   UNL     1       4.973  -6.572   6.292  0.00  0.00    -0.084 Cl
ENDBRANCH  30  32
ENDBRANCH   2  28
TORSDOF 7
