REMARK  Name = ZINC17079680
REMARK  9 active torsions:
REMARK  status: ('A' for Active; 'I' for Inactive)
REMARK    1  A    between atoms: C_1  and  C_2
REMARK    2  A    between atoms: C_2  and  C_3
REMARK    3  A    between atoms: C_4  and  C_30
REMARK    4  A    between atoms: C_7  and  C_8
REMARK    5  A    between atoms: N_10  and  N_11
REMARK    6  A    between atoms: C_12  and  C_14
REMARK    7  A    between atoms: C_22  and  C_24
REMARK    8  A    between atoms: C_27  and  C_28
REMARK    9  A    between atoms: C_27  and  C_29
REMARK                            x       y       z     vdW  Elec       q    Type
REMARK                         _______ _______ _______ _____ _____    ______ ____
ROOT
ATOM      1  N   UNL     1       4.384   1.084   1.500  0.00  0.00    -0.234 N 
ATOM      2  C   UNL     1       3.339   0.364   1.046  0.00  0.00    +0.234 C 
ATOM      3  O   UNL     1       3.529  -0.699   0.494  0.00  0.00    -0.274 OA
ATOM      4  H   UNL     1       4.232   1.935   1.941  0.00  0.00    +0.173 HD
ENDROOT
BRANCH   2   5
ATOM      5  C   UNL     1       1.935   0.880   1.223  0.00  0.00    +0.098 C 
ATOM      6  C   UNL     1       1.543   1.814   0.037  0.00  0.00    +0.028 C 
ATOM      7  C   UNL     1       1.960   1.026  -1.242  0.00  0.00    +0.009 C 
ATOM      8  C   UNL     1       0.942  -0.136  -1.321  0.00  0.00    +0.009 C 
ATOM      9  C   UNL     1       0.021   0.077  -0.081  0.00  0.00    +0.030 C 
ATOM     10  C   UNL     1       0.917  -0.281   1.144  0.00  0.00    +0.122 C 
ATOM     11  C   UNL     1       0.010   1.620   0.010  0.00  0.00    -0.063 C 
ATOM     12  C   UNL     1      -0.977   2.481   0.046  0.00  0.00    -0.076 C 
ATOM     13  C   UNL     1      -2.403   1.996  -0.003  0.00  0.00    +0.039 C 
ATOM     14  C   UNL     1      -0.685   3.957   0.137  0.00  0.00    +0.039 C 
BRANCH  10  15
ATOM     15  C   UNL     1       0.089  -0.347   2.401  0.00  0.00    +0.360 C 
ATOM     16  O   UNL     1      -1.100  -0.134   2.354  0.00  0.00    -0.246 OA
ATOM     17  O   UNL     1       0.671  -0.643   3.574  0.00  0.00    -0.246 OA
ENDBRANCH  10  15
ENDBRANCH   2   5
BRANCH   1  20
ATOM     18  C   UNL     1       6.735   1.324   1.789  0.00  0.00    +0.261 C 
ATOM     19  O   UNL     1       6.544   2.391   2.342  0.00  0.00    -0.269 OA
ATOM     20  N   UNL     1       5.690   0.604   1.335  0.00  0.00    -0.230 N 
ATOM     21  H   UNL     1       5.842  -0.246   0.894  0.00  0.00    +0.173 HD
BRANCH  18  26
ATOM     22  C   UNL     1       9.248   1.566   2.085  0.00  0.00    -0.026 A 
ATOM     23  C   UNL     1      10.463   1.018   1.885  0.00  0.00    -0.009 A 
ATOM     24  S   UNL     1      10.085  -0.508   1.048  0.00  0.00    -0.101 S 
ATOM     25  C   UNL     1       8.358  -0.385   0.994  0.00  0.00    +0.058 A 
ATOM     26  C   UNL     1       8.107   0.820   1.616  0.00  0.00    +0.049 A 
ATOM     27  C   UNL     1      11.812   1.567   2.270  0.00  0.00    +0.052 C 
BRANCH  22  29
ATOM     28  C   UNL     1       8.949   2.678   4.281  0.00  0.00    +0.009 C 
ATOM     29  C   UNL     1       9.088   2.897   2.773  0.00  0.00    +0.033 C 
ENDBRANCH  22  29
ENDBRANCH  18  26
ENDBRANCH   1  20
TORSDOF 5
