REMARK  Name = ZINC39693345
REMARK  8 active torsions:
REMARK  status: ('A' for Active; 'I' for Inactive)
REMARK    1  A    between atoms: C_1  and  N_2
REMARK    2  A    between atoms: C_6  and  C_7
REMARK    3  A    between atoms: C_11  and  C_20
REMARK    4  A    between atoms: N_22  and  C_23
REMARK    5  A    between atoms: C_23  and  C_24
REMARK    6  A    between atoms: C_24  and  N_25
REMARK    7  A    between atoms: C_26  and  C_28
REMARK    8  A    between atoms: C_28  and  C_29
REMARK                            x       y       z     vdW  Elec       q    Type
REMARK                         _______ _______ _______ _____ _____    ______ ____
ROOT
ATOM      1  C   UNL     1      -3.076   2.500   2.099  0.00  0.00    +0.218 C 
ATOM      2  O   UNL     1      -3.284   1.396   1.642  0.00  0.00    -0.275 OA
ATOM      3  N   UNL     1      -4.076   3.402   2.164  0.00  0.00    -0.314 N 
ATOM      4  H   UNL     1      -3.909   4.285   2.530  0.00  0.00    +0.149 HD
ENDROOT
BRANCH   1   9
ATOM      5  C   UNL     1      -0.173  -0.417   2.461  0.00  0.00    +0.265 C 
ATOM      6  O   UNL     1      -0.108  -1.264   3.332  0.00  0.00    -0.268 OA
ATOM      7  N   UNL     1      -0.380   0.873   2.789  0.00  0.00    -0.295 N 
ATOM      8  C   UNL     1      -0.628   2.014   1.877  0.00  0.00    +0.121 C 
ATOM      9  C   UNL     1      -1.700   2.863   2.595  0.00  0.00    +0.100 C 
ATOM     10  C   UNL     1      -1.553   2.504   4.083  0.00  0.00    -0.004 C 
ATOM     11  C   UNL     1      -0.419   1.471   4.145  0.00  0.00    +0.115 C 
ATOM     12  C   UNL     1      -2.847   1.891   4.610  0.00  0.00    -0.010 C 
ATOM     13  C   UNL     1      -2.695   1.595   6.104  0.00  0.00    -0.082 C 
ATOM     14  N   UNL     1      -2.391   2.839   6.823  0.00  0.00    +0.379 N 
ATOM     15  C   UNL     1      -1.099   3.373   6.376  0.00  0.00    -0.082 C 
ATOM     16  C   UNL     1      -1.184   3.744   4.892  0.00  0.00    -0.010 C 
ATOM     17  H   UNL     1      -3.116   3.517   6.639  0.00  0.00    -0.086 HD
ATOM     18  H   UNL     1      -2.352   2.653   7.814  0.00  0.00    -0.086 HD
BRANCH   5  24
ATOM     19  C   UNL     1      -0.023  -3.329   1.316  0.00  0.00    +0.150 C 
ATOM     20  N   UNL     1       0.042  -2.085   0.546  0.00  0.00    -0.330 N 
ATOM     21  C   UNL     1       0.171  -1.977  -0.788  0.00  0.00    +0.199 A 
ATOM     22  N   UNL     1       0.191  -0.710  -1.117  0.00  0.00    -0.243 NA
ATOM     23  C   UNL     1       0.077   0.040  -0.020  0.00  0.00    +0.143 A 
ATOM     24  C   UNL     1      -0.025  -0.801   1.052  0.00  0.00    +0.124 A 
ENDBRANCH   5  24
ENDBRANCH   1   9
BRANCH   3  25
ATOM     25  C   UNL     1      -5.413   3.049   1.682  0.00  0.00    +0.123 C 
BRANCH  25  26
ATOM     26  C   UNL     1      -6.354   4.241   1.868  0.00  0.00    +0.123 C 
BRANCH  26  27
ATOM     27  N   UNL     1      -7.691   3.888   1.386  0.00  0.00    -0.314 N 
ATOM     28  C   UNL     1      -8.691   4.790   1.450  0.00  0.00    +0.217 C 
ATOM     29  O   UNL     1      -8.483   5.894   1.907  0.00  0.00    -0.275 OA
ATOM     30  H   UNL     1      -7.858   3.005   1.020  0.00  0.00    +0.149 HD
BRANCH  28  31
ATOM     31  C   UNL     1     -10.067   4.426   0.954  0.00  0.00    +0.131 C 
BRANCH  31  32
ATOM     32  C   UNL     1     -10.993   5.601   1.137  0.00  0.00    -0.031 A 
ATOM     33  C   UNL     1     -11.769   5.693   2.252  0.00  0.00    +0.005 A 
ATOM     34  C   UNL     1     -12.632   6.771   2.439  0.00  0.00    +0.001 A 
ATOM     35  C   UNL     1     -12.723   7.764   1.512  0.00  0.00    +0.008 A 
ATOM     36  C   UNL     1     -11.938   7.703   0.348  0.00  0.00    -0.018 A 
ATOM     37  C   UNL     1     -11.056   6.610   0.161  0.00  0.00    -0.014 A 
ATOM     38  C   UNL     1     -10.266   6.552  -1.000  0.00  0.00    +0.009 A 
ATOM     39  C   UNL     1     -10.354   7.548  -1.923  0.00  0.00    +0.001 A 
ATOM     40  C   UNL     1     -11.216   8.627  -1.736  0.00  0.00    +0.001 A 
ATOM     41  C   UNL     1     -12.006   8.709  -0.631  0.00  0.00    +0.008 A 
ENDBRANCH  31  32
ENDBRANCH  28  31
ENDBRANCH  26  27
ENDBRANCH  25  26
ENDBRANCH   3  25
TORSDOF 7
