REMARK  Name = ZINC65591170
REMARK  8 active torsions:
REMARK  status: ('A' for Active; 'I' for Inactive)
REMARK    1  A    between atoms: N_8  and  C_11
REMARK    2  A    between atoms: C_11  and  C_12
REMARK    3  A    between atoms: C_12  and  C_13
REMARK    4  A    between atoms: C_13  and  N_14
REMARK    5  A    between atoms: N_17  and  C_18
REMARK    6  A    between atoms: C_18  and  C_19
REMARK    7  A    between atoms: C_19  and  C_21
REMARK    8  A    between atoms: C_19  and  N_26
REMARK                            x       y       z     vdW  Elec       q    Type
REMARK                         _______ _______ _______ _____ _____    ______ ____
ROOT
ATOM      1  N   UNL     1       5.177  -5.421   2.738  0.00  0.00    -0.299 N 
ATOM      2  C   UNL     1       5.977  -6.479   2.979  0.00  0.00    +0.300 C 
ATOM      3  O   UNL     1       6.585  -7.002   2.065  0.00  0.00    -0.253 OA
ATOM      4  N   UNL     1       6.102  -6.958   4.232  0.00  0.00    -0.301 N 
ATOM      5  H   UNL     1       4.691  -5.005   3.467  0.00  0.00    +0.150 HD
ATOM      6  H   UNL     1       5.616  -6.542   4.961  0.00  0.00    +0.150 HD
ENDROOT
BRANCH   1   7
ATOM      7  C   UNL     1       5.041  -4.901   1.376  0.00  0.00    +0.107 C 
BRANCH   7   8
ATOM      8  C   UNL     1       4.083  -3.708   1.379  0.00  0.00    +0.042 C 
BRANCH   8   9
ATOM      9  C   UNL     1       3.941  -3.164  -0.044  0.00  0.00    +0.150 C 
BRANCH   9  17
ATOM     10  C   UNL     1      -0.331   1.014  -0.147  0.00  0.00    +0.005 A 
ATOM     11  C   UNL     1       0.771   1.863   0.078  0.00  0.00    +0.018 A 
ATOM     12  C   UNL     1       2.014   1.359   0.181  0.00  0.00    +0.098 A 
ATOM     13  N   UNL     1       2.233   0.007   0.069  0.00  0.00    -0.251 N 
ATOM     14  C   UNL     1       1.171  -0.850  -0.151  0.00  0.00    +0.162 A 
ATOM     15  C   UNL     1      -0.141  -0.323  -0.260  0.00  0.00    +0.049 A 
ATOM     16  N   UNL     1       1.634  -2.076  -0.220  0.00  0.00    -0.149 NA
ATOM     17  N   UNL     1       3.023  -2.022  -0.042  0.00  0.00    -0.212 N 
ATOM     18  C   UNL     1       3.361  -0.729   0.134  0.00  0.00    +0.351 A 
ATOM     19  O   UNL     1       4.488  -0.300   0.317  0.00  0.00    -0.244 OA
ENDBRANCH   9  17
ENDBRANCH   8   9
ENDBRANCH   7   8
ENDBRANCH   1   7
BRANCH   4  20
ATOM     20  C   UNL     1       6.971  -8.108   4.494  0.00  0.00    +0.098 C 
BRANCH  20  21
ATOM     21  C   UNL     1       7.040  -8.364   6.001  0.00  0.00    +0.016 C 
BRANCH  21  22
ATOM     22  N   UNL     1       7.803  -9.593   6.255  0.00  0.00    +0.387 N 
ATOM     23  C   UNL     1       7.874  -9.859   7.714  0.00  0.00    -0.078 C 
ATOM     24  C   UNL     1       8.171 -11.378   7.784  0.00  0.00    -0.020 C 
ATOM     25  C   UNL     1       7.335 -11.948   6.615  0.00  0.00    -0.020 C 
ATOM     26  C   UNL     1       7.106 -10.757   5.666  0.00  0.00    -0.078 C 
ATOM     27  H   UNL     1       8.732  -9.512   5.870  0.00  0.00    -0.081 HD
ENDBRANCH  21  22
BRANCH  21  28
ATOM     28  C   UNL     1       7.720  -7.201   6.677  0.00  0.00    +0.093 A 
ATOM     29  C   UNL     1       7.102  -6.199   7.327  0.00  0.00    +0.043 A 
ATOM     30  C   UNL     1       8.115  -5.334   7.802  0.00  0.00    +0.041 A 
ATOM     31  C   UNL     1       9.290  -5.859   7.413  0.00  0.00    +0.195 A 
ATOM     32  O   UNL     1       9.045  -6.993   6.737  0.00  0.00    -0.469 OA
ENDBRANCH  21  28
ENDBRANCH  20  21
ENDBRANCH   4  20
TORSDOF 8
