REMARK  Name = ZINC13254433
REMARK  8 active torsions:
REMARK  status: ('A' for Active; 'I' for Inactive)
REMARK    1  A    between atoms: C_1  and  C_2
REMARK    2  A    between atoms: C_2  and  C_3
REMARK    3  A    between atoms: C_2  and  O_4
REMARK    4  A    between atoms: O_4  and  C_5
REMARK    5  A    between atoms: C_8  and  C_11
REMARK    6  A    between atoms: N_13  and  N_14
REMARK    7  A    between atoms: C_15  and  C_17
REMARK    8  A    between atoms: C_23  and  C_25
REMARK                            x       y       z     vdW  Elec       q    Type
REMARK                         _______ _______ _______ _____ _____    ______ ____
ROOT
ATOM      1  C   UNL     1       6.176  -1.512   0.613  0.00  0.00    +0.260 C 
ATOM      2  O   UNL     1       6.812  -1.938   1.558  0.00  0.00    -0.269 OA
ATOM      3  N   UNL     1       6.780  -1.324  -0.577  0.00  0.00    -0.230 N 
ATOM      4  H   UNL     1       6.273  -0.985  -1.330  0.00  0.00    +0.173 HD
ENDROOT
BRANCH   1   8
ATOM      5  C   UNL     1       2.049  -0.618   1.063  0.00  0.00    +0.121 A 
ATOM      6  C   UNL     1       2.669  -0.428  -0.167  0.00  0.00    +0.046 A 
ATOM      7  C   UNL     1       4.008  -0.712  -0.315  0.00  0.00    +0.016 A 
ATOM      8  C   UNL     1       4.741  -1.202   0.769  0.00  0.00    +0.038 A 
ATOM      9  C   UNL     1       4.112  -1.396   2.002  0.00  0.00    +0.016 A 
ATOM     10  C   UNL     1       2.774  -1.105   2.144  0.00  0.00    +0.046 A 
BRANCH   5  11
ATOM     11  O   UNL     1       0.730  -0.332   1.207  0.00  0.00    -0.489 OA
BRANCH  11  13
ATOM     12  C   UNL     1       0.203   1.558  -0.205  0.00  0.00    +0.051 C 
ATOM     13  C   UNL     1       0.018   0.057   0.030  0.00  0.00    +0.167 C 
ATOM     14  C   UNL     1      -1.469  -0.252   0.208  0.00  0.00    +0.051 C 
ENDBRANCH  11  13
ENDBRANCH   5  11
ENDBRANCH   1   8
BRANCH   3  15
ATOM     15  N   UNL     1       8.142  -1.619  -0.725  0.00  0.00    -0.234 N 
ATOM     16  C   UNL     1       8.746  -1.431  -1.915  0.00  0.00    +0.233 C 
ATOM     17  O   UNL     1       8.112  -1.006  -2.857  0.00  0.00    -0.274 OA
ATOM     18  H   UNL     1       8.649  -1.959   0.029  0.00  0.00    +0.173 HD
BRANCH  16  19
ATOM     19  C   UNL     1      10.211  -1.748  -2.074  0.00  0.00    +0.094 C 
ATOM     20  C   UNL     1      10.872  -0.693  -2.964  0.00  0.00    +0.040 C 
ATOM     21  C   UNL     1      10.402  -0.844  -4.381  0.00  0.00    -0.030 C 
ATOM     22  C   UNL     1       9.825  -1.905  -4.845  0.00  0.00    -0.030 C 
ATOM     23  C   UNL     1       9.536  -3.130  -4.027  0.00  0.00    +0.042 C 
ATOM     24  C   UNL     1      10.372  -3.118  -2.746  0.00  0.00    +0.118 C 
BRANCH  24  25
ATOM     25  C   UNL     1       9.886  -4.199  -1.814  0.00  0.00    +0.360 C 
ATOM     26  O   UNL     1       9.455  -3.908  -0.724  0.00  0.00    -0.246 OA
ATOM     27  O   UNL     1       9.933  -5.485  -2.196  0.00  0.00    -0.246 OA
ENDBRANCH  24  25
ENDBRANCH  16  19
ENDBRANCH   3  15
TORSDOF 6
