REMARK  Name = ZINC12882512
REMARK  8 active torsions:
REMARK  status: ('A' for Active; 'I' for Inactive)
REMARK    1  A    between atoms: C_1  and  C_2
REMARK    2  A    between atoms: C_7  and  C_8
REMARK    3  A    between atoms: C_17  and  C_19
REMARK    4  A    between atoms: C_19  and  C_20
REMARK    5  A    between atoms: C_23  and  O_26
REMARK    6  A    between atoms: N_29  and  C_32
REMARK    7  A    between atoms: C_32  and  C_33
REMARK    8  A    between atoms: C_33  and  C_34
REMARK                            x       y       z     vdW  Elec       q    Type
REMARK                         _______ _______ _______ _____ _____    ______ ____
ROOT
ATOM      1  C   UNL     1       0.695   0.506   8.301  0.00  0.00    +0.044 C 
ATOM      2  C   UNL     1       0.244   0.065   6.932  0.00  0.00    -0.046 A 
ATOM      3  C   UNL     1       1.157   0.002   5.894  0.00  0.00    +0.004 A 
ATOM      4  C   UNL     1       0.743  -0.402   4.637  0.00  0.00    +0.005 A 
ATOM      5  C   UNL     1      -0.574  -0.741   4.421  0.00  0.00    -0.027 A 
ATOM      6  C   UNL     1      -1.500  -0.683   5.458  0.00  0.00    +0.039 A 
ATOM      7  C   UNL     1      -1.076  -0.274   6.720  0.00  0.00    -0.026 A 
ATOM      8  C   UNL     1      -2.061  -0.203   7.857  0.00  0.00    +0.046 C 
ATOM      9  N   UNL     1      -2.762  -1.071   5.001  0.00  0.00    -0.286 N 
ATOM     10  C   UNL     1      -2.751  -1.395   3.693  0.00  0.00    +0.211 C 
ATOM     11  O   UNL     1      -3.697  -1.766   3.031  0.00  0.00    -0.277 OA
ATOM     12  C   UNL     1      -1.337  -1.208   3.214  0.00  0.00    +0.050 C 
ATOM     13  C   UNL     1      -0.760  -2.511   2.649  0.00  0.00    +0.088 C 
ATOM     14  C   UNL     1       0.131  -2.062   1.457  0.00  0.00    +0.073 C 
ATOM     15  C   UNL     1       0.023  -0.522   1.442  0.00  0.00    -0.053 C 
ATOM     16  C   UNL     1       1.529  -2.456   1.879  0.00  0.00    +0.224 C 
ATOM     17  O   UNL     1       2.533  -2.290   1.220  0.00  0.00    -0.275 OA
ATOM     18  N   UNL     1       1.465  -3.019   3.108  0.00  0.00    -0.241 N 
ATOM     19  C   UNL     1       0.234  -3.098   3.626  0.00  0.00    +0.225 C 
ATOM     20  O   UNL     1      -0.043  -3.567   4.708  0.00  0.00    -0.275 OA
ATOM     21  H   UNL     1      -3.554  -1.103   5.560  0.00  0.00    +0.155 HD
ATOM     22  N   UNL     1      -1.242  -0.248   2.127  0.00  0.00    +0.394 N 
ATOM     23  H   UNL     1      -1.245   0.710   2.497  0.00  0.00    -0.083 HD
ATOM     24  H   UNL     1      -2.030  -0.366   1.478  0.00  0.00    -0.083 HD
ENDROOT
BRANCH  15  25
ATOM     25  C   UNL     1       0.002  -0.004   0.002  0.00  0.00    +0.020 C 
BRANCH  25  26
ATOM     26  C   UNL     1      -0.018   1.503   0.010  0.00  0.00    -0.049 A 
ATOM     27  C   UNL     1      -1.226   2.177   0.020  0.00  0.00    +0.007 A 
ATOM     28  C   UNL     1      -1.247   3.558   0.033  0.00  0.00    +0.045 A 
ATOM     29  C   UNL     1      -0.056   4.269   0.026  0.00  0.00    +0.117 A 
ATOM     30  C   UNL     1       1.154   3.591   0.011  0.00  0.00    +0.045 A 
ATOM     31  C   UNL     1       1.170   2.209   0.003  0.00  0.00    +0.007 A 
BRANCH  29  32
ATOM     32  O   UNL     1      -0.074   5.628   0.033  0.00  0.00    -0.507 OA
ATOM     33  H   UNL     1      -0.088   6.026  -0.848  0.00  0.00    +0.292 HD
ENDBRANCH  29  32
ENDBRANCH  25  26
ENDBRANCH  15  25
BRANCH  18  34
ATOM     34  C   UNL     1       2.653  -3.508   3.813  0.00  0.00    +0.121 C 
BRANCH  34  35
ATOM     35  C   UNL     1       2.893  -4.975   3.448  0.00  0.00    +0.054 C 
BRANCH  35  36
ATOM     36  C   UNL     1       4.115  -5.478   4.173  0.00  0.00    -0.046 A 
ATOM     37  C   UNL     1       5.361  -5.373   3.583  0.00  0.00    +0.004 A 
ATOM     38  C   UNL     1       6.482  -5.832   4.249  0.00  0.00    +0.000 A 
ATOM     39  C   UNL     1       6.357  -6.403   5.501  0.00  0.00    +0.000 A 
ATOM     40  C   UNL     1       5.110  -6.513   6.089  0.00  0.00    +0.000 A 
ATOM     41  C   UNL     1       3.990  -6.051   5.425  0.00  0.00    +0.004 A 
ENDBRANCH  35  36
ENDBRANCH  34  35
ENDBRANCH  18  34
TORSDOF 6
