REMARK  Name = ZINC19880020
REMARK  9 active torsions:
REMARK  status: ('A' for Active; 'I' for Inactive)
REMARK    1  A    between atoms: C_5  and  C_7
REMARK    2  A    between atoms: C_9  and  C_27
REMARK    3  A    between atoms: C_11  and  C_22
REMARK    4  A    between atoms: C_11  and  O_26
REMARK    5  A    between atoms: C_13  and  S_17
REMARK    6  A    between atoms: C_14  and  C_15
REMARK    7  A    between atoms: S_17  and  C_18
REMARK    8  A    between atoms: C_18  and  C_19
REMARK    9  A    between atoms: C_27  and  C_29
REMARK                            x       y       z     vdW  Elec       q    Type
REMARK                         _______ _______ _______ _____ _____    ______ ____
ROOT
ATOM      1  C   UNL     1      -7.107   2.933  -0.034  0.00  0.00    +0.078 C 
ATOM      2  C   UNL     1      -6.019   3.972  -0.314  0.00  0.00    +0.132 C 
ATOM      3  C   UNL     1      -4.761   3.591   0.478  0.00  0.00    +0.239 C 
ATOM      4  N   UNL     1      -4.303   2.280   0.001  0.00  0.00    -0.303 N 
ATOM      5  C   UNL     1      -5.228   1.281  -0.195  0.00  0.00    +0.078 C 
ATOM      6  C   UNL     1      -6.560   1.545  -0.221  0.00  0.00    +0.065 C 
ATOM      7  H   UNL     1      -3.235   2.107  -0.193  0.00  0.00    +0.150 HD
ENDROOT
BRANCH   1  12
ATOM      8  C   UNL     1      -8.030   2.153   3.543  0.00  0.00    +0.000 A 
ATOM      9  C   UNL     1      -8.483   3.382   3.986  0.00  0.00    +0.001 A 
ATOM     10  C   UNL     1      -8.490   4.466   3.129  0.00  0.00    +0.020 A 
ATOM     11  C   UNL     1      -8.045   4.321   1.827  0.00  0.00    +0.045 A 
ATOM     12  C   UNL     1      -7.592   3.091   1.384  0.00  0.00    -0.020 A 
ATOM     13  C   UNL     1      -7.590   2.006   2.241  0.00  0.00    +0.006 A 
ATOM     14 CL   UNL     1      -8.053   5.683   0.750  0.00  0.00    -0.083 Cl
ENDBRANCH   1  12
BRANCH   3  15
ATOM     15  C   UNL     1      -5.092   3.508   1.969  0.00  0.00    +0.436 C 
ATOM     16  F   UNL     1      -5.609   2.241   2.262  0.00  0.00    -0.166 F 
ATOM     17  F   UNL     1      -3.930   3.723   2.718  0.00  0.00    -0.166 F 
ATOM     18  F   UNL     1      -6.042   4.484   2.291  0.00  0.00    -0.166 F 
ENDBRANCH   3  15
BRANCH   6  19
ATOM     19  C   UNL     1      -7.475   0.465  -0.434  0.00  0.00    +0.098 C 
ATOM     20  N   UNL     1      -8.201  -0.393  -0.604  0.00  0.00    -0.191 NA
ENDBRANCH   6  19
BRANCH   3  21
ATOM     21  O   UNL     1      -3.740   4.569   0.262  0.00  0.00    -0.364 OA
ATOM     22  H   UNL     1      -2.762   4.460   0.753  0.00  0.00    +0.212 HD
ENDBRANCH   3  21
BRANCH   2  23
ATOM     23  C   UNL     1      -5.704   3.989  -1.787  0.00  0.00    +0.178 C 
ATOM     24  O   UNL     1      -5.913   3.003  -2.465  0.00  0.00    -0.291 OA
BRANCH  23  25
ATOM     25  C   UNL     1      -5.165   5.152  -2.381  0.00  0.00    +0.055 A 
ATOM     26  C   UNL     1      -4.807   5.375  -3.707  0.00  0.00    +0.019 A 
ATOM     27  C   UNL     1      -4.303   6.611  -4.016  0.00  0.00    +0.008 A 
ATOM     28  C   UNL     1      -4.178   7.543  -3.032  0.00  0.00    +0.046 A 
ATOM     29  S   UNL     1      -4.773   6.721  -1.627  0.00  0.00    -0.094 S 
ENDBRANCH  23  25
ENDBRANCH   2  23
BRANCH   5  30
ATOM     30  S   UNL     1      -4.674  -0.378  -0.409  0.00  0.00    -0.100 S 
BRANCH  30  31
ATOM     31  C   UNL     1      -2.885  -0.130  -0.285  0.00  0.00    +0.171 C 
BRANCH  31  32
ATOM     32  C   UNL     1      -2.183  -1.454  -0.443  0.00  0.00    +0.221 C 
ATOM     33  O   UNL     1      -2.828  -2.465  -0.622  0.00  0.00    -0.275 OA
ATOM     34  N   UNL     1      -0.837  -1.512  -0.392  0.00  0.00    -0.329 N 
ATOM     35  H   UNL     1      -0.324  -2.479  -0.507  0.00  0.00    +0.145 HD
ATOM     36  H   UNL     1      -0.252  -0.594  -0.235  0.00  0.00    +0.145 HD
ENDBRANCH  31  32
ENDBRANCH  30  31
ENDBRANCH   5  30
TORSDOF 9
