REMARK  Name = ZINC41301350
REMARK  11 active torsions:
REMARK  status: ('A' for Active; 'I' for Inactive)
REMARK    1  A    between atoms: C_1  and  C_2
REMARK    2  A    between atoms: C_2  and  N_3
REMARK    3  A    between atoms: N_3  and  C_4
REMARK    4  A    between atoms: N_3  and  C_6
REMARK    5  A    between atoms: C_4  and  C_5
REMARK    6  A    between atoms: C_6  and  C_7
REMARK    7  A    between atoms: C_7  and  N_8
REMARK    8  A    between atoms: C_12  and  N_27
REMARK    9  A    between atoms: C_13  and  N_15
REMARK   10  A    between atoms: N_15  and  C_16
REMARK   11  A    between atoms: C_23  and  C_26
REMARK                            x       y       z     vdW  Elec       q    Type
REMARK                         _______ _______ _______ _____ _____    ______ ____
ROOT
ATOM      1  N   UNL     1      -0.803  -3.594   2.129  0.00  0.00    -0.315 N 
ATOM      2  C   UNL     1      -0.259  -4.060   3.313  0.00  0.00    +0.219 A 
ATOM      3  N   UNL     1       0.294  -3.197   4.152  0.00  0.00    -0.198 NA
ATOM      4  C   UNL     1       0.826  -3.608   5.301  0.00  0.00    +0.154 A 
ATOM      5  C   UNL     1       0.796  -4.964   5.614  0.00  0.00    +0.205 A 
ATOM      6  C   UNL     1       0.206  -5.840   4.708  0.00  0.00    +0.163 A 
ATOM      7  N   UNL     1      -0.310  -5.356   3.581  0.00  0.00    -0.197 NA
ATOM      8  N   UNL     1       1.404  -2.699   6.173  0.00  0.00    -0.341 N 
ATOM      9  H   UNL     1      -1.214  -4.215   1.507  0.00  0.00    +0.149 HD
ATOM     10  H   UNL     1       1.422  -1.755   5.948  0.00  0.00    +0.144 HD
ATOM     11  H   UNL     1       1.790  -3.006   7.008  0.00  0.00    +0.144 HD
ENDROOT
BRANCH   5  12
ATOM     12  N   UNL     1       1.377  -5.463   6.881  0.00  0.00    +0.063 N 
ATOM     13  O   UNL     1       0.691  -5.535   7.873  0.00  0.00    -0.126 OA
ATOM     14  O   UNL     1       2.538  -5.797   6.923  0.00  0.00    -0.126 OA
ENDBRANCH   5  12
BRANCH   6  15
ATOM     15  N   UNL     1       0.153  -7.201   4.978  0.00  0.00    -0.266 N 
ATOM     16  H   UNL     1       0.528  -7.547   5.803  0.00  0.00    +0.157 HD
BRANCH  15  17
ATOM     17  C   UNL     1      -0.436  -8.064   4.070  0.00  0.00    +0.226 A 
ATOM     18  C   UNL     1      -0.561  -9.403   4.208  0.00  0.00    +0.037 A 
ATOM     19  C   UNL     1      -1.215  -9.902   3.065  0.00  0.00    +0.089 A 
ATOM     20  N   UNL     1      -1.474  -8.905   2.277  0.00  0.00    -0.081 NA
ATOM     21  O   UNL     1      -0.993  -7.721   2.893  0.00  0.00    -0.339 OA
ATOM     22  C   UNL     1      -1.526 -11.364   2.857  0.00  0.00    +0.059 C 
ATOM     23  C   UNL     1      -0.670 -12.180   3.834  0.00  0.00    +0.010 C 
ATOM     24  C   UNL     1      -0.826 -11.621   5.249  0.00  0.00    -0.009 C 
ATOM     25  C   UNL     1      -0.105 -10.271   5.355  0.00  0.00    +0.045 C 
ATOM     26  C   UNL     1      -0.218 -12.601   6.254  0.00  0.00    +0.008 C 
ENDBRANCH  15  17
ENDBRANCH   6  15
BRANCH   1  27
ATOM     27  C   UNL     1      -0.756  -2.164   1.814  0.00  0.00    +0.086 C 
BRANCH  27  28
ATOM     28  C   UNL     1      -1.421  -1.919   0.458  0.00  0.00    -0.060 C 
BRANCH  28  29
ATOM     29  N   UNL     1      -1.374  -0.485   0.142  0.00  0.00    +0.380 N 
ATOM     30  H   UNL     1      -1.792   0.039   0.895  0.00  0.00    -0.082 HD
BRANCH  29  32
ATOM     31  C   UNL     1       0.082   1.451  -0.216  0.00  0.00    -0.017 C 
ATOM     32  C   UNL     1       0.024  -0.066  -0.029  0.00  0.00    -0.082 C 
ENDBRANCH  29  32
BRANCH  29  33
ATOM     33  C   UNL     1      -2.116  -0.233  -1.101  0.00  0.00    -0.082 C 
ATOM     34  C   UNL     1      -3.600  -0.533  -0.879  0.00  0.00    -0.017 C 
ENDBRANCH  29  33
ENDBRANCH  28  29
ENDBRANCH  27  28
ENDBRANCH   1  27
TORSDOF 8
