REMARK  Name = ZINC12472274
REMARK  11 active torsions:
REMARK  status: ('A' for Active; 'I' for Inactive)
REMARK    1  A    between atoms: C_1  and  C_2
REMARK    2  A    between atoms: C_3  and  C_9
REMARK    3  A    between atoms: C_4  and  C_8
REMARK    4  A    between atoms: C_9  and  C_10
REMARK    5  A    between atoms: C_10  and  N_56
REMARK    6  A    between atoms: C_11  and  C_12
REMARK    7  A    between atoms: C_11  and  N_56
REMARK    8  A    between atoms: N_14  and  C_24
REMARK    9  A    between atoms: C_16  and  C_17
REMARK   10  A    between atoms: C_27  and  O_30
REMARK   11  A    between atoms: O_30  and  C_31
REMARK                            x       y       z     vdW  Elec       q    Type
REMARK                         _______ _______ _______ _____ _____    ______ ____
ROOT
ATOM      1  C   UNL     1       2.865  -5.674  -2.668  0.00  0.00    -0.019 A 
ATOM      2  C   UNL     1       4.103  -6.176  -2.873  0.00  0.00    +0.116 A 
ATOM      3  N   UNL     1       3.996  -7.528  -2.948  0.00  0.00    -0.239 N 
ATOM      4  N   UNL     1       2.646  -7.866  -2.792  0.00  0.00    -0.166 NA
ATOM      5  C   UNL     1       1.962  -6.754  -2.624  0.00  0.00    +0.096 A 
ENDROOT
BRANCH   5   6
ATOM      6  C   UNL     1       0.495  -6.655  -2.423  0.00  0.00    +0.021 A 
ATOM      7  C   UNL     1      -0.252  -5.736  -3.158  0.00  0.00    +0.011 A 
ATOM      8  C   UNL     1      -1.615  -5.649  -2.967  0.00  0.00    +0.001 A 
ATOM      9  C   UNL     1      -2.243  -6.471  -2.049  0.00  0.00    +0.001 A 
ATOM     10  C   UNL     1      -1.508  -7.385  -1.315  0.00  0.00    +0.020 A 
ATOM     11  C   UNL     1      -0.143  -7.485  -1.501  0.00  0.00    +0.050 A 
ATOM     12 CL   UNL     1       0.778  -8.637  -0.585  0.00  0.00    -0.083 Cl
ENDBRANCH   5   6
BRANCH   3  13
ATOM     13  C   UNL     1       5.053  -8.428  -3.151  0.00  0.00    +0.066 A 
ATOM     14  C   UNL     1       6.350  -7.954  -3.296  0.00  0.00    +0.031 A 
ATOM     15  C   UNL     1       7.390  -8.841  -3.491  0.00  0.00    +0.048 A 
ATOM     16  C   UNL     1       7.138 -10.204  -3.552  0.00  0.00    +0.120 A 
ATOM     17  C   UNL     1       5.841 -10.677  -3.413  0.00  0.00    +0.048 A 
ATOM     18  C   UNL     1       4.801  -9.792  -3.213  0.00  0.00    +0.031 A 
BRANCH  16  19
ATOM     19  O   UNL     1       8.162 -11.076  -3.749  0.00  0.00    -0.495 OA
ATOM     20  C   UNL     1       9.472 -10.519  -3.884  0.00  0.00    +0.277 C 
ENDBRANCH  16  19
ENDBRANCH   3  13
BRANCH   1  21
ATOM     21  C   UNL     1       2.513  -4.216  -2.521  0.00  0.00    -0.043 C 
BRANCH  21  22
ATOM     22  N   UNL     1       2.245  -3.925  -1.099  0.00  0.00    +0.382 N 
ATOM     23  H   UNL     1       1.479  -4.523  -0.770  0.00  0.00    -0.085 HD
ATOM     24  H   UNL     1       3.091  -4.118  -0.549  0.00  0.00    -0.085 HD
BRANCH  22  25
ATOM     25  C   UNL     1       1.867  -2.510  -0.929  0.00  0.00    -0.077 C 
BRANCH  25  26
ATOM     26  C   UNL     1       1.556  -2.248   0.546  0.00  0.00    +0.020 C 
BRANCH  26  29
ATOM     27  C   UNL     1      -1.341  -1.082   0.366  0.00  0.00    +0.065 C 
ATOM     28  C   UNL     1      -0.085  -0.299   0.651  0.00  0.00    +0.036 A 
ATOM     29  C   UNL     1       1.168  -0.803   0.729  0.00  0.00    -0.006 A 
ATOM     30  C   UNL     1       2.040   0.254   1.010  0.00  0.00    +0.063 A 
ATOM     31  N   UNL     1       1.336   1.353   1.097  0.00  0.00    -0.179 NA
ATOM     32  N   UNL     1      -0.009   1.029   0.874  0.00  0.00    -0.281 N 
ATOM     33  H   UNL     1      -0.777   1.670   0.879  0.00  0.00    +0.189 HD
ATOM     34  C   UNL     1       3.533   0.145   1.183  0.00  0.00    +0.068 C 
ENDBRANCH  26  29
ENDBRANCH  25  26
ENDBRANCH  22  25
ENDBRANCH  21  22
ENDBRANCH   1  21
TORSDOF 8
