REMARK  Name = ZINC04629678
REMARK  11 active torsions:
REMARK  status: ('A' for Active; 'I' for Inactive)
REMARK    1  A    between atoms: C_3  and  O_29
REMARK    2  A    between atoms: C_6  and  C_7
REMARK    3  A    between atoms: C_9  and  C_20
REMARK    4  A    between atoms: C_10  and  O_19
REMARK    5  A    between atoms: N_13  and  C_14
REMARK    6  A    between atoms: C_14  and  C_15
REMARK    7  A    between atoms: C_15  and  N_49
REMARK    8  A    between atoms: C_16  and  C_17
REMARK    9  A    between atoms: C_16  and  N_49
REMARK   10  A    between atoms: C_17  and  O_18
REMARK   11  A    between atoms: C_20  and  C_22
REMARK                            x       y       z     vdW  Elec       q    Type
REMARK                         _______ _______ _______ _____ _____    ______ ____
ROOT
ATOM      1  C   UNL     1       1.216  -1.582  -0.160  0.00  0.00    +0.144 C 
ATOM      2  C   UNL     1       1.348  -2.475  -1.371  0.00  0.00    +0.071 C 
ATOM      3  C   UNL     1       2.405  -3.289  -1.144  0.00  0.00    +0.188 C 
ATOM      4  C   UNL     1       2.987  -2.971   0.177  0.00  0.00    +0.282 C 
ATOM      5  O   UNL     1       3.948  -3.529   0.668  0.00  0.00    -0.267 OA
ATOM      6  N   UNL     1       2.293  -1.973   0.757  0.00  0.00    -0.285 N 
ENDROOT
BRANCH   1  12
ATOM      7  C   UNL     1       0.264   0.676  -0.665  0.00  0.00    +0.009 A 
ATOM      8  C   UNL     1       0.407   2.000  -1.032  0.00  0.00    +0.046 A 
ATOM      9  C   UNL     1       1.669   2.512  -1.297  0.00  0.00    +0.117 A 
ATOM     10  C   UNL     1       2.784   1.693  -1.192  0.00  0.00    +0.046 A 
ATOM     11  C   UNL     1       2.635   0.370  -0.825  0.00  0.00    +0.009 A 
ATOM     12  C   UNL     1       1.376  -0.138  -0.561  0.00  0.00    -0.022 A 
BRANCH   9  13
ATOM     13  O   UNL     1       1.813   3.814  -1.659  0.00  0.00    -0.507 OA
ATOM     14  H   UNL     1       1.941   4.418  -0.914  0.00  0.00    +0.292 HD
ENDBRANCH   9  13
ENDBRANCH   1  12
BRANCH   3  15
ATOM     15  O   UNL     1       2.859  -4.241  -1.992  0.00  0.00    -0.502 OA
ATOM     16  H   UNL     1       3.650  -4.699  -1.586  0.00  0.00    +0.292 HD
ENDBRANCH   3  15
BRANCH   2  17
ATOM     17  C   UNL     1       0.494  -2.463  -2.563  0.00  0.00    +0.195 C 
ATOM     18  O   UNL     1       0.964  -2.162  -3.645  0.00  0.00    -0.287 OA
BRANCH  17  19
ATOM     19  C   UNL     1      -0.936  -2.817  -2.451  0.00  0.00    +0.022 A 
ATOM     20  C   UNL     1      -1.450  -3.282  -1.238  0.00  0.00    +0.014 A 
ATOM     21  C   UNL     1      -2.786  -3.605  -1.138  0.00  0.00    +0.039 A 
ATOM     22  C   UNL     1      -3.617  -3.481  -2.242  0.00  0.00    +0.123 A 
ATOM     23  C   UNL     1      -3.111  -3.025  -3.450  0.00  0.00    +0.039 A 
ATOM     24  C   UNL     1      -1.778  -2.693  -3.560  0.00  0.00    +0.014 A 
ATOM     25  F   UNL     1      -4.925  -3.805  -2.140  0.00  0.00    -0.205 F 
ENDBRANCH  17  19
ENDBRANCH   2  17
BRANCH   6  26
ATOM     26  C   UNL     1       2.566  -1.381   2.069  0.00  0.00    +0.090 C 
BRANCH  26  27
ATOM     27  C   UNL     1       1.784  -2.141   3.143  0.00  0.00    -0.063 C 
BRANCH  27  28
ATOM     28  N   UNL     1       2.064  -1.539   4.461  0.00  0.00    +0.382 N 
ATOM     29  H   UNL     1       1.776  -0.553   4.451  0.00  0.00    -0.086 HD
ATOM     30  H   UNL     1       3.071  -1.599   4.654  0.00  0.00    -0.086 HD
BRANCH  28  31
ATOM     31  C   UNL     1       1.323  -2.252   5.518  0.00  0.00    -0.054 C 
BRANCH  31  32
ATOM     32  C   UNL     1       1.631  -1.607   6.870  0.00  0.00    +0.137 C 
BRANCH  32  33
ATOM     33  O   UNL     1       1.127  -0.270   6.886  0.00  0.00    -0.397 OA
ATOM     34  H   UNL     1       1.288   0.201   7.715  0.00  0.00    +0.209 HD
ENDBRANCH  32  33
ENDBRANCH  31  32
ENDBRANCH  28  31
ENDBRANCH  27  28
ENDBRANCH  26  27
ENDBRANCH   6  26
TORSDOF 11
