REMARK  Name = ZINC12716338
REMARK  9 active torsions:
REMARK  status: ('A' for Active; 'I' for Inactive)
REMARK    1  A    between atoms: C_1  and  C_2
REMARK    2  A    between atoms: C_2  and  C_29
REMARK    3  A    between atoms: C_3  and  C_4
REMARK    4  A    between atoms: C_4  and  N_58
REMARK    5  A    between atoms: C_10  and  C_12
REMARK    6  A    between atoms: C_12  and  C_13
REMARK    7  A    between atoms: N_15  and  C_16
REMARK    8  A    between atoms: C_16  and  C_17
REMARK    9  A    between atoms: C_16  and  C_23
REMARK                            x       y       z     vdW  Elec       q    Type
REMARK                         _______ _______ _______ _____ _____    ______ ____
ROOT
ATOM      1  C   UNL     1      -4.207   0.549  -1.304  0.00  0.00    +0.213 C 
ATOM      2  O   UNL     1      -4.415  -0.645  -1.266  0.00  0.00    -0.276 OA
ATOM      3  N   UNL     1      -3.206   1.083  -0.577  0.00  0.00    -0.305 N 
ATOM      4  H   UNL     1      -3.039   2.038  -0.608  0.00  0.00    +0.150 HD
ENDROOT
BRANCH   1   5
ATOM      5  C   UNL     1      -5.069   1.437  -2.165  0.00  0.00    +0.089 C 
BRANCH   5  11
ATOM      6  C   UNL     1      -6.697  -1.408  -3.997  0.00  0.00    -0.058 C 
ATOM      7  C   UNL     1      -7.183  -2.166  -2.760  0.00  0.00    +0.085 C 
ATOM      8  N   UNL     1      -7.496  -1.226  -1.687  0.00  0.00    -0.318 N 
ATOM      9  C   UNL     1      -7.046   0.033  -1.670  0.00  0.00    +0.200 C 
ATOM     10  O   UNL     1      -7.330   0.738  -0.725  0.00  0.00    -0.278 OA
ATOM     11  C   UNL     1      -6.205   0.611  -2.773  0.00  0.00    +0.028 C 
ATOM     12  H   UNL     1      -8.056  -1.528  -0.955  0.00  0.00    +0.149 HD
ATOM     13  N   UNL     1      -5.626  -0.483  -3.575  0.00  0.00    +0.391 N 
ATOM     14  H   UNL     1      -4.946  -0.997  -3.002  0.00  0.00    -0.080 HD
BRANCH  13  15
ATOM     15  C   UNL     1      -4.935   0.070  -4.762  0.00  0.00    -0.050 C 
BRANCH  15  18
ATOM     16  C   UNL     1      -5.654  -0.035  -7.484  0.00  0.00    +0.038 C 
ATOM     17  C   UNL     1      -4.787  -1.116  -6.892  0.00  0.00    -0.081 C 
ATOM     18  C   UNL     1      -4.453  -1.067  -5.626  0.00  0.00    -0.047 C 
ATOM     19  C   UNL     1      -4.304  -2.252  -7.755  0.00  0.00    +0.038 C 
ENDBRANCH  15  18
ENDBRANCH  13  15
ENDBRANCH   5  11
ENDBRANCH   1   5
BRANCH   3  20
ATOM     20  C   UNL     1      -2.368   0.220   0.260  0.00  0.00    +0.134 C 
BRANCH  20  21
ATOM     21  C   UNL     1      -1.024   0.870   0.464  0.00  0.00    -0.023 A 
ATOM     22  C   UNL     1       0.126   0.103   0.439  0.00  0.00    +0.006 A 
ATOM     23  C   UNL     1       1.359   0.700   0.620  0.00  0.00    +0.000 A 
ATOM     24  C   UNL     1       1.442   2.063   0.832  0.00  0.00    +0.000 A 
ATOM     25  C   UNL     1       0.292   2.830   0.862  0.00  0.00    +0.000 A 
ATOM     26  C   UNL     1      -0.941   2.233   0.680  0.00  0.00    +0.006 A 
ENDBRANCH  20  21
BRANCH  20  27
ATOM     27  C   UNL     1      -3.035   0.016   1.596  0.00  0.00    -0.023 A 
ATOM     28  C   UNL     1      -3.673   1.072   2.219  0.00  0.00    +0.006 A 
ATOM     29  C   UNL     1      -4.289   0.883   3.441  0.00  0.00    +0.000 A 
ATOM     30  C   UNL     1      -4.258  -0.359   4.046  0.00  0.00    +0.000 A 
ATOM     31  C   UNL     1      -3.615  -1.414   3.426  0.00  0.00    +0.000 A 
ATOM     32  C   UNL     1      -3.004  -1.227   2.201  0.00  0.00    +0.006 A 
ENDBRANCH  20  27
ENDBRANCH   3  20
TORSDOF 7
