REMARK  Name = ZINC58913130
REMARK  7 active torsions:
REMARK  status: ('A' for Active; 'I' for Inactive)
REMARK    1  A    between atoms: C_1  and  C_2
REMARK    2  A    between atoms: C_4  and  C_16
REMARK    3  A    between atoms: C_5  and  C_15
REMARK    4  A    between atoms: N_6  and  C_7
REMARK    5  A    between atoms: N_17  and  N_18
REMARK    6  A    between atoms: C_19  and  C_21
REMARK    7  A    between atoms: N_23  and  C_24
REMARK                            x       y       z     vdW  Elec       q    Type
REMARK                         _______ _______ _______ _____ _____    ______ ____
ROOT
ATOM      1  C   UNL     1       0.054  -3.383  -1.461  0.00  0.00    +0.140 C 
ATOM      2  N   UNL     1       0.074  -4.556  -0.901  0.00  0.00    -0.187 NA
ENDROOT
BRANCH   1   6
ATOM      3  C   UNL     1       0.013   1.503   0.011  0.00  0.00    +0.064 C 
ATOM      4  C   UNL     1       0.030  -0.004   0.003  0.00  0.00    +0.022 A 
ATOM      5  C   UNL     1       0.027  -0.780  -1.096  0.00  0.00    +0.032 A 
ATOM      6  C   UNL     1       0.049  -2.169  -0.627  0.00  0.00    +0.016 A 
ATOM      7  C   UNL     1       0.065  -2.112   0.738  0.00  0.00    +0.030 A 
ATOM      8  N   UNL     1       0.058  -0.804   1.110  0.00  0.00    -0.317 N 
ATOM      9  C   UNL     1       0.090  -3.295   1.672  0.00  0.00    +0.064 C 
BRANCH   8  10
ATOM     10  C   UNL     1       0.074  -0.344   2.434  0.00  0.00    +0.048 A 
ATOM     11  C   UNL     1       1.183  -0.577   3.237  0.00  0.00    +0.027 A 
ATOM     12  C   UNL     1       1.197  -0.123   4.541  0.00  0.00    +0.023 A 
ATOM     13  C   UNL     1       0.108   0.564   5.048  0.00  0.00    +0.059 A 
ATOM     14  C   UNL     1      -0.999   0.797   4.250  0.00  0.00    +0.061 A 
ATOM     15  C   UNL     1      -1.015   0.350   2.942  0.00  0.00    +0.047 A 
ATOM     16 CL   UNL     1      -2.364   1.659   4.889  0.00  0.00    -0.082 Cl
ATOM     17 CL   UNL     1       0.129   1.132   6.689  0.00  0.00    -0.082 Cl
ENDBRANCH   8  10
ENDBRANCH   1   6
BRANCH   2  18
ATOM     18  N   UNL     1       0.079  -5.711  -1.694  0.00  0.00    -0.199 N 
ATOM     19  C   UNL     1       0.100  -6.927  -1.113  0.00  0.00    +0.318 C 
ATOM     20  O   UNL     1       0.116  -7.022   0.098  0.00  0.00    -0.263 OA
ATOM     21  H   UNL     1       0.067  -5.635  -2.661  0.00  0.00    +0.178 HD
BRANCH  19  22
ATOM     22  C   UNL     1       0.105  -8.156  -1.957  0.00  0.00    +0.305 C 
ATOM     23  O   UNL     1       0.090  -8.061  -3.168  0.00  0.00    -0.265 OA
ATOM     24  N   UNL     1       0.127  -9.372  -1.377  0.00  0.00    -0.278 N 
ATOM     25  H   UNL     1       0.206  -9.448  -0.413  0.00  0.00    +0.155 HD
BRANCH  24  26
ATOM     26  C   UNL     1       0.034 -10.523  -2.163  0.00  0.00    +0.034 A 
ATOM     27  C   UNL     1      -0.650 -11.636  -1.690  0.00  0.00    +0.024 A 
ATOM     28  C   UNL     1      -0.741 -12.772  -2.470  0.00  0.00    +0.017 A 
ATOM     29  C   UNL     1      -0.151 -12.803  -3.721  0.00  0.00    +0.018 A 
ATOM     30  C   UNL     1       0.532 -11.697  -4.195  0.00  0.00    +0.017 A 
ATOM     31  C   UNL     1       0.621 -10.556  -3.422  0.00  0.00    +0.024 A 
ATOM     32 BR   UNL     1      -0.277 -14.361  -4.785  0.00  0.00    -0.050 Br
ENDBRANCH  24  26
ENDBRANCH  19  22
ENDBRANCH   2  18
TORSDOF 5
