REMARK  Name = ZINC01963030
REMARK  11 active torsions:
REMARK  status: ('A' for Active; 'I' for Inactive)
REMARK    1  A    between atoms: C_1  and  C_2
REMARK    2  A    between atoms: C_7  and  N_8
REMARK    3  A    between atoms: C_9  and  C_11
REMARK    4  A    between atoms: C_14  and  O_17
REMARK    5  A    between atoms: O_17  and  C_18
REMARK    6  A    between atoms: C_18  and  C_19
REMARK    7  A    between atoms: N_21  and  C_22
REMARK    8  A    between atoms: C_23  and  C_33
REMARK    9  A    between atoms: C_28  and  C_32
REMARK   10  A    between atoms: C_33  and  O_35
REMARK   11  A    between atoms: O_35  and  C_36
REMARK                            x       y       z     vdW  Elec       q    Type
REMARK                         _______ _______ _______ _____ _____    ______ ____
ROOT
ATOM      1  O   UNL     1       5.796  -3.660  -1.800  0.00  0.00    -0.483 OA
ENDROOT
BRANCH   1   5
ATOM      2  C   UNL     1       9.198  -2.692  -3.928  0.00  0.00    +0.037 A 
ATOM      3  C   UNL     1       8.897  -4.030  -3.659  0.00  0.00    +0.016 A 
ATOM      4  C   UNL     1       7.761  -4.349  -2.949  0.00  0.00    +0.046 A 
ATOM      5  C   UNL     1       6.914  -3.342  -2.500  0.00  0.00    +0.121 A 
ATOM      6  C   UNL     1       7.207  -2.010  -2.770  0.00  0.00    +0.046 A 
ATOM      7  C   UNL     1       8.344  -1.683  -3.475  0.00  0.00    +0.016 A 
BRANCH   2   9
ATOM      8  N   UNL     1      10.703  -1.056  -4.947  0.00  0.00    -0.281 N 
ATOM      9  C   UNL     1      10.414  -2.346  -4.689  0.00  0.00    +0.248 C 
ATOM     10  O   UNL     1      11.156  -3.226  -5.082  0.00  0.00    -0.270 OA
ATOM     11  H   UNL     1      10.072  -0.359  -4.705  0.00  0.00    +0.155 HD
BRANCH   8  18
ATOM     12  C   UNL     1      10.829   1.376  -6.419  0.00  0.00    +0.046 C 
ATOM     13  C   UNL     1      12.017   0.458  -6.294  0.00  0.00    -0.028 A 
ATOM     14  C   UNL     1      13.213   0.790  -6.900  0.00  0.00    +0.025 A 
ATOM     15  C   UNL     1      14.303  -0.055  -6.790  0.00  0.00    +0.041 A 
ATOM     16  C   UNL     1      14.200  -1.232  -6.069  0.00  0.00    +0.022 A 
ATOM     17  C   UNL     1      13.008  -1.566  -5.457  0.00  0.00    +0.025 A 
ATOM     18  C   UNL     1      11.912  -0.720  -5.566  0.00  0.00    +0.037 A 
ATOM     19 CL   UNL     1      15.804   0.361  -7.557  0.00  0.00    -0.084 Cl
ENDBRANCH   8  18
ENDBRANCH   2   9
ENDBRANCH   1   5
BRANCH   1  20
ATOM     20  C   UNL     1       4.970  -2.576  -1.369  0.00  0.00    +0.324 C 
BRANCH  20  21
ATOM     21  C   UNL     1       3.784  -3.118  -0.614  0.00  0.00    +0.255 C 
ATOM     22  O   UNL     1       3.658  -4.314  -0.460  0.00  0.00    -0.272 OA
ATOM     23  N   UNL     1       2.863  -2.273  -0.109  0.00  0.00    -0.277 N 
ATOM     24  H   UNL     1       2.964  -1.316  -0.231  0.00  0.00    +0.155 HD
BRANCH  23  25
ATOM     25  C   UNL     1       1.772  -2.771   0.586  0.00  0.00    +0.086 A 
ATOM     26  C   UNL     1       0.729  -2.068   1.174  0.00  0.00    +0.091 A 
ATOM     27  C   UNL     1      -0.305  -2.838   1.844  0.00  0.00    -0.021 A 
ATOM     28  C   UNL     1      -0.130  -4.177   1.824  0.00  0.00    -0.004 A 
ATOM     29  S   UNL     1       1.380  -4.423   0.933  0.00  0.00    -0.077 S 
ATOM     30  C   UNL     1      -1.025  -5.214   2.429  0.00  0.00    +0.046 C 
ATOM     31  C   UNL     1      -1.985  -4.516   3.403  0.00  0.00    -0.009 C 
ATOM     32  C   UNL     1      -2.588  -3.291   2.709  0.00  0.00    +0.008 C 
ATOM     33  C   UNL     1      -1.515  -2.215   2.530  0.00  0.00    +0.037 C 
ATOM     34  C   UNL     1      -3.102  -5.483   3.804  0.00  0.00    +0.008 C 
BRANCH  26  35
ATOM     35  C   UNL     1       0.671  -0.606   1.116  0.00  0.00    +0.342 C 
ATOM     36  O   UNL     1       1.188   0.059   1.994  0.00  0.00    -0.245 OA
BRANCH  35  37
ATOM     37  O   UNL     1       0.044   0.004   0.089  0.00  0.00    -0.464 OA
ATOM     38  C   UNL     1       0.025   1.456   0.097  0.00  0.00    +0.280 C 
ENDBRANCH  35  37
ENDBRANCH  26  35
ENDBRANCH  23  25
ENDBRANCH  20  21
ENDBRANCH   1  20
TORSDOF 8
