REMARK  Name = ZINC30942369
REMARK  7 active torsions:
REMARK  status: ('A' for Active; 'I' for Inactive)
REMARK    1  A    between atoms: C_10  and  C_11
REMARK    2  A    between atoms: C_11  and  N_12
REMARK    3  A    between atoms: C_15  and  C_18
REMARK    4  A    between atoms: N_20  and  C_21
REMARK    5  A    between atoms: C_26  and  C_27
REMARK    6  A    between atoms: N_29  and  C_30
REMARK    7  A    between atoms: C_30  and  C_31
REMARK                            x       y       z     vdW  Elec       q    Type
REMARK                         _______ _______ _______ _____ _____    ______ ____
ROOT
ATOM      1  C   UNL     1      -3.771   6.802  -4.661  0.00  0.00    +0.220 C 
ATOM      2  O   UNL     1      -4.725   6.334  -5.246  0.00  0.00    -0.275 OA
ATOM      3  N   UNL     1      -2.963   7.682  -5.284  0.00  0.00    -0.285 N 
ATOM      4  H   UNL     1      -2.063   8.057  -4.776  0.00  0.00    +0.155 HD
ENDROOT
BRANCH   1   8
ATOM      5  N   UNL     1      -2.892   4.325  -1.317  0.00  0.00    +0.382 N 
ATOM      6  C   UNL     1      -1.853   5.283  -1.717  0.00  0.00    -0.078 C 
ATOM      7  C   UNL     1      -2.108   5.745  -3.153  0.00  0.00    -0.006 C 
ATOM      8  C   UNL     1      -3.490   6.399  -3.236  0.00  0.00    +0.072 C 
ATOM      9  C   UNL     1      -4.549   5.396  -2.769  0.00  0.00    -0.006 C 
ATOM     10  C   UNL     1      -4.223   4.944  -1.344  0.00  0.00    -0.078 C 
ATOM     11  H   UNL     1      -2.889   3.504  -2.049  0.00  0.00    -0.081 HD
BRANCH   5  12
ATOM     12  C   UNL     1      -2.602   3.755   0.005  0.00  0.00    -0.042 C 
BRANCH  12  22
ATOM     13  C   UNL     1      -1.103  -0.847  -1.661  0.00  0.00    +0.001 A 
ATOM     14  C   UNL     1      -2.318  -0.166  -1.622  0.00  0.00    +0.001 A 
ATOM     15  C   UNL     1      -2.403   1.088  -1.100  0.00  0.00    +0.009 A 
ATOM     16  C   UNL     1      -1.249   1.709  -0.593  0.00  0.00    -0.017 A 
ATOM     17  C   UNL     1      -0.013   1.017  -0.632  0.00  0.00    -0.018 A 
ATOM     18  C   UNL     1       0.035  -0.277  -1.178  0.00  0.00    +0.008 A 
ATOM     19  C   UNL     1       1.141   1.638  -0.124  0.00  0.00    +0.008 A 
ATOM     20  C   UNL     1       1.056   2.892   0.398  0.00  0.00    +0.001 A 
ATOM     21  C   UNL     1      -0.161   3.570   0.442  0.00  0.00    +0.002 A 
ATOM     22  C   UNL     1      -1.298   3.003  -0.046  0.00  0.00    -0.056 A 
ENDBRANCH  12  22
ENDBRANCH   5  12
ENDBRANCH   1   8
BRANCH   3  23
ATOM     23  C   UNL     1      -3.269   8.117  -6.572  0.00  0.00    +0.046 A 
ATOM     24  C   UNL     1      -3.848   7.245  -7.484  0.00  0.00    +0.024 A 
ATOM     25  C   UNL     1      -4.155   7.680  -8.757  0.00  0.00    +0.002 A 
ATOM     26  C   UNL     1      -3.879   8.983  -9.139  0.00  0.00    +0.001 A 
ATOM     27  C   UNL     1      -3.299   9.861  -8.249  0.00  0.00    +0.015 A 
ATOM     28  C   UNL     1      -2.988   9.437  -6.955  0.00  0.00    +0.058 A 
BRANCH  28  29
ATOM     29  C   UNL     1      -2.366  10.371  -5.997  0.00  0.00    +0.246 C 
ATOM     30  O   UNL     1      -2.014   9.976  -4.903  0.00  0.00    -0.270 OA
ATOM     31  N   UNL     1      -2.189  11.664  -6.336  0.00  0.00    -0.309 N 
ATOM     32  H   UNL     1      -2.507  12.022  -7.326  0.00  0.00    +0.149 HD
BRANCH  31  33
ATOM     33  C   UNL     1      -1.572  12.592  -5.385  0.00  0.00    +0.136 C 
BRANCH  33  34
ATOM     34  C   UNL     1      -1.488  13.985  -6.013  0.00  0.00    +0.135 C 
ATOM     35  C   UNL     1      -0.840  14.969  -5.020  0.00  0.00    +0.035 C 
ATOM     36  C   UNL     1       0.401  15.506  -5.774  0.00  0.00    +0.031 C 
ATOM     37  C   UNL     1       0.037  15.211  -7.251  0.00  0.00    +0.160 C 
ATOM     38  O   UNL     1      -0.653  13.944  -7.182  0.00  0.00    -0.375 OA
ENDBRANCH  33  34
ENDBRANCH  31  33
ENDBRANCH  28  29
ENDBRANCH   3  23
TORSDOF 7
