REMARK  Name = ZINC12041643
REMARK  8 active torsions:
REMARK  status: ('A' for Active; 'I' for Inactive)
REMARK    1  A    between atoms: C_1  and  C_2
REMARK    2  A    between atoms: C_7  and  C_10
REMARK    3  A    between atoms: C_11  and  C_13
REMARK    4  A    between atoms: C_17  and  C_22
REMARK    5  A    between atoms: C_22  and  O_35
REMARK    6  A    between atoms: C_27  and  C_28
REMARK    7  A    between atoms: C_27  and  N_66
REMARK    8  A    between atoms: C_29  and  C_30
REMARK                            x       y       z     vdW  Elec       q    Type
REMARK                         _______ _______ _______ _____ _____    ______ ____
ROOT
ATOM      1  C   UNL     1      -5.663   2.656  -8.375  0.00  0.00    +0.191 A 
ATOM      2  C   UNL     1      -5.250   1.536  -7.727  0.00  0.00    +0.063 A 
ATOM      3  C   UNL     1      -4.337   1.989  -6.678  0.00  0.00    +0.021 A 
ATOM      4  C   UNL     1      -3.589   1.340  -5.692  0.00  0.00    +0.018 A 
ATOM      5  C   UNL     1      -2.814   2.074  -4.838  0.00  0.00    -0.015 A 
ATOM      6  C   UNL     1      -2.758   3.456  -4.951  0.00  0.00    +0.010 A 
ATOM      7  C   UNL     1      -3.485   4.114  -5.919  0.00  0.00    +0.047 A 
ATOM      8  C   UNL     1      -4.285   3.390  -6.796  0.00  0.00    +0.136 A 
ATOM      9  O   UNL     1      -5.088   3.743  -7.818  0.00  0.00    -0.450 OA
ENDROOT
BRANCH   1  18
ATOM     10  C   UNL     1      -4.832   6.956 -10.959  0.00  0.00    +0.039 C 
ATOM     11  C   UNL     1      -5.493   5.599 -11.207  0.00  0.00    +0.133 C 
ATOM     12  C   UNL     1      -6.028   5.040  -9.884  0.00  0.00    +0.139 C 
ATOM     13  N   UNL     1      -6.817   3.833 -10.175  0.00  0.00    -0.290 N 
ATOM     14  C   UNL     1      -7.853   3.918 -11.217  0.00  0.00    +0.139 C 
ATOM     15  C   UNL     1      -7.233   4.533 -12.472  0.00  0.00    +0.133 C 
ATOM     16  O   UNL     1      -6.578   5.756 -12.125  0.00  0.00    -0.371 OA
ATOM     17  C   UNL     1      -8.329   4.815 -13.501  0.00  0.00    +0.039 C 
ATOM     18  C   UNL     1      -6.595   2.681  -9.511  0.00  0.00    +0.282 C 
ATOM     19  O   UNL     1      -7.165   1.662  -9.852  0.00  0.00    -0.267 OA
ENDBRANCH   1  18
BRANCH   5  20
ATOM     20  C   UNL     1      -2.011   1.376  -3.771  0.00  0.00    +0.088 C 
ATOM     21  C   UNL     1      -0.744   2.183  -3.475  0.00  0.00    +0.021 C 
ATOM     22  C   UNL     1       0.038   1.502  -2.350  0.00  0.00    -0.075 C 
ATOM     23  C   UNL     1      -2.003   0.610  -1.394  0.00  0.00    -0.075 C 
ATOM     24  C   UNL     1      -2.845   1.265  -2.491  0.00  0.00    +0.021 C 
ATOM     25  N   UNL     1      -0.811   1.448  -1.141  0.00  0.00    +0.382 N 
ATOM     26  H   UNL     1      -1.116   2.399  -0.905  0.00  0.00    -0.081 HD
BRANCH  20  27
ATOM     27  O   UNL     1      -1.651   0.069  -4.221  0.00  0.00    -0.384 OA
ATOM     28  H   UNL     1      -2.407  -0.498  -4.427  0.00  0.00    +0.211 HD
ENDBRANCH  20  27
BRANCH  25  29
ATOM     29  C   UNL     1      -0.040   0.897  -0.007  0.00  0.00    -0.051 C 
BRANCH  29  30
ATOM     30  C   UNL     1      -0.850   1.056   1.254  0.00  0.00    -0.042 C 
ATOM     31  C   UNL     1      -1.098  -0.001   2.022  0.00  0.00    +0.040 C 
BRANCH  31  32
ATOM     32  C   UNL     1      -1.889   0.154   3.252  0.00  0.00    +0.127 A 
ATOM     33  C   UNL     1      -2.219  -0.841   4.122  0.00  0.00    +0.049 A 
ATOM     34  C   UNL     1      -2.974  -0.247   5.151  0.00  0.00    +0.042 A 
ATOM     35  C   UNL     1      -3.076   1.065   4.860  0.00  0.00    +0.195 A 
ATOM     36  O   UNL     1      -2.419   1.304   3.713  0.00  0.00    -0.464 OA
ENDBRANCH  31  32
ENDBRANCH  29  30
ENDBRANCH  25  29
ENDBRANCH   5  20
TORSDOF 6
