REMARK  Name = ZINC59293844
REMARK  7 active torsions:
REMARK  status: ('A' for Active; 'I' for Inactive)
REMARK    1  A    between atoms: C_1  and  C_2
REMARK    2  A    between atoms: C_6  and  C_7
REMARK    3  A    between atoms: C_9  and  C_26
REMARK    4  A    between atoms: C_10  and  N_25
REMARK    5  A    between atoms: C_14  and  C_21
REMARK    6  A    between atoms: C_18  and  C_19
REMARK    7  A    between atoms: C_21  and  C_22
REMARK                            x       y       z     vdW  Elec       q    Type
REMARK                         _______ _______ _______ _____ _____    ______ ____
ROOT
ATOM      1  C   UNL     1       0.030  -0.179   2.581  0.00  0.00    +0.112 C 
ATOM      2  C   UNL     1       1.278  -0.644   3.271  0.00  0.00    +0.078 C 
ATOM      3  C   UNL     1       1.323  -1.718   4.098  0.00  0.00    +0.110 C 
ATOM      4  N   UNL     1       0.132  -2.407   4.388  0.00  0.00    -0.219 N 
ATOM      5  C   UNL     1       0.105  -3.639   4.899  0.00  0.00    +0.239 C 
ATOM      6  O   UNL     1       1.122  -4.267   5.101  0.00  0.00    -0.274 OA
ATOM      7  C   UNL     1      -1.266  -4.217   5.215  0.00  0.00    +0.150 C 
ATOM      8  S   UNL     1      -2.311  -2.726   4.920  0.00  0.00    -0.095 S 
ATOM      9  C   UNL     1      -1.074  -1.766   4.088  0.00  0.00    +0.091 C 
ATOM     10  C   UNL     1      -1.202  -0.681   3.301  0.00  0.00    +0.070 C 
ENDROOT
BRANCH   1  16
ATOM     11  C   UNL     1      -0.018   1.503   0.010  0.00  0.00    +0.044 C 
ATOM     12  C   UNL     1       0.002  -0.004   0.002  0.00  0.00    -0.039 A 
ATOM     13  C   UNL     1       0.006  -0.699  -1.193  0.00  0.00    +0.011 A 
ATOM     14  C   UNL     1       0.024  -2.054  -1.165  0.00  0.00    +0.046 A 
ATOM     15  S   UNL     1       0.037  -2.387   0.589  0.00  0.00    -0.100 S 
ATOM     16  C   UNL     1       0.023  -0.698   1.166  0.00  0.00    +0.006 A 
ENDBRANCH   1  16
BRANCH   3  17
ATOM     17  N   UNL     1       2.515  -2.127   4.645  0.00  0.00    -0.345 N 
ATOM     18  H   UNL     1       3.333  -1.646   4.440  0.00  0.00    +0.144 HD
ATOM     19  H   UNL     1       2.539  -2.896   5.236  0.00  0.00    +0.144 HD
ENDBRANCH   3  17
BRANCH  10  20
ATOM     20  C   UNL     1      -2.465  -0.022   3.152  0.00  0.00    +0.098 C 
ATOM     21  N   UNL     1      -3.467   0.500   3.034  0.00  0.00    -0.191 NA
ENDBRANCH  10  20
BRANCH   2  22
ATOM     22  C   UNL     1       2.489   0.085   3.044  0.00  0.00    +0.099 C 
ATOM     23  N   UNL     1       3.450   0.664   2.863  0.00  0.00    -0.191 NA
ENDBRANCH   2  22
BRANCH   7  24
ATOM     24  C   UNL     1      -1.353  -4.681   6.671  0.00  0.00    +0.149 C 
BRANCH  24  25
ATOM     25  C   UNL     1      -2.680  -5.355   6.905  0.00  0.00    +0.358 C 
ATOM     26  O   UNL     1      -3.482  -5.456   5.992  0.00  0.00    -0.246 OA
ATOM     27  O   UNL     1      -2.951  -5.800   8.007  0.00  0.00    -0.246 OA
ENDBRANCH  24  25
ENDBRANCH   7  24
TORSDOF 6
