REMARK  Name = ZINC08635113
REMARK  6 active torsions:
REMARK  status: ('A' for Active; 'I' for Inactive)
REMARK    1  A    between atoms: C_1  and  C_2
REMARK    2  A    between atoms: C_8  and  N_10
REMARK    3  A    between atoms: C_14  and  C_16
REMARK    4  A    between atoms: C_16  and  N_17
REMARK    5  A    between atoms: C_20  and  C_24
REMARK    6  A    between atoms: C_20  and  C_25
REMARK                            x       y       z     vdW  Elec       q    Type
REMARK                         _______ _______ _______ _____ _____    ______ ____
ROOT
ATOM      1  C   UNL     1      -2.432  -2.813   0.010  0.00  0.00    +0.214 C 
ENDROOT
BRANCH   1   2
ATOM      2  N   UNL     1      -2.145  -4.249  -0.000  0.00  0.00    -0.215 N 
ATOM      3  C   UNL     1      -2.013  -4.987  -1.121  0.00  0.00    +0.251 C 
ATOM      4  O   UNL     1      -2.105  -4.601  -2.266  0.00  0.00    -0.272 OA
ATOM      5  C   UNL     1      -1.722  -6.398  -0.650  0.00  0.00    +0.135 C 
ATOM      6  N   UNL     1      -1.733  -6.282   0.819  0.00  0.00    -0.281 N 
ATOM      7  C   UNL     1      -1.988  -4.992   1.101  0.00  0.00    +0.310 C 
ATOM      8  O   UNL     1      -2.066  -4.551   2.231  0.00  0.00    -0.252 OA
ATOM      9  C   UNL     1      -2.818  -7.355  -1.123  0.00  0.00    +0.047 C 
ATOM     10  H   UNL     1      -1.584  -6.997   1.457  0.00  0.00    +0.152 HD
BRANCH   5  11
ATOM     11  C   UNL     1      -0.371  -6.856  -1.136  0.00  0.00    -0.014 A 
ATOM     12  C   UNL     1       0.095  -6.444  -2.371  0.00  0.00    +0.006 A 
ATOM     13  C   UNL     1       1.337  -6.859  -2.815  0.00  0.00    +0.001 A 
ATOM     14  C   UNL     1       2.108  -7.695  -2.029  0.00  0.00    +0.015 A 
ATOM     15  C   UNL     1       1.640  -8.111  -0.796  0.00  0.00    +0.018 A 
ATOM     16  C   UNL     1       0.399  -7.691  -0.350  0.00  0.00    +0.021 A 
ATOM     17 BR   UNL     1       2.694  -9.255   0.279  0.00  0.00    -0.050 Br
ENDBRANCH   5  11
ENDBRANCH   1   2
BRANCH   1  22
ATOM     18  N   UNL     1      -0.016   1.344   0.009  0.00  0.00    -0.296 N 
ATOM     19  C   UNL     1       0.002  -0.004   0.002  0.00  0.00    +0.306 C 
ATOM     20  O   UNL     1       1.063  -0.597  -0.011  0.00  0.00    -0.252 OA
ATOM     21  N   UNL     1      -1.156  -0.694   0.009  0.00  0.00    -0.239 N 
ATOM     22  C   UNL     1      -1.137  -2.041   0.002  0.00  0.00    +0.238 C 
ATOM     23  O   UNL     1      -0.080  -2.633  -0.011  0.00  0.00    -0.274 OA
ATOM     24  H   UNL     1      -0.863   1.817   0.016  0.00  0.00    +0.151 HD
ATOM     25  H   UNL     1      -2.002  -0.220   0.020  0.00  0.00    +0.159 HD
BRANCH  18  32
ATOM     26  C   UNL     1       0.529   3.313   2.062  0.00  0.00    +0.009 C 
ATOM     27  C   UNL     1       1.018   3.474   0.621  0.00  0.00    +0.006 C 
ATOM     28  C   UNL     1       2.332   4.257   0.612  0.00  0.00    +0.005 C 
ATOM     29  C   UNL     1       2.821   4.418  -0.829  0.00  0.00    +0.000 C 
ATOM     30  C   UNL     1       3.046   3.037  -1.448  0.00  0.00    +0.002 C 
ATOM     31  C   UNL     1       1.731   2.254  -1.440  0.00  0.00    +0.022 C 
ATOM     32  C   UNL     1       1.242   2.093   0.001  0.00  0.00    +0.077 C 
ENDBRANCH  18  32
ENDBRANCH   1  22
TORSDOF 4
