REMARK  Name = ZINC20059221
REMARK  10 active torsions:
REMARK  status: ('A' for Active; 'I' for Inactive)
REMARK    1  A    between atoms: C_1  and  N_2
REMARK    2  A    between atoms: C_10  and  O_34
REMARK    3  A    between atoms: C_12  and  C_15
REMARK    4  A    between atoms: C_18  and  O_23
REMARK    5  A    between atoms: C_19  and  O_21
REMARK    6  A    between atoms: O_21  and  C_22
REMARK    7  A    between atoms: O_23  and  C_24
REMARK    8  A    between atoms: C_24  and  C_26
REMARK    9  A    between atoms: C_29  and  O_32
REMARK   10  A    between atoms: O_32  and  C_33
REMARK                            x       y       z     vdW  Elec       q    Type
REMARK                         _______ _______ _______ _____ _____    ______ ____
ROOT
ATOM      1  C   UNL     1      -1.324  -6.529   3.262  0.00  0.00    -0.002 A 
ATOM      2  C   UNL     1      -0.729  -6.207   4.468  0.00  0.00    +0.011 A 
ATOM      3  C   UNL     1      -1.503  -6.045   5.602  0.00  0.00    +0.050 A 
ATOM      4  C   UNL     1      -2.878  -6.203   5.531  0.00  0.00    +0.173 A 
ATOM      5  C   UNL     1      -3.476  -6.527   4.317  0.00  0.00    +0.163 A 
ATOM      6  C   UNL     1      -2.695  -6.683   3.183  0.00  0.00    +0.056 A 
ENDROOT
BRANCH   1  18
ATOM      7  C   UNL     1       0.113   1.480   0.100  0.00  0.00    -0.096 C 
ATOM      8  N   UNL     1       0.102   0.011   0.072  0.00  0.00    +0.381 N 
ATOM      9  C   UNL     1      -1.286  -0.469   0.077  0.00  0.00    -0.074 C 
ATOM     10  C   UNL     1      -1.330  -1.962  -0.265  0.00  0.00    +0.018 C 
ATOM     11  C   UNL     1      -0.364  -2.684   0.663  0.00  0.00    -0.027 A 
ATOM     12  C   UNL     1       0.584  -1.984   1.331  0.00  0.00    -0.021 A 
ATOM     13  S   UNL     1       1.461  -3.200   2.274  0.00  0.00    -0.080 S 
ATOM     14  C   UNL     1       0.624  -4.557   1.817  0.00  0.00    +0.080 A 
ATOM     15  C   UNL     1      -0.354  -4.110   0.918  0.00  0.00    +0.067 A 
ATOM     16  C   UNL     1      -1.256  -5.132   0.326  0.00  0.00    +0.220 C 
ATOM     17  N   UNL     1      -1.254  -6.324   0.857  0.00  0.00    -0.223 NA
ATOM     18  C   UNL     1      -0.475  -6.705   2.029  0.00  0.00    +0.224 C 
ATOM     19  N   UNL     1       0.742  -5.884   2.163  0.00  0.00    -0.313 N 
ATOM     20  C   UNL     1       0.810  -0.508   1.257  0.00  0.00    -0.036 C 
ATOM     21  H   UNL     1       1.580  -6.258   2.477  0.00  0.00    +0.149 HD
ATOM     22  H   UNL     1       0.566  -0.312  -0.764  0.00  0.00    -0.082 HD
BRANCH  16  23
ATOM     23  O   UNL     1      -2.053  -4.836  -0.727  0.00  0.00    -0.492 OA
ATOM     24  H   UNL     1      -2.597  -5.576  -1.029  0.00  0.00    +0.294 HD
ENDBRANCH  16  23
ENDBRANCH   1  18
BRANCH   5  25
ATOM     25  O   UNL     1      -4.825  -6.684   4.242  0.00  0.00    -0.491 OA
ATOM     26  C   UNL     1      -5.370  -7.015   2.964  0.00  0.00    +0.277 C 
ENDBRANCH   5  25
BRANCH   4  27
ATOM     27  O   UNL     1      -3.640  -6.044   6.646  0.00  0.00    -0.419 OA
BRANCH  27  28
ATOM     28  C   UNL     1      -4.025  -7.150   7.312  0.00  0.00    +0.345 C 
ATOM     29  O   UNL     1      -3.611  -8.240   6.971  0.00  0.00    -0.245 OA
BRANCH  28  30
ATOM     30  C   UNL     1      -4.950  -7.037   8.455  0.00  0.00    +0.060 A 
ATOM     31  C   UNL     1      -5.433  -5.785   8.846  0.00  0.00    +0.018 A 
ATOM     32  C   UNL     1      -6.296  -5.684   9.914  0.00  0.00    +0.046 A 
ATOM     33  C   UNL     1      -6.687  -6.826  10.604  0.00  0.00    +0.120 A 
ATOM     34  C   UNL     1      -6.209  -8.073  10.219  0.00  0.00    +0.046 A 
ATOM     35  C   UNL     1      -5.351  -8.183   9.148  0.00  0.00    +0.018 A 
BRANCH  33  36
ATOM     36  O   UNL     1      -7.537  -6.722  11.656  0.00  0.00    -0.495 OA
ATOM     37  C   UNL     1      -7.898  -7.935  12.321  0.00  0.00    +0.277 C 
ENDBRANCH  33  36
ENDBRANCH  28  30
ENDBRANCH  27  28
ENDBRANCH   4  27
TORSDOF 7
