REMARK  Name = ZINC19005898
REMARK  9 active torsions:
REMARK  status: ('A' for Active; 'I' for Inactive)
REMARK    1  A    between atoms: C_1  and  C_2
REMARK    2  A    between atoms: C_2  and  O_3
REMARK    3  A    between atoms: O_3  and  C_4
REMARK    4  A    between atoms: C_7  and  C_13
REMARK    5  A    between atoms: C_9  and  N_10
REMARK    6  A    between atoms: N_15  and  C_16
REMARK    7  A    between atoms: C_16  and  C_17
REMARK    8  A    between atoms: C_20  and  S_23
REMARK    9  A    between atoms: S_23  and  N_26
REMARK                            x       y       z     vdW  Elec       q    Type
REMARK                         _______ _______ _______ _____ _____    ______ ____
ROOT
ATOM      1  C   UNL     1      -1.997  -6.064  -0.011  0.00  0.00    +0.244 C 
ATOM      2  O   UNL     1      -3.114  -6.543  -0.008  0.00  0.00    -0.270 OA
ATOM      3  N   UNL     1      -0.917  -6.870  -0.021  0.00  0.00    -0.307 N 
ATOM      4  H   UNL     1      -0.026  -6.487  -0.024  0.00  0.00    +0.149 HD
ENDROOT
BRANCH   1   8
ATOM      5  C   UNL     1      -1.498  -1.846   0.006  0.00  0.00    +0.151 A 
ATOM      6  C   UNL     1      -0.383  -2.676  -0.003  0.00  0.00    +0.049 A 
ATOM      7  C   UNL     1      -0.541  -4.044  -0.009  0.00  0.00    +0.017 A 
ATOM      8  C   UNL     1      -1.824  -4.598  -0.005  0.00  0.00    +0.039 A 
ATOM      9  C   UNL     1      -2.942  -3.760   0.005  0.00  0.00    +0.049 A 
ATOM     10  C   UNL     1      -2.776  -2.393   0.016  0.00  0.00    +0.168 A 
BRANCH  10  11
ATOM     11  N   UNL     1      -3.960  -1.505   0.032  0.00  0.00    +0.060 N 
ATOM     12  O   UNL     1      -5.072  -1.979   0.040  0.00  0.00    -0.126 OA
ATOM     13  O   UNL     1      -3.815  -0.304   0.037  0.00  0.00    -0.126 OA
ENDBRANCH  10  11
BRANCH   5  14
ATOM     14  O   UNL     1      -1.339  -0.499   0.012  0.00  0.00    -0.490 OA
BRANCH  14  16
ATOM     15  C   UNL     1      -0.019   1.526   0.010  0.00  0.00    +0.048 C 
ATOM     16  C   UNL     1       0.002  -0.004   0.002  0.00  0.00    +0.226 C 
ENDBRANCH  14  16
ENDBRANCH   5  14
ENDBRANCH   1   8
BRANCH   3  17
ATOM     17  C   UNL     1      -1.090  -8.325  -0.028  0.00  0.00    +0.139 C 
BRANCH  17  18
ATOM     18  C   UNL     1       0.262  -8.991  -0.039  0.00  0.00    -0.030 A 
ATOM     19  C   UNL     1       0.878  -9.285  -1.241  0.00  0.00    +0.007 A 
ATOM     20  C   UNL     1       2.119  -9.895  -1.250  0.00  0.00    +0.029 A 
ATOM     21  C   UNL     1       2.743 -10.212  -0.058  0.00  0.00    +0.105 A 
ATOM     22  C   UNL     1       2.127  -9.917   1.144  0.00  0.00    +0.029 A 
ATOM     23  C   UNL     1       0.889  -9.302   1.154  0.00  0.00    +0.007 A 
BRANCH  21  24
ATOM     24  S   UNL     1       4.323 -10.991  -0.071  0.00  0.00    +0.056 S 
ATOM     25  O   UNL     1       4.448 -11.676   1.168  0.00  0.00    -0.153 OA
ATOM     26  O   UNL     1       4.439 -11.654  -1.322  0.00  0.00    -0.153 OA
BRANCH  24  27
ATOM     27  N   UNL     1       5.462  -9.789  -0.064  0.00  0.00    -0.204 NA
ATOM     28  H   UNL     1       6.325  -9.941   0.352  0.00  0.00    +0.144 HD
ATOM     29  H   UNL     1       5.266  -8.933  -0.476  0.00  0.00    +0.144 HD
ENDBRANCH  24  27
ENDBRANCH  21  24
ENDBRANCH  17  18
ENDBRANCH   3  17
TORSDOF 8
