REMARK  Name = ZINC20615214
REMARK  8 active torsions:
REMARK  status: ('A' for Active; 'I' for Inactive)
REMARK    1  A    between atoms: C_1  and  C_2
REMARK    2  A    between atoms: C_2  and  N_3
REMARK    3  A    between atoms: N_3  and  C_4
REMARK    4  A    between atoms: N_3  and  C_6
REMARK    5  A    between atoms: C_4  and  C_5
REMARK    6  A    between atoms: C_11  and  C_30
REMARK    7  A    between atoms: N_13  and  N_14
REMARK    8  A    between atoms: C_15  and  C_17
REMARK                            x       y       z     vdW  Elec       q    Type
REMARK                         _______ _______ _______ _____ _____    ______ ____
ROOT
ATOM      1  C   UNL     1      -4.866  -7.824   1.441  0.00  0.00    +0.033 A 
ATOM      2  C   UNL     1      -3.703  -8.586   1.543  0.00  0.00    +0.024 A 
ATOM      3  C   UNL     1      -2.506  -8.079   1.127  0.00  0.00    +0.013 A 
ATOM      4  C   UNL     1      -2.441  -6.781   0.599  0.00  0.00    +0.018 A 
ATOM      5  C   UNL     1      -1.193  -6.231   0.204  0.00  0.00    +0.030 A 
ATOM      6  C   UNL     1      -1.141  -4.885  -0.114  0.00  0.00    +0.098 A 
ATOM      7  C   UNL     1      -2.393  -4.106   0.015  0.00  0.00    +0.224 A 
ATOM      8  N   UNL     1      -2.371  -2.817   0.222  0.00  0.00    -0.273 N 
ATOM      9  O   UNL     1      -3.571  -4.785  -0.084  0.00  0.00    -0.437 OA
ATOM     10  C   UNL     1      -3.618  -6.020   0.470  0.00  0.00    +0.139 A 
ATOM     11  C   UNL     1      -4.823  -6.543   0.903  0.00  0.00    +0.070 A 
ATOM     12  H   UNL     1      -3.303  -2.235   0.172  0.00  0.00    +0.188 HD
ENDROOT
BRANCH   6  13
ATOM     13  C   UNL     1       0.109  -4.253  -0.563  0.00  0.00    +0.247 C 
ATOM     14  O   UNL     1       1.180  -4.675  -0.169  0.00  0.00    -0.270 OA
ATOM     15  N   UNL     1       0.068  -3.206  -1.411  0.00  0.00    -0.325 N 
ATOM     16  H   UNL     1       1.003  -2.733  -1.747  0.00  0.00    +0.145 HD
ATOM     17  H   UNL     1      -0.900  -2.824  -1.768  0.00  0.00    +0.145 HD
ENDBRANCH   6  13
BRANCH   8  18
ATOM     18  N   UNL     1      -1.159  -2.175   0.508  0.00  0.00    -0.223 N 
ATOM     19  C   UNL     1      -1.116  -0.832   0.612  0.00  0.00    +0.263 C 
ATOM     20  O   UNL     1      -2.130  -0.177   0.458  0.00  0.00    -0.268 OA
ATOM     21  H   UNL     1      -0.242  -2.767   0.647  0.00  0.00    +0.175 HD
BRANCH  19  22
ATOM     22  C   UNL     1       0.162  -0.154   0.913  0.00  0.00    +0.057 A 
ATOM     23  C   UNL     1       0.212   1.231   1.022  0.00  0.00    +0.024 A 
ATOM     24  C   UNL     1       1.452   1.825   1.309  0.00  0.00    +0.001 A 
ATOM     25  C   UNL     1       1.582   3.219   1.434  0.00  0.00    +0.010 A 
ATOM     26  C   UNL     1       2.800   3.759   1.712  0.00  0.00    +0.001 A 
ATOM     27  C   UNL     1       3.921   2.947   1.875  0.00  0.00    +0.002 A 
ATOM     28  C   UNL     1       3.832   1.594   1.763  0.00  0.00    +0.028 A 
ATOM     29  C   UNL     1       2.592   0.997   1.476  0.00  0.00    +0.071 A 
ATOM     30  N   UNL     1       2.481  -0.331   1.359  0.00  0.00    -0.254 NA
ATOM     31  C   UNL     1       1.337  -0.905   1.091  0.00  0.00    +0.124 A 
ENDBRANCH  19  22
ENDBRANCH   8  18
BRANCH   1  32
ATOM     32  N   UNL     1      -6.077  -8.348   1.880  0.00  0.00    -0.330 N 
BRANCH  32  34
ATOM     33  C   UNL     1      -5.905  -9.623   3.960  0.00  0.00    +0.024 C 
ATOM     34  C   UNL     1      -6.128  -9.698   2.448  0.00  0.00    +0.102 C 
ENDBRANCH  32  34
BRANCH  32  35
ATOM     35  C   UNL     1      -7.302  -7.551   1.774  0.00  0.00    +0.102 C 
ATOM     36  C   UNL     1      -7.969  -7.818   0.424  0.00  0.00    +0.024 C 
ENDBRANCH  32  35
ENDBRANCH   1  32
TORSDOF 6
