REMARK  Name = ZINC63291126
REMARK  11 active torsions:
REMARK  status: ('A' for Active; 'I' for Inactive)
REMARK    1  A    between atoms: C_1  and  O_2
REMARK    2  A    between atoms: O_2  and  C_3
REMARK    3  A    between atoms: C_6  and  C_11
REMARK    4  A    between atoms: C_8  and  O_9
REMARK    5  A    between atoms: O_9  and  C_10
REMARK    6  A    between atoms: C_12  and  C_13
REMARK    7  A    between atoms: C_12  and  N_27
REMARK    8  A    between atoms: N_15  and  C_16
REMARK    9  A    between atoms: C_16  and  C_17
REMARK   10  A    between atoms: C_17  and  C_18
REMARK   11  A    between atoms: C_28  and  C_30
REMARK                            x       y       z     vdW  Elec       q    Type
REMARK                         _______ _______ _______ _____ _____    ______ ____
ROOT
ATOM      1  C   UNL     1      -5.101  -2.600  -0.404  0.00  0.00    +0.036 C 
ATOM      2  C   UNL     1      -6.109  -1.894   0.158  0.00  0.00    +0.097 C 
ENDROOT
BRANCH   1   6
ATOM      3  C   UNL     1      -1.938  -0.571  -2.378  0.00  0.00    +0.162 A 
ATOM      4  C   UNL     1      -3.225  -0.051  -2.415  0.00  0.00    +0.050 A 
ATOM      5  C   UNL     1      -4.255  -0.707  -1.776  0.00  0.00    +0.012 A 
ATOM      6  C   UNL     1      -4.004  -1.899  -1.087  0.00  0.00    -0.019 A 
ATOM      7  C   UNL     1      -2.706  -2.422  -1.051  0.00  0.00    +0.057 A 
ATOM      8  C   UNL     1      -1.681  -1.760  -1.699  0.00  0.00    +0.162 A 
BRANCH   3  10
ATOM      9  C   UNL     1      -1.259   1.294  -3.687  0.00  0.00    +0.277 C 
ATOM     10  O   UNL     1      -0.927   0.080  -3.010  0.00  0.00    -0.491 OA
ENDBRANCH   3  10
BRANCH   8  11
ATOM     11  O   UNL     1      -0.420  -2.268  -1.670  0.00  0.00    -0.491 OA
ATOM     12  C   UNL     1      -0.229  -3.491  -0.955  0.00  0.00    +0.277 C 
ENDBRANCH   8  11
ENDBRANCH   1   6
BRANCH   2  13
ATOM     13  C   UNL     1      -6.036  -0.428   0.217  0.00  0.00    +0.258 C 
ATOM     14  O   UNL     1      -6.723   0.246  -0.526  0.00  0.00    -0.269 OA
ATOM     15  N   UNL     1      -5.207   0.170   1.096  0.00  0.00    -0.310 N 
ATOM     16  H   UNL     1      -4.607  -0.365   1.638  0.00  0.00    +0.149 HD
BRANCH  15  17
ATOM     17  C   UNL     1      -5.212   1.629   1.231  0.00  0.00    +0.109 C 
BRANCH  17  18
ATOM     18  C   UNL     1      -4.186   2.047   2.287  0.00  0.00    +0.052 C 
BRANCH  18  19
ATOM     19  C   UNL     1      -4.191   3.547   2.426  0.00  0.00    -0.040 C 
ATOM     20  C   UNL     1      -4.878   4.277   3.333  0.00  0.00    -0.001 A 
ATOM     21  C   UNL     1      -5.792   3.907   4.421  0.00  0.00    +0.010 A 
ATOM     22  C   UNL     1      -6.340   4.885   5.178  0.00  0.00    +0.001 A 
ATOM     23  C   UNL     1      -6.057   6.239   4.952  0.00  0.00    +0.002 A 
ATOM     24  C   UNL     1      -5.228   6.657   3.972  0.00  0.00    +0.026 A 
ATOM     25  C   UNL     1      -4.596   5.714   3.115  0.00  0.00    +0.043 A 
ATOM     26  N   UNL     1      -3.766   5.866   2.111  0.00  0.00    -0.380 N 
ATOM     27  C   UNL     1      -3.424   4.541   1.583  0.00  0.00    +0.144 C 
ATOM     28  H   UNL     1      -3.432   6.713   1.777  0.00  0.00    +0.160 HD
ENDBRANCH  18  19
ENDBRANCH  17  18
ENDBRANCH  15  17
ENDBRANCH   2  13
BRANCH   2  29
ATOM     29  N   UNL     1      -7.222  -2.560   0.683  0.00  0.00    -0.277 N 
ATOM     30  C   UNL     1      -8.206  -1.860   1.281  0.00  0.00    +0.248 C 
ATOM     31  O   UNL     1      -8.174  -0.644   1.282  0.00  0.00    -0.270 OA
ATOM     32  H   UNL     1      -7.285  -3.526   0.617  0.00  0.00    +0.155 HD
BRANCH  30  33
ATOM     33  C   UNL     1      -9.325  -2.570   1.936  0.00  0.00    +0.037 A 
ATOM     34  C   UNL     1      -9.363  -3.965   1.942  0.00  0.00    +0.013 A 
ATOM     35  C   UNL     1     -10.410  -4.622   2.555  0.00  0.00    +0.001 A 
ATOM     36  C   UNL     1     -11.422  -3.900   3.163  0.00  0.00    +0.000 A 
ATOM     37  C   UNL     1     -11.391  -2.517   3.160  0.00  0.00    +0.001 A 
ATOM     38  C   UNL     1     -10.346  -1.848   2.557  0.00  0.00    +0.013 A 
ENDBRANCH  30  33
ENDBRANCH   2  29
TORSDOF 9
