REMARK  Name = ZINC22694277
REMARK  6 active torsions:
REMARK  status: ('A' for Active; 'I' for Inactive)
REMARK    1  A    between atoms: C_1  and  C_2
REMARK    2  A    between atoms: C_15  and  C_17
REMARK    3  A    between atoms: C_17  and  N_18
REMARK    4  A    between atoms: N_18  and  C_19
REMARK    5  A    between atoms: C_24  and  C_25
REMARK    6  A    between atoms: N_27  and  C_28
REMARK                            x       y       z     vdW  Elec       q    Type
REMARK                         _______ _______ _______ _____ _____    ______ ____
ROOT
ATOM      1  N   UNL     1       0.012   4.535  -3.278  0.00  0.00    -0.335 N 
ATOM      2  H   UNL     1       0.094   5.605  -3.038  0.00  0.00    +0.147 HD
ENDROOT
BRANCH   1   3
ATOM      3  C   UNL     1      -0.414   4.137  -4.538  0.00  0.00    +0.040 A 
ATOM      4  C   UNL     1      -0.410   2.791  -4.885  0.00  0.00    +0.024 A 
ATOM      5  C   UNL     1      -0.839   2.398  -6.136  0.00  0.00    +0.002 A 
ATOM      6  C   UNL     1      -1.266   3.340  -7.059  0.00  0.00    +0.001 A 
ATOM      7  C   UNL     1      -1.272   4.679  -6.736  0.00  0.00    +0.015 A 
ATOM      8  C   UNL     1      -0.846   5.093  -5.471  0.00  0.00    +0.058 A 
BRANCH   8   9
ATOM      9  C   UNL     1      -0.850   6.524  -5.119  0.00  0.00    +0.250 C 
ATOM     10  O   UNL     1      -0.385   6.890  -4.057  0.00  0.00    -0.270 OA
ATOM     11  N   UNL     1      -1.368   7.427  -5.975  0.00  0.00    -0.281 N 
ATOM     12  H   UNL     1      -1.854   7.090  -6.902  0.00  0.00    +0.155 HD
BRANCH  11  13
ATOM     13  C   UNL     1      -1.288   8.793  -5.683  0.00  0.00    +0.034 A 
ATOM     14  C   UNL     1      -1.391   9.231  -4.369  0.00  0.00    +0.025 A 
ATOM     15  C   UNL     1      -1.308  10.580  -4.083  0.00  0.00    +0.022 A 
ATOM     16  C   UNL     1      -1.131  11.495  -5.106  0.00  0.00    +0.041 A 
ATOM     17  C   UNL     1      -1.033  11.062  -6.417  0.00  0.00    +0.022 A 
ATOM     18  C   UNL     1      -1.111   9.714  -6.707  0.00  0.00    +0.025 A 
ATOM     19 CL   UNL     1      -1.032  13.190  -4.744  0.00  0.00    -0.084 Cl
ENDBRANCH  11  13
ENDBRANCH   8   9
ENDBRANCH   1   3
BRANCH   1  20
ATOM     20  C   UNL     1       0.352   3.529  -2.268  0.00  0.00    +0.198 C 
BRANCH  20  34
ATOM     21  C   UNL     1       0.416   4.092   2.327  0.00  0.00    +0.029 C 
ATOM     22  C   UNL     1       1.562   4.142   1.315  0.00  0.00    +0.087 C 
ATOM     23  C   UNL     1       2.783   3.425   1.894  0.00  0.00    +0.118 C 
ATOM     24  C   UNL     1       3.767   3.111   0.799  0.00  0.00    +0.219 C 
ATOM     25  O   UNL     1       4.777   3.774   0.687  0.00  0.00    -0.275 OA
ATOM     26  N   UNL     1       3.533   2.096  -0.061  0.00  0.00    -0.284 N 
ATOM     27  C   UNL     1       2.329   1.384  -0.008  0.00  0.00    +0.055 A 
ATOM     28  C   UNL     1       2.322  -0.001  -0.003  0.00  0.00    +0.025 A 
ATOM     29  C   UNL     1       1.119  -0.682   0.020  0.00  0.00    +0.002 A 
ATOM     30  C   UNL     1      -0.076   0.013   0.032  0.00  0.00    +0.002 A 
ATOM     31  C   UNL     1      -0.078   1.396   0.032  0.00  0.00    +0.025 A 
ATOM     32  C   UNL     1       1.123   2.086   0.023  0.00  0.00    +0.058 A 
ATOM     33  N   UNL     1       1.143   3.486   0.075  0.00  0.00    -0.265 N 
ATOM     34  C   UNL     1       0.781   4.217  -0.998  0.00  0.00    +0.237 C 
ATOM     35  O   UNL     1       0.802   5.428  -0.942  0.00  0.00    -0.274 OA
ATOM     36  H   UNL     1       4.291   1.823  -0.810  0.00  0.00    +0.155 HD
ENDBRANCH  20  34
ENDBRANCH   1  20
TORSDOF 5
