REMARK  Name = ZINC63800231
REMARK  7 active torsions:
REMARK  status: ('A' for Active; 'I' for Inactive)
REMARK    1  A    between atoms: C_1  and  C_2
REMARK    2  A    between atoms: N_4  and  C_5
REMARK    3  A    between atoms: C_8  and  C_11
REMARK    4  A    between atoms: N_13  and  C_14
REMARK    5  A    between atoms: C_14  and  C_15
REMARK    6  A    between atoms: C_15  and  C_17
REMARK    7  A    between atoms: C_15  and  C_22
REMARK                            x       y       z     vdW  Elec       q    Type
REMARK                         _______ _______ _______ _____ _____    ______ ____
ROOT
ATOM      1  C   UNL     1       0.648  -8.364  -2.686  0.00  0.00    +0.117 C 
ENDROOT
BRANCH   1   4
ATOM      2  C   UNL     1       0.438  -6.290  -1.424  0.00  0.00    +0.244 C 
ATOM      3  O   UNL     1       0.448  -6.946  -0.401  0.00  0.00    -0.270 OA
ATOM      4  N   UNL     1       0.533  -6.905  -2.620  0.00  0.00    -0.310 N 
ATOM      5  H   UNL     1       0.526  -6.382  -3.436  0.00  0.00    +0.149 HD
BRANCH   2   9
ATOM      6  C   UNL     1       0.108  -2.060  -1.232  0.00  0.00    +0.033 A 
ATOM      7  C   UNL     1       0.118  -2.810  -0.060  0.00  0.00    +0.024 A 
ATOM      8  C   UNL     1       0.225  -4.181  -0.118  0.00  0.00    +0.015 A 
ATOM      9  C   UNL     1       0.323  -4.820  -1.357  0.00  0.00    +0.037 A 
ATOM     10  C   UNL     1       0.313  -4.064  -2.533  0.00  0.00    +0.015 A 
ATOM     11  C   UNL     1       0.201  -2.694  -2.467  0.00  0.00    +0.024 A 
BRANCH   6  15
ATOM     12  C   UNL     1       0.558   1.512  -0.148  0.00  0.00    +0.109 C 
ATOM     13  C   UNL     1       0.586   0.005  -0.161  0.00  0.00    +0.214 C 
ATOM     14  O   UNL     1       1.136  -0.599   0.735  0.00  0.00    -0.276 OA
ATOM     15  N   UNL     1       0.000  -0.672  -1.169  0.00  0.00    -0.286 N 
ATOM     16  H   UNL     1      -0.497  -0.193  -1.850  0.00  0.00    +0.155 HD
ENDBRANCH   6  15
ENDBRANCH   2   9
ENDBRANCH   1   4
BRANCH   1  17
ATOM     17  C   UNL     1       0.740  -8.803  -4.149  0.00  0.00    +0.071 C 
BRANCH  17  18
ATOM     18  C   UNL     1       0.734 -10.308  -4.224  0.00  0.00    -0.032 C 
ATOM     19  C   UNL     1      -0.165 -11.086  -4.868  0.00  0.00    -0.000 A 
ATOM     20  C   UNL     1      -1.361 -10.777  -5.661  0.00  0.00    +0.010 A 
ATOM     21  C   UNL     1      -2.077 -11.793  -6.192  0.00  0.00    +0.001 A 
ATOM     22  C   UNL     1      -1.707 -13.132  -6.005  0.00  0.00    +0.002 A 
ATOM     23  C   UNL     1      -0.622 -13.496  -5.289  0.00  0.00    +0.026 A 
ATOM     24  C   UNL     1       0.205 -12.508  -4.685  0.00  0.00    +0.043 A 
ATOM     25  N   UNL     1       1.290 -12.605  -3.956  0.00  0.00    -0.380 N 
ATOM     26  C   UNL     1       1.735 -11.253  -3.599  0.00  0.00    +0.145 C 
ATOM     27  H   UNL     1       1.728 -13.431  -3.699  0.00  0.00    +0.160 HD
ENDBRANCH  17  18
BRANCH  17  28
ATOM     28  C   UNL     1       2.016  -8.275  -4.752  0.00  0.00    -0.002 A 
ATOM     29  C   UNL     1       2.180  -7.437  -5.805  0.00  0.00    +0.012 A 
ATOM     30  C   UNL     1       3.461  -7.083  -6.186  0.00  0.00    +0.008 A 
ATOM     31  C   UNL     1       4.514  -7.584  -5.497  0.00  0.00    +0.045 A 
ATOM     32  S   UNL     1       3.704  -8.585  -4.260  0.00  0.00    -0.101 S 
ENDBRANCH  17  28
ENDBRANCH   1  17
TORSDOF 6
