REMARK  Name = ZINC38806078
REMARK  10 active torsions:
REMARK  status: ('A' for Active; 'I' for Inactive)
REMARK    1  A    between atoms: C_1  and  C_2
REMARK    2  A    between atoms: C_2  and  O_3
REMARK    3  A    between atoms: O_3  and  C_4
REMARK    4  A    between atoms: C_4  and  C_6
REMARK    5  A    between atoms: C_10  and  N_11
REMARK    6  A    between atoms: C_12  and  C_14
REMARK    7  A    between atoms: C_22  and  C_28
REMARK    8  A    between atoms: C_22  and  C_29
REMARK    9  A    between atoms: C_24  and  C_26
REMARK   10  A    between atoms: C_24  and  C_27
REMARK                            x       y       z     vdW  Elec       q    Type
REMARK                         _______ _______ _______ _____ _____    ______ ____
ROOT
ATOM      1  C   UNL     1      -2.843  -2.416   0.016  0.00  0.00    +0.091 A 
ATOM      2  C   UNL     1      -3.560  -2.712  -1.204  0.00  0.00    -0.024 A 
ATOM      3  C   UNL     1      -4.793  -3.237  -1.021  0.00  0.00    -0.016 A 
ATOM      4  S   UNL     1      -4.971  -3.338   0.735  0.00  0.00    -0.079 S 
ATOM      5  C   UNL     1      -3.490  -2.706   1.212  0.00  0.00    +0.086 A 
ATOM      6  C   UNL     1      -5.759  -3.622  -2.091  0.00  0.00    -0.041 C 
ATOM      7  N   UNL     1      -5.160  -3.578  -3.424  0.00  0.00    +0.389 N 
ATOM      8  C   UNL     1      -3.705  -3.601  -3.488  0.00  0.00    -0.069 C 
ATOM      9  C   UNL     1      -3.070  -2.501  -2.629  0.00  0.00    +0.024 C 
ATOM     10  C   UNL     1      -3.156  -4.964  -3.057  0.00  0.00    -0.010 C 
ATOM     11  C   UNL     1      -3.280  -3.362  -4.949  0.00  0.00    -0.010 C 
ATOM     12  C   UNL     1      -6.943  -2.636  -2.050  0.00  0.00    -0.005 C 
ATOM     13  C   UNL     1      -6.307  -5.027  -1.803  0.00  0.00    -0.005 C 
ATOM     14  H   UNL     1      -5.520  -4.366  -3.967  0.00  0.00    -0.084 HD
ATOM     15  H   UNL     1      -5.493  -2.740  -3.903  0.00  0.00    -0.084 HD
ENDROOT
BRANCH   5  16
ATOM     16  N   UNL     1      -3.019  -2.516   2.500  0.00  0.00    -0.275 N 
ATOM     17  C   UNL     1      -3.786  -2.856   3.555  0.00  0.00    +0.250 C 
ATOM     18  O   UNL     1      -4.891  -3.330   3.375  0.00  0.00    -0.270 OA
ATOM     19  H   UNL     1      -2.138  -2.138   2.644  0.00  0.00    +0.156 HD
BRANCH  17  20
ATOM     20  C   UNL     1      -3.284  -2.654   4.929  0.00  0.00    +0.055 A 
ATOM     21  C   UNL     1      -2.017  -2.104   5.139  0.00  0.00    +0.016 A 
ATOM     22  C   UNL     1      -1.554  -1.917   6.423  0.00  0.00    +0.021 A 
ATOM     23  C   UNL     1      -2.343  -2.272   7.506  0.00  0.00    +0.042 A 
ATOM     24  C   UNL     1      -3.599  -2.818   7.307  0.00  0.00    +0.040 A 
ATOM     25  C   UNL     1      -4.077  -3.005   6.025  0.00  0.00    +0.054 A 
ATOM     26 CL   UNL     1      -5.656  -3.682   5.775  0.00  0.00    -0.083 Cl
ATOM     27 CL   UNL     1      -1.751  -2.033   9.121  0.00  0.00    -0.083 Cl
ENDBRANCH  17  20
ENDBRANCH   5  16
BRANCH   1  28
ATOM     28  C   UNL     1      -1.497  -1.838   0.006  0.00  0.00    +0.342 C 
ATOM     29  O   UNL     1      -0.522  -2.566  -0.007  0.00  0.00    -0.245 OA
BRANCH  28  30
ATOM     30  O   UNL     1      -1.339  -0.499   0.012  0.00  0.00    -0.461 OA
BRANCH  30  32
ATOM     31  C   UNL     1      -0.019   1.526   0.010  0.00  0.00    +0.048 C 
ATOM     32  C   UNL     1       0.002  -0.004   0.002  0.00  0.00    +0.229 C 
ENDBRANCH  30  32
ENDBRANCH  28  30
ENDBRANCH   1  28
TORSDOF 5
