REMARK  Name = ZINC09725119
REMARK  17 active torsions:
REMARK  status: ('A' for Active; 'I' for Inactive)
REMARK    1  A    between atoms: C_1  and  C_2
REMARK    2  A    between atoms: C_2  and  C_3
REMARK    3  A    between atoms: C_2  and  C_4
REMARK    4  A    between atoms: C_4  and  N_81
REMARK    5  A    between atoms: C_5  and  C_6
REMARK    6  A    between atoms: C_5  and  N_81
REMARK    7  A    between atoms: C_6  and  N_7
REMARK    8  A    between atoms: C_8  and  C_10
REMARK    9  A    between atoms: N_12  and  C_32
REMARK   10  A    between atoms: C_16  and  S_21
REMARK   11  A    between atoms: S_21  and  N_24
REMARK   12  A    between atoms: N_24  and  C_25
REMARK   13  A    between atoms: N_24  and  C_26
REMARK   14  A    between atoms: C_33  and  C_34
REMARK   15  A    between atoms: C_33  and  N_81
REMARK   16  A    between atoms: C_34  and  C_35
REMARK   17  A    between atoms: C_34  and  C_36
REMARK                            x       y       z     vdW  Elec       q    Type
REMARK                         _______ _______ _______ _____ _____    ______ ____
ROOT
ATOM      1  C   UNL     1      -0.218  -2.152  -0.863  0.00  0.00    +0.100 A 
ATOM      2  C   UNL     1      -1.389  -2.594  -0.282  0.00  0.00    +0.102 A 
ATOM      3  N   UNL     1      -1.825  -3.852  -0.423  0.00  0.00    -0.349 N 
ATOM      4  C   UNL     1      -1.144  -4.801  -1.155  0.00  0.00    +0.053 A 
ATOM      5  C   UNL     1      -1.643  -6.096  -1.271  0.00  0.00    +0.028 A 
ATOM      6  C   UNL     1      -0.953  -7.036  -2.005  0.00  0.00    +0.030 A 
ATOM      7  C   UNL     1       0.239  -6.707  -2.635  0.00  0.00    +0.106 A 
ATOM      8  C   UNL     1       0.750  -5.433  -2.534  0.00  0.00    +0.042 A 
ATOM      9  C   UNL     1       0.063  -4.471  -1.794  0.00  0.00    +0.048 A 
ATOM     10  C   UNL     1       0.575  -3.094  -1.669  0.00  0.00    +0.202 A 
ATOM     11  O   UNL     1       1.614  -2.751  -2.206  0.00  0.00    -0.286 OA
ATOM     12  C   UNL     1      -3.080  -4.237   0.228  0.00  0.00    +0.149 C 
ENDROOT
BRANCH   1  14
ATOM     13  N   UNL     1      -0.511   0.093   0.052  0.00  0.00    -0.313 N 
ATOM     14  C   UNL     1       0.227  -0.761  -0.684  0.00  0.00    +0.249 C 
ATOM     15  O   UNL     1       1.262  -0.383  -1.200  0.00  0.00    -0.270 OA
ATOM     16  H   UNL     1      -1.335  -0.209   0.464  0.00  0.00    +0.149 HD
BRANCH  13  17
ATOM     17  C   UNL     1      -0.067   1.478   0.230  0.00  0.00    +0.086 C 
BRANCH  17  18
ATOM     18  C   UNL     1      -1.077   2.229   1.100  0.00  0.00    -0.060 C 
BRANCH  18  19
ATOM     19  N   UNL     1      -0.663   3.646   1.183  0.00  0.00    +0.381 N 
ATOM     20  H   UNL     1       0.351   3.706   1.040  0.00  0.00    -0.082 HD
BRANCH  19  21
ATOM     21  C   UNL     1      -1.345   4.433   0.135  0.00  0.00    -0.076 C 
BRANCH  21  23
ATOM     22  C   UNL     1      -1.294   5.037  -2.289  0.00  0.00    +0.005 C 
ATOM     23  C   UNL     1      -0.637   4.188  -1.200  0.00  0.00    -0.034 C 
ATOM     24  C   UNL     1       0.838   4.573  -1.073  0.00  0.00    +0.005 C 
ENDBRANCH  21  23
ENDBRANCH  19  21
BRANCH  19  25
ATOM     25  C   UNL     1      -0.992   4.190   2.518  0.00  0.00    -0.076 C 
BRANCH  25  26
ATOM     26  C   UNL     1       0.053   3.696   3.520  0.00  0.00    -0.034 C 
ATOM     27  C   UNL     1       1.429   4.239   3.132  0.00  0.00    +0.005 C 
ATOM     28  C   UNL     1      -0.313   4.187   4.922  0.00  0.00    +0.005 C 
ENDBRANCH  25  26
ENDBRANCH  19  25
ENDBRANCH  18  19
ENDBRANCH  17  18
ENDBRANCH  13  17
ENDBRANCH   1  14
BRANCH   7  29
ATOM     29  S   UNL     1       1.103  -7.927  -3.569  0.00  0.00    +0.061 S 
ATOM     30  O   UNL     1       2.464  -7.522  -3.606  0.00  0.00    -0.153 OA
ATOM     31  O   UNL     1       0.698  -9.190  -3.059  0.00  0.00    -0.153 OA
BRANCH  29  32
ATOM     32  N   UNL     1       0.541  -7.842  -5.124  0.00  0.00    -0.177 NA
ATOM     33  C   UNL     1       1.192  -6.954  -6.091  0.00  0.00    +0.132 C 
BRANCH  32  34
ATOM     34  C   UNL     1      -0.607  -8.654  -5.534  0.00  0.00    +0.080 C 
ATOM     35  C   UNL     1      -0.191  -9.588  -6.672  0.00  0.00    +0.020 C 
ATOM     36  C   UNL     1      -1.390 -10.436  -7.100  0.00  0.00    +0.002 C 
ATOM     37  C   UNL     1      -2.518  -9.520  -7.579  0.00  0.00    +0.000 C 
ATOM     38  C   UNL     1      -2.934  -8.586  -6.441  0.00  0.00    +0.002 C 
ATOM     39  C   UNL     1      -1.735  -7.738  -6.013  0.00  0.00    +0.020 C 
ENDBRANCH  32  34
ENDBRANCH  29  32
ENDBRANCH   7  29
TORSDOF 11
