REMARK  Name = ZINC22059886
REMARK  9 active torsions:
REMARK  status: ('A' for Active; 'I' for Inactive)
REMARK    1  A    between atoms: C_1  and  C_2
REMARK    2  A    between atoms: C_2  and  C_24
REMARK    3  A    between atoms: N_5  and  C_9
REMARK    4  A    between atoms: C_9  and  C_10
REMARK    5  A    between atoms: N_12  and  C_13
REMARK    6  A    between atoms: C_27  and  C_30
REMARK    7  A    between atoms: C_30  and  C_31
REMARK    8  A    between atoms: C_30  and  C_32
REMARK    9  A    between atoms: C_30  and  C_33
REMARK                            x       y       z     vdW  Elec       q    Type
REMARK                         _______ _______ _______ _____ _____    ______ ____
ROOT
ATOM      1  C   UNL     1       9.077   3.640   0.463  0.00  0.00    +0.047 C 
ATOM      2  C   UNL     1       7.662   4.111   0.123  0.00  0.00    +0.135 C 
ATOM      3  C   UNL     1       6.630   3.163   0.702  0.00  0.00    +0.251 C 
ATOM      4  O   UNL     1       6.450   2.903   1.872  0.00  0.00    -0.272 OA
ATOM      5  N   UNL     1       5.955   2.671  -0.355  0.00  0.00    -0.215 N 
ATOM      6  C   UNL     1       6.414   3.167  -1.509  0.00  0.00    +0.310 C 
ATOM      7  O   UNL     1       5.966   2.868  -2.599  0.00  0.00    -0.252 OA
ATOM      8  N   UNL     1       7.426   4.035  -1.329  0.00  0.00    -0.281 N 
ATOM      9  H   UNL     1       8.039   4.635  -2.018  0.00  0.00    +0.152 HD
ENDROOT
BRANCH   2  10
ATOM     10  C   UNL     1       7.434   5.514   0.625  0.00  0.00    -0.015 A 
ATOM     11  C   UNL     1       6.872   5.719   1.871  0.00  0.00    +0.006 A 
ATOM     12  C   UNL     1       6.667   7.006   2.333  0.00  0.00    +0.004 A 
ATOM     13  C   UNL     1       7.015   8.087   1.546  0.00  0.00    -0.042 A 
ATOM     14  C   UNL     1       7.572   7.881   0.297  0.00  0.00    +0.004 A 
ATOM     15  C   UNL     1       7.782   6.595  -0.163  0.00  0.00    +0.006 A 
BRANCH  13  16
ATOM     16  C   UNL     1       6.786   9.489   2.047  0.00  0.00    -0.013 C 
ATOM     17  C   UNL     1       5.840  10.223   1.095  0.00  0.00    +0.015 C 
ATOM     18  C   UNL     1       6.163   9.436   3.444  0.00  0.00    +0.015 C 
ATOM     19  C   UNL     1       8.122  10.232   2.112  0.00  0.00    +0.015 C 
ENDBRANCH  13  16
ENDBRANCH   2  10
BRANCH   5  20
ATOM     20  C   UNL     1       4.856   1.706  -0.253  0.00  0.00    +0.214 C 
BRANCH  20  21
ATOM     21  C   UNL     1       3.550   2.445  -0.121  0.00  0.00    +0.235 C 
ATOM     22  O   UNL     1       3.537   3.658  -0.114  0.00  0.00    -0.274 OA
ATOM     23  N   UNL     1       2.395   1.758  -0.013  0.00  0.00    -0.283 N 
ATOM     24  H   UNL     1       2.413   0.662   0.072  0.00  0.00    +0.155 HD
BRANCH  23  25
ATOM     25  C   UNL     1       1.171   2.442  -0.007  0.00  0.00    +0.056 A 
ATOM     26  C   UNL     1       1.070   3.689  -0.607  0.00  0.00    +0.074 A 
ATOM     27  C   UNL     1      -0.141   4.364  -0.602  0.00  0.00    +0.164 A 
ATOM     28  C   UNL     1      -1.253   3.789   0.002  0.00  0.00    +0.164 A 
ATOM     29  C   UNL     1      -1.150   2.541   0.597  0.00  0.00    +0.071 A 
ATOM     30  C   UNL     1       0.059   1.870   0.598  0.00  0.00    +0.066 A 
ATOM     31 CL   UNL     1       0.185   0.310   1.348  0.00  0.00    -0.082 Cl
ATOM     32  O   UNL     1      -2.452   4.436   0.013  0.00  0.00    -0.485 OA
ATOM     33  C   UNL     1      -2.428   5.840  -0.266  0.00  0.00    +0.270 C 
ATOM     34  C   UNL     1      -1.537   6.071  -1.494  0.00  0.00    +0.270 C 
ATOM     35  O   UNL     1      -0.223   5.589  -1.191  0.00  0.00    -0.485 OA
ENDBRANCH  23  25
ENDBRANCH  20  21
ENDBRANCH   5  20
TORSDOF 5
