REMARK  Name = ZINC16449664
REMARK  10 active torsions:
REMARK  status: ('A' for Active; 'I' for Inactive)
REMARK    1  A    between atoms: C_4  and  O_20
REMARK    2  A    between atoms: C_5  and  C_7
REMARK    3  A    between atoms: C_7  and  N_50
REMARK    4  A    between atoms: C_8  and  C_9
REMARK    5  A    between atoms: C_8  and  N_50
REMARK    6  A    between atoms: C_9  and  N_10
REMARK    7  A    between atoms: N_10  and  C_11
REMARK    8  A    between atoms: C_14  and  N_17
REMARK    9  A    between atoms: O_20  and  C_21
REMARK   10  A    between atoms: C_21  and  C_22
REMARK                            x       y       z     vdW  Elec       q    Type
REMARK                         _______ _______ _______ _____ _____    ______ ____
ROOT
ATOM      1  C   UNL     1      -1.700  -3.196  -0.009  0.00  0.00    -0.043 C 
ENDROOT
BRANCH   1   6
ATOM      2  C   UNL     1      -5.469  -2.981   0.009  0.00  0.00    +0.000 A 
ATOM      3  C   UNL     1      -5.671  -1.613   0.019  0.00  0.00    +0.004 A 
ATOM      4  C   UNL     1      -4.589  -0.754   0.024  0.00  0.00    +0.046 A 
ATOM      5  C   UNL     1      -3.299  -1.265   0.009  0.00  0.00    +0.122 A 
ATOM      6  C   UNL     1      -3.100  -2.638   0.001  0.00  0.00    -0.023 A 
ATOM      7  C   UNL     1      -4.185  -3.493   0.001  0.00  0.00    +0.005 A 
BRANCH   5   8
ATOM      8  O   UNL     1      -2.233  -0.422   0.009  0.00  0.00    -0.487 OA
BRANCH   8   9
ATOM      9  C   UNL     1      -2.514   0.979   0.019  0.00  0.00    +0.266 C 
BRANCH   9  10
ATOM     10  C   UNL     1      -1.219   1.750   0.017  0.00  0.00    +0.008 A 
ATOM     11  C   UNL     1      -0.013   1.076   0.008  0.00  0.00    +0.010 A 
ATOM     12  C   UNL     1       1.175   1.783   0.000  0.00  0.00    +0.020 A 
ATOM     13  C   UNL     1       1.157   3.166   0.008  0.00  0.00    +0.042 A 
ATOM     14  C   UNL     1      -0.050   3.842   0.023  0.00  0.00    +0.040 A 
ATOM     15  C   UNL     1      -1.238   3.134   0.031  0.00  0.00    +0.049 A 
ATOM     16 CL   UNL     1      -2.754   3.981   0.049  0.00  0.00    -0.083 Cl
ATOM     17 CL   UNL     1       2.648   4.054  -0.001  0.00  0.00    -0.083 Cl
ENDBRANCH   9  10
ENDBRANCH   8   9
ENDBRANCH   5   8
ENDBRANCH   1   6
BRANCH   1  18
ATOM     18  N   UNL     1      -1.156  -3.159   1.362  0.00  0.00    +0.383 N 
ATOM     19  H   UNL     1      -1.752  -3.723   1.979  0.00  0.00    -0.085 HD
ATOM     20  H   UNL     1      -1.141  -2.187   1.694  0.00  0.00    -0.085 HD
BRANCH  18  21
ATOM     21  C   UNL     1       0.216  -3.701   1.383  0.00  0.00    -0.063 C 
BRANCH  21  22
ATOM     22  C   UNL     1       0.753  -3.649   2.815  0.00  0.00    +0.082 C 
BRANCH  22  23
ATOM     23  N   UNL     1       2.116  -4.186   2.845  0.00  0.00    -0.346 N 
ATOM     24  H   UNL     1       2.531  -4.502   2.027  0.00  0.00    +0.146 HD
BRANCH  23  25
ATOM     25  C   UNL     1       2.819  -4.242   4.051  0.00  0.00    +0.027 A 
ATOM     26  C   UNL     1       2.229  -3.783   5.222  0.00  0.00    +0.025 A 
ATOM     27  C   UNL     1       2.924  -3.845   6.413  0.00  0.00    +0.034 A 
ATOM     28  C   UNL     1       4.210  -4.352   6.440  0.00  0.00    +0.126 A 
ATOM     29  C   UNL     1       4.803  -4.804   5.275  0.00  0.00    +0.034 A 
ATOM     30  C   UNL     1       4.111  -4.750   4.080  0.00  0.00    +0.025 A 
BRANCH  28  31
ATOM     31  N   UNL     1       4.954  -4.412   7.718  0.00  0.00    +0.056 N 
ATOM     32  O   UNL     1       6.087  -4.859   7.742  0.00  0.00    -0.126 OA
ATOM     33  O   UNL     1       4.434  -4.014   8.745  0.00  0.00    -0.126 OA
ENDBRANCH  28  31
ENDBRANCH  23  25
ENDBRANCH  22  23
ENDBRANCH  21  22
ENDBRANCH  18  21
ENDBRANCH   1  18
TORSDOF 10
