REMARK  Name = ZINC54617831
REMARK  8 active torsions:
REMARK  status: ('A' for Active; 'I' for Inactive)
REMARK    1  A    between atoms: C_1  and  C_2
REMARK    2  A    between atoms: C_6  and  N_9
REMARK    3  A    between atoms: C_7  and  C_8
REMARK    4  A    between atoms: C_10  and  C_12
REMARK    5  A    between atoms: C_13  and  C_38
REMARK    6  A    between atoms: C_20  and  C_22
REMARK    7  A    between atoms: N_24  and  C_31
REMARK    8  A    between atoms: C_31  and  C_32
REMARK                            x       y       z     vdW  Elec       q    Type
REMARK                         _______ _______ _______ _____ _____    ______ ____
ROOT
ATOM      1  C   UNL     1       0.147  -4.687   3.699  0.00  0.00    +0.060 C 
ATOM      2  C   UNL     1       0.236  -6.024   3.747  0.00  0.00    +0.018 C 
ATOM      3  N   UNL     1       0.299  -6.711   4.935  0.00  0.00    -0.287 N 
ATOM      4  C   UNL     1       0.530  -5.973   6.088  0.00  0.00    +0.218 A 
ATOM      5  N   UNL     1       0.850  -6.367   7.290  0.00  0.00    -0.201 NA
ATOM      6  C   UNL     1       0.980  -5.303   8.090  0.00  0.00    +0.247 A 
ATOM      7  N   UNL     1       0.741  -4.215   7.401  0.00  0.00    -0.156 NA
ATOM      8  N   UNL     1       0.443  -4.619   6.101  0.00  0.00    -0.221 N 
ATOM      9  C   UNL     1       0.100  -3.821   4.929  0.00  0.00    +0.179 C 
ATOM     10  C   UNL     1       0.270  -6.799   2.455  0.00  0.00    +0.061 C 
ATOM     11  H   UNL     1       0.186  -7.673   4.967  0.00  0.00    +0.155 HD
ENDROOT
BRANCH   9  12
ATOM     12  C   UNL     1      -1.290  -3.262   5.097  0.00  0.00    +0.007 A 
ATOM     13  C   UNL     1      -2.420  -3.968   5.260  0.00  0.00    +0.093 A 
ATOM     14  N   UNL     1      -3.487  -3.119   5.380  0.00  0.00    -0.342 N 
ATOM     15  C   UNL     1      -3.058  -1.814   5.295  0.00  0.00    +0.050 A 
ATOM     16  C   UNL     1      -1.663  -1.845   5.120  0.00  0.00    +0.005 A 
ATOM     17  C   UNL     1      -0.947  -0.652   5.008  0.00  0.00    +0.010 A 
ATOM     18  C   UNL     1      -1.607   0.543   5.071  0.00  0.00    +0.001 A 
ATOM     19  C   UNL     1      -2.983   0.580   5.247  0.00  0.00    +0.002 A 
ATOM     20  C   UNL     1      -3.710  -0.586   5.351  0.00  0.00    +0.026 A 
BRANCH  14  21
ATOM     21  C   UNL     1      -4.878  -3.538   5.571  0.00  0.00    +0.157 C 
BRANCH  21  22
ATOM     22  C   UNL     1      -5.572  -3.595   4.234  0.00  0.00    -0.028 A 
ATOM     23  C   UNL     1      -6.214  -2.475   3.741  0.00  0.00    +0.005 A 
ATOM     24  C   UNL     1      -6.852  -2.527   2.515  0.00  0.00    +0.000 A 
ATOM     25  C   UNL     1      -6.847  -3.700   1.783  0.00  0.00    +0.000 A 
ATOM     26  C   UNL     1      -6.204  -4.820   2.277  0.00  0.00    +0.000 A 
ATOM     27  C   UNL     1      -5.563  -4.766   3.500  0.00  0.00    +0.005 A 
ENDBRANCH  21  22
ENDBRANCH  14  21
ENDBRANCH   9  12
BRANCH   1  29
ATOM     28  N   UNL     1       1.198  -4.038   1.649  0.00  0.00    -0.281 N 
ATOM     29  C   UNL     1       0.100  -4.060   2.431  0.00  0.00    +0.248 C 
ATOM     30  O   UNL     1      -0.932  -3.541   2.046  0.00  0.00    -0.270 OA
ATOM     31  H   UNL     1       1.995  -4.521   1.919  0.00  0.00    +0.155 HD
BRANCH  28  37
ATOM     32  C   UNL     1       2.971  -3.342  -2.882  0.00  0.00    +0.044 C 
ATOM     33  C   UNL     1       2.037  -2.959  -1.763  0.00  0.00    -0.046 A 
ATOM     34  C   UNL     1       1.169  -1.894  -1.922  0.00  0.00    +0.004 A 
ATOM     35  C   UNL     1       0.311  -1.539  -0.897  0.00  0.00    +0.002 A 
ATOM     36  C   UNL     1       0.318  -2.248   0.288  0.00  0.00    +0.023 A 
ATOM     37  C   UNL     1       1.188  -3.318   0.450  0.00  0.00    +0.037 A 
ATOM     38  C   UNL     1       2.045  -3.675  -0.583  0.00  0.00    -0.026 A 
ATOM     39  C   UNL     1       2.987  -4.840  -0.413  0.00  0.00    +0.046 C 
ENDBRANCH  28  37
ENDBRANCH   1  29
TORSDOF 5
