REMARK  Name = ZINC59787829
REMARK  7 active torsions:
REMARK  status: ('A' for Active; 'I' for Inactive)
REMARK    1  A    between atoms: C_6  and  C_7
REMARK    2  A    between atoms: C_10  and  S_13
REMARK    3  A    between atoms: S_13  and  C_14
REMARK    4  A    between atoms: C_14  and  C_15
REMARK    5  A    between atoms: C_21  and  S_23
REMARK    6  A    between atoms: S_23  and  C_24
REMARK    7  A    between atoms: C_24  and  C_25
REMARK                            x       y       z     vdW  Elec       q    Type
REMARK                         _______ _______ _______ _____ _____    ______ ____
ROOT
ATOM      1  C   UNL     1      -2.200  -6.580  -0.010  0.00  0.00    +0.229 C 
ATOM      2  O   UNL     1      -3.374  -6.883  -0.000  0.00  0.00    -0.275 OA
ATOM      3  N   UNL     1      -1.256  -7.541  -0.025  0.00  0.00    -0.263 N 
ATOM      4  C   UNL     1      -1.629  -8.883  -0.028  0.00  0.00    +0.189 A 
ATOM      5  N   UNL     1      -2.833  -9.431  -0.025  0.00  0.00    -0.125 NA
ATOM      6  N   UNL     1      -2.999 -10.681  -0.029  0.00  0.00    -0.133 NA
ATOM      7  C   UNL     1      -1.976 -11.524  -0.037  0.00  0.00    +0.160 A 
ATOM      8  S   UNL     1      -0.616 -10.359  -0.046  0.00  0.00    -0.024 S 
ATOM      9  H   UNL     1      -0.317  -7.299  -0.033  0.00  0.00    +0.157 HD
ENDROOT
BRANCH   1  10
ATOM     10  C   UNL     1      -1.796  -5.128  -0.007  0.00  0.00    +0.173 C 
BRANCH  10  11
ATOM     11  S   UNL     1      -3.282  -4.087   0.013  0.00  0.00    -0.077 S 
BRANCH  11  15
ATOM     12  C   UNL     1      -1.271  -0.766   0.011  0.00  0.00    +0.182 A 
ATOM     13  N   UNL     1      -1.380  -2.102   0.004  0.00  0.00    -0.201 NA
ATOM     14  H   UNL     1      -4.355  -1.246   0.040  0.00  0.00    +0.191 HD
ATOM     15  C   UNL     1      -2.651  -2.442   0.016  0.00  0.00    +0.185 A 
ATOM     16  N   UNL     1      -3.387  -1.309   0.029  0.00  0.00    -0.253 N 
ATOM     17  N   UNL     1      -2.475  -0.241   0.031  0.00  0.00    -0.152 NA
BRANCH  12  23
ATOM     18  C   UNL     1      -0.017   1.389   0.010  0.00  0.00    +0.013 A 
ATOM     19  C   UNL     1       1.170   2.093   0.002  0.00  0.00    +0.016 A 
ATOM     20  C   UNL     1       2.378   1.417  -0.013  0.00  0.00    +0.018 A 
ATOM     21  C   UNL     1       2.402   0.034  -0.021  0.00  0.00    +0.016 A 
ATOM     22  C   UNL     1       1.221  -0.680  -0.014  0.00  0.00    +0.013 A 
ATOM     23  C   UNL     1       0.002  -0.004   0.002  0.00  0.00    +0.021 A 
ATOM     24 BR   UNL     1       4.001   2.388  -0.025  0.00  0.00    -0.050 Br
ENDBRANCH  12  23
ENDBRANCH  11  15
ENDBRANCH  10  11
ENDBRANCH   1  10
BRANCH   7  25
ATOM     25  S   UNL     1      -1.959 -13.286  -0.043  0.00  0.00    -0.088 S 
BRANCH  25  26
ATOM     26  C   UNL     1      -3.715 -13.741  -0.037  0.00  0.00    +0.171 C 
BRANCH  26  27
ATOM     27  C   UNL     1      -3.845 -15.242  -0.042  0.00  0.00    +0.221 C 
ATOM     28  O   UNL     1      -2.850 -15.937  -0.049  0.00  0.00    -0.275 OA
ATOM     29  N   UNL     1      -5.065 -15.814  -0.039  0.00  0.00    -0.329 N 
ATOM     30  H   UNL     1      -5.861 -15.258  -0.033  0.00  0.00    +0.145 HD
ATOM     31  H   UNL     1      -5.149 -16.780  -0.042  0.00  0.00    +0.145 HD
ENDBRANCH  26  27
ENDBRANCH  25  26
ENDBRANCH   7  25
TORSDOF 7
