REMARK  Name = ZINC12635599
REMARK  13 active torsions:
REMARK  status: ('A' for Active; 'I' for Inactive)
REMARK    1  A    between atoms: C_1  and  C_2
REMARK    2  A    between atoms: C_2  and  C_3
REMARK    3  A    between atoms: C_6  and  N_9
REMARK    4  A    between atoms: N_9  and  C_10
REMARK    5  A    between atoms: C_10  and  N_12
REMARK    6  A    between atoms: N_12  and  C_13
REMARK    7  A    between atoms: N_12  and  C_28
REMARK    8  A    between atoms: C_13  and  C_14
REMARK    9  A    between atoms: C_19  and  C_27
REMARK   10  A    between atoms: C_20  and  C_26
REMARK   11  A    between atoms: C_28  and  C_29
REMARK   12  A    between atoms: C_34  and  C_35
REMARK   13  A    between atoms: C_34  and  N_70
REMARK                            x       y       z     vdW  Elec       q    Type
REMARK                         _______ _______ _______ _____ _____    ______ ____
ROOT
ATOM      1  N   UNL     1      -1.825   0.212  -0.344  0.00  0.00    -0.309 N 
ENDROOT
BRANCH   1   2
ATOM      2  C   UNL     1      -2.454  -0.003  -1.516  0.00  0.00    +0.137 C 
ATOM      3  S   UNL     1      -3.240   1.290  -2.316  0.00  0.00    -0.018 S 
BRANCH   2   4
ATOM      4  N   UNL     1      -2.466  -1.237  -2.058  0.00  0.00    -0.297 N 
ATOM      5  H   UNL     1      -2.077  -1.983  -1.575  0.00  0.00    +0.154 HD
BRANCH   4   9
ATOM      6  C   UNL     1      -4.169  -1.847  -5.811  0.00  0.00    -0.048 A 
ATOM      7  C   UNL     1      -3.314  -0.779  -5.606  0.00  0.00    +0.005 A 
ATOM      8  C   UNL     1      -2.748  -0.574  -4.364  0.00  0.00    +0.023 A 
ATOM      9  C   UNL     1      -3.038  -1.442  -3.319  0.00  0.00    +0.033 A 
ATOM     10  C   UNL     1      -3.892  -2.517  -3.529  0.00  0.00    +0.023 A 
ATOM     11  C   UNL     1      -4.459  -2.713  -4.773  0.00  0.00    +0.005 A 
BRANCH   6  13
ATOM     12  C   UNL     1      -3.872  -2.968  -8.003  0.00  0.00    +0.009 C 
ATOM     13  C   UNL     1      -4.785  -2.068  -7.168  0.00  0.00    +0.032 C 
ENDBRANCH   6  13
ENDBRANCH   4   9
ENDBRANCH   2   4
ENDBRANCH   1   2
BRANCH   1  14
ATOM     14  C   UNL     1      -1.813   1.553   0.246  0.00  0.00    +0.147 C 
BRANCH  14  15
ATOM     15  C   UNL     1      -0.573   2.285  -0.198  0.00  0.00    +0.035 A 
ATOM     16  C   UNL     1      -0.631   3.133  -1.255  0.00  0.00    +0.020 A 
ATOM     17  C   UNL     1       0.591   3.829  -1.660  0.00  0.00    -0.001 A 
ATOM     18  C   UNL     1       0.593   4.716  -2.742  0.00  0.00    +0.010 A 
ATOM     19  C   UNL     1       1.750   5.350  -3.096  0.00  0.00    +0.004 A 
ATOM     20  C   UNL     1       2.925   5.123  -2.391  0.00  0.00    -0.046 A 
ATOM     21  C   UNL     1       2.946   4.254  -1.321  0.00  0.00    -0.024 A 
ATOM     22  C   UNL     1       1.780   3.596  -0.943  0.00  0.00    +0.052 A 
ATOM     23  N   UNL     1       1.772   2.722   0.123  0.00  0.00    -0.322 N 
ATOM     24  H   UNL     1       2.592   2.562   0.616  0.00  0.00    +0.169 HD
ATOM     25  C   UNL     1       0.643   2.091   0.492  0.00  0.00    +0.254 A 
ATOM     26  O   UNL     1       0.672   1.329   1.442  0.00  0.00    -0.268 OA
ATOM     27  C   UNL     1       4.227   4.017  -0.564  0.00  0.00    +0.046 C 
ATOM     28  C   UNL     1       4.189   5.833  -2.799  0.00  0.00    +0.044 C 
ENDBRANCH  14  15
ENDBRANCH   1  14
BRANCH   1  29
ATOM     29  C   UNL     1      -1.153  -0.896   0.341  0.00  0.00    +0.092 C 
BRANCH  29  30
ATOM     30  C   UNL     1      -2.089  -1.484   1.398  0.00  0.00    -0.051 C 
ATOM     31  C   UNL     1      -1.441  -2.716   2.068  0.00  0.00    -0.016 C 
ATOM     32  C   UNL     1      -2.603  -3.704   2.298  0.00  0.00    -0.020 C 
ATOM     33  C   UNL     1      -3.855  -2.986   1.748  0.00  0.00    -0.078 C 
ATOM     34  N   UNL     1      -3.309  -2.028   0.791  0.00  0.00    +0.382 N 
ATOM     35  H   UNL     1      -3.081  -2.503  -0.090  0.00  0.00    -0.081 HD
BRANCH  34  36
ATOM     36  C   UNL     1      -4.290  -0.931   0.517  0.00  0.00    -0.082 C 
ATOM     37  C   UNL     1      -5.385  -1.431  -0.427  0.00  0.00    -0.017 C 
ENDBRANCH  34  36
ENDBRANCH  29  30
ENDBRANCH   1  29
TORSDOF 9
