REMARK  Name = ZINC19927145
REMARK  7 active torsions:
REMARK  status: ('A' for Active; 'I' for Inactive)
REMARK    1  A    between atoms: C_1  and  C_2
REMARK    2  A    between atoms: C_2  and  C_24
REMARK    3  A    between atoms: N_3  and  N_4
REMARK    4  A    between atoms: C_5  and  C_7
REMARK    5  A    between atoms: C_8  and  C_18
REMARK    6  A    between atoms: C_18  and  N_19
REMARK    7  A    between atoms: C_27  and  N_30
REMARK                            x       y       z     vdW  Elec       q    Type
REMARK                         _______ _______ _______ _____ _____    ______ ____
ROOT
ATOM      1  C   UNL     1      -1.358   5.199   0.617  0.00  0.00    +0.154 A 
ATOM      2  C   UNL     1       0.003   5.064   0.700  0.00  0.00    +0.079 A 
ATOM      3  N   UNL     1       0.243   3.761   0.849  0.00  0.00    -0.135 NA
ATOM      4  N   UNL     1      -0.870   3.119   0.866  0.00  0.00    -0.058 NA
ATOM      5  N   UNL     1      -1.863   3.927   0.734  0.00  0.00    -0.183 N 
ATOM      6  C   UNL     1      -3.215   3.573   0.709  0.00  0.00    +0.241 A 
ATOM      7  C   UNL     1      -3.744   2.206   0.705  0.00  0.00    +0.206 A 
ATOM      8  N   UNL     1      -5.047   2.270   0.685  0.00  0.00    -0.032 NA
ATOM      9  O   UNL     1      -5.414   3.638   0.670  0.00  0.00    -0.239 OA
ATOM     10  N   UNL     1      -4.221   4.402   0.682  0.00  0.00    -0.027 NA
ATOM     11  N   UNL     1      -2.987   1.040   0.724  0.00  0.00    -0.337 N 
ATOM     12  H   UNL     1      -3.486   0.060   0.718  0.00  0.00    +0.144 HD
ATOM     13  H   UNL     1      -1.888   1.098   0.745  0.00  0.00    +0.144 HD
ENDROOT
BRANCH   1  15
ATOM     14  N   UNL     1      -2.532   6.816  -0.786  0.00  0.00    -0.201 N 
ATOM     15  C   UNL     1      -2.119   6.446   0.442  0.00  0.00    +0.284 C 
ATOM     16  O   UNL     1      -2.376   7.142   1.406  0.00  0.00    -0.267 OA
ATOM     17  H   UNL     1      -2.369   6.149  -1.646  0.00  0.00    +0.178 HD
BRANCH  14  20
ATOM     18  C   UNL     1      -3.482   7.428  -3.298  0.00  0.00    +0.068 C 
ATOM     19  C   UNL     1      -3.637   8.374  -2.135  0.00  0.00    +0.063 C 
ATOM     20  N   UNL     1      -3.168   8.051  -0.969  0.00  0.00    -0.184 NA
BRANCH  19  21
ATOM     21  C   UNL     1      -4.323   9.666  -2.323  0.00  0.00    -0.002 A 
ATOM     22  C   UNL     1      -4.824  10.018  -3.578  0.00  0.00    +0.012 A 
ATOM     23  C   UNL     1      -5.470  11.226  -3.745  0.00  0.00    +0.033 A 
ATOM     24  C   UNL     1      -5.610  12.092  -2.675  0.00  0.00    +0.126 A 
ATOM     25  C   UNL     1      -5.111  11.752  -1.430  0.00  0.00    +0.033 A 
ATOM     26  C   UNL     1      -4.469  10.545  -1.247  0.00  0.00    +0.012 A 
BRANCH  24  27
ATOM     27  N   UNL     1      -6.298  13.390  -2.864  0.00  0.00    +0.056 N 
ATOM     28  O   UNL     1      -6.424  14.154  -1.924  0.00  0.00    -0.126 OA
ATOM     29  O   UNL     1      -6.738  13.692  -3.958  0.00  0.00    -0.126 OA
ENDBRANCH  24  27
ENDBRANCH  19  21
ENDBRANCH  14  20
ENDBRANCH   1  15
BRANCH   2  30
ATOM     30  C   UNL     1       1.027   6.168   0.630  0.00  0.00    -0.018 C 
BRANCH  30  31
ATOM     31  N   UNL     1       1.540   6.273  -0.742  0.00  0.00    +0.383 N 
ATOM     32  C   UNL     1       0.437   6.520  -1.706  0.00  0.00    -0.078 C 
ATOM     33  C   UNL     1       1.167   7.113  -2.937  0.00  0.00    -0.020 C 
ATOM     34  C   UNL     1       2.266   7.992  -2.296  0.00  0.00    -0.020 C 
ATOM     35  C   UNL     1       2.458   7.425  -0.877  0.00  0.00    -0.078 C 
ATOM     36  H   UNL     1       2.055   5.322  -0.943  0.00  0.00    -0.081 HD
ENDBRANCH  30  31
ENDBRANCH   2  30
TORSDOF 6
