REMARK  Name = ZINC12833237
REMARK  9 active torsions:
REMARK  status: ('A' for Active; 'I' for Inactive)
REMARK    1  A    between atoms: C_1  and  C_2
REMARK    2  A    between atoms: C_4  and  C_34
REMARK    3  A    between atoms: C_7  and  C_14
REMARK    4  A    between atoms: C_14  and  N_63
REMARK    5  A    between atoms: C_15  and  C_16
REMARK    6  A    between atoms: C_15  and  N_63
REMARK    7  A    between atoms: C_23  and  C_24
REMARK    8  A    between atoms: C_23  and  N_63
REMARK    9  A    between atoms: N_28  and  C_29
REMARK                            x       y       z     vdW  Elec       q    Type
REMARK                         _______ _______ _______ _____ _____    ______ ____
ROOT
ATOM      1  N   UNL     1       5.083   4.440  -1.557  0.00  0.00    +0.390 N 
ATOM      2  H   UNL     1       4.911   3.654  -2.195  0.00  0.00    -0.080 HD
ENDROOT
BRANCH   1   3
ATOM      3  C   UNL     1       4.752   4.019  -0.179  0.00  0.00    -0.036 C 
BRANCH   3  10
ATOM      4  C   UNL     1      -2.152   0.024  -0.251  0.00  0.00    +0.044 C 
ATOM      5  C   UNL     1      -0.747   0.570  -0.263  0.00  0.00    -0.048 A 
ATOM      6  C   UNL     1       0.326  -0.299  -0.404  0.00  0.00    +0.007 A 
ATOM      7  C   UNL     1       1.607   0.174  -0.418  0.00  0.00    -0.041 A 
ATOM      8  C   UNL     1       1.840   1.548  -0.289  0.00  0.00    +0.002 A 
ATOM      9  C   UNL     1       3.200   2.089  -0.300  0.00  0.00    +0.017 A 
ATOM     10  C   UNL     1       3.365   3.429  -0.171  0.00  0.00    +0.001 A 
ATOM     11  C   UNL     1       2.243   4.273  -0.029  0.00  0.00    +0.251 A 
ATOM     12  O   UNL     1       2.413   5.474   0.085  0.00  0.00    -0.268 OA
ATOM     13  N   UNL     1       0.990   3.784  -0.018  0.00  0.00    -0.322 N 
ATOM     14  H   UNL     1       0.241   4.393   0.081  0.00  0.00    +0.169 HD
ATOM     15  C   UNL     1       0.755   2.432  -0.145  0.00  0.00    +0.050 A 
ATOM     16  C   UNL     1      -0.541   1.926  -0.134  0.00  0.00    +0.029 A 
ATOM     17  C   UNL     1       2.765  -0.778  -0.571  0.00  0.00    +0.044 C 
ENDBRANCH   3  10
ENDBRANCH   1   3
BRANCH   1  18
ATOM     18  C   UNL     1       4.230   5.579  -1.956  0.00  0.00    -0.042 C 
BRANCH  18  19
ATOM     19  C   UNL     1       4.481   5.889  -3.409  0.00  0.00    -0.064 A 
ATOM     20  C   UNL     1       5.354   6.903  -3.758  0.00  0.00    +0.004 A 
ATOM     21  C   UNL     1       5.589   7.185  -5.091  0.00  0.00    +0.038 A 
ATOM     22  C   UNL     1       4.941   6.459  -6.076  0.00  0.00    +0.123 A 
ATOM     23  C   UNL     1       4.063   5.448  -5.725  0.00  0.00    +0.038 A 
ATOM     24  C   UNL     1       3.834   5.164  -4.392  0.00  0.00    +0.004 A 
ATOM     25  F   UNL     1       5.166   6.738  -7.379  0.00  0.00    -0.205 F 
ENDBRANCH  18  19
ENDBRANCH   1  18
BRANCH   1  26
ATOM     26  C   UNL     1       6.508   4.823  -1.639  0.00  0.00    +0.001 C 
BRANCH  26  27
ATOM     27  C   UNL     1       7.349   3.573  -1.587  0.00  0.00    +0.135 A 
ATOM     28  N   UNL     1       7.926   3.061  -0.528  0.00  0.00    -0.115 NA
ATOM     29  N   UNL     1       8.550   1.994  -0.891  0.00  0.00    -0.023 NA
ATOM     30  N   UNL     1       8.393   1.816  -2.156  0.00  0.00    -0.044 NA
ATOM     31  N   UNL     1       7.658   2.769  -2.622  0.00  0.00    -0.228 N 
BRANCH  31  32
ATOM     32  C   UNL     1       7.239   2.943  -4.015  0.00  0.00    +0.111 C 
ATOM     33  C   UNL     1       6.368   1.749  -4.457  0.00  0.00    +0.027 C 
ATOM     34  C   UNL     1       6.779   1.506  -5.932  0.00  0.00    +0.002 C 
ATOM     35  C   UNL     1       8.305   1.771  -5.910  0.00  0.00    +0.002 C 
ATOM     36  C   UNL     1       8.469   2.958  -4.938  0.00  0.00    +0.027 C 
ENDBRANCH  31  32
ENDBRANCH  26  27
ENDBRANCH   1  26
TORSDOF 7
