REMARK  Name = ZINC16600139
REMARK  13 active torsions:
REMARK  status: ('A' for Active; 'I' for Inactive)
REMARK    1  A    between atoms: C_1  and  C_2
REMARK    2  A    between atoms: C_2  and  C_3
REMARK    3  A    between atoms: C_2  and  N_54
REMARK    4  A    between atoms: C_4  and  C_5
REMARK    5  A    between atoms: C_4  and  N_54
REMARK    6  A    between atoms: C_5  and  N_6
REMARK    7  A    between atoms: C_7  and  C_9
REMARK    8  A    between atoms: C_12  and  N_15
REMARK    9  A    between atoms: N_15  and  S_16
REMARK   10  A    between atoms: S_16  and  C_19
REMARK   11  A    between atoms: C_25  and  C_26
REMARK   12  A    between atoms: C_25  and  C_27
REMARK   13  A    between atoms: C_25  and  N_54
REMARK                            x       y       z     vdW  Elec       q    Type
REMARK                         _______ _______ _______ _____ _____    ______ ____
ROOT
ATOM      1  C   UNL     1       7.035  -3.263   4.072  0.00  0.00    +0.037 A 
ATOM      2  C   UNL     1       8.317  -2.724   4.216  0.00  0.00    +0.015 A 
ATOM      3  C   UNL     1       8.650  -1.560   3.561  0.00  0.00    +0.025 A 
ATOM      4  C   UNL     1       7.712  -0.921   2.755  0.00  0.00    +0.048 A 
ATOM      5  C   UNL     1       6.433  -1.452   2.614  0.00  0.00    +0.025 A 
ATOM      6  C   UNL     1       6.096  -2.619   3.262  0.00  0.00    +0.015 A 
ENDROOT
BRANCH   1   8
ATOM      7  N   UNL     1       5.439  -5.029   4.633  0.00  0.00    -0.313 N 
ATOM      8  C   UNL     1       6.675  -4.510   4.773  0.00  0.00    +0.244 C 
ATOM      9  O   UNL     1       7.493  -5.070   5.477  0.00  0.00    -0.270 OA
ATOM     10  H   UNL     1       4.786  -4.582   4.071  0.00  0.00    +0.149 HD
BRANCH   7  11
ATOM     11  C   UNL     1       5.081  -6.268   5.329  0.00  0.00    +0.086 C 
BRANCH  11  12
ATOM     12  C   UNL     1       3.633  -6.636   5.002  0.00  0.00    -0.059 C 
BRANCH  12  13
ATOM     13  N   UNL     1       3.344  -7.970   5.569  0.00  0.00    +0.384 N 
ATOM     14  H   UNL     1       4.159  -8.578   5.422  0.00  0.00    -0.081 HD
BRANCH  13  16
ATOM     15  C   UNL     1       4.422  -7.929   7.761  0.00  0.00    -0.014 C 
ATOM     16  C   UNL     1       3.086  -7.857   7.020  0.00  0.00    -0.074 C 
ATOM     17  C   UNL     1       2.398  -6.528   7.337  0.00  0.00    -0.014 C 
ENDBRANCH  13  16
BRANCH  13  18
ATOM     18  C   UNL     1       2.173  -8.564   4.892  0.00  0.00    -0.074 C 
ATOM     19  C   UNL     1       2.499  -8.751   3.409  0.00  0.00    -0.014 C 
ATOM     20  C   UNL     1       1.871  -9.925   5.523  0.00  0.00    -0.014 C 
ENDBRANCH  13  18
ENDBRANCH  12  13
ENDBRANCH  11  12
ENDBRANCH   7  11
ENDBRANCH   1   8
BRANCH   4  21
ATOM     21  N   UNL     1       8.052   0.255   2.094  0.00  0.00    -0.216 N 
ATOM     22  H   UNL     1       8.514   0.962   2.570  0.00  0.00    +0.174 HD
BRANCH  21  23
ATOM     23  S   UNL     1       7.667   0.446   0.495  0.00  0.00    +0.079 S 
ATOM     24  O   UNL     1       8.217   1.693   0.092  0.00  0.00    -0.149 OA
ATOM     25  O   UNL     1       6.284   0.148   0.371  0.00  0.00    -0.149 OA
BRANCH  23  26
ATOM     26  C   UNL     1       8.533  -0.799  -0.402  0.00  0.00    +0.147 A 
ATOM     27  C   UNL     1       8.173  -2.083  -0.643  0.00  0.00    +0.038 A 
ATOM     28  C   UNL     1       9.020  -2.891  -1.379  0.00  0.00    +0.025 A 
ATOM     29  C   UNL     1      10.186  -2.373  -1.839  0.00  0.00    +0.057 A 
ATOM     30  S   UNL     1      10.113  -0.697  -1.227  0.00  0.00    -0.061 S 
ATOM     31 BR   UNL     1      11.540  -3.209  -2.861  0.00  0.00    -0.043 Br
ENDBRANCH  23  26
ENDBRANCH  21  23
ENDBRANCH   4  21
TORSDOF 9
