REMARK  Name = ZINC39687085
REMARK  9 active torsions:
REMARK  status: ('A' for Active; 'I' for Inactive)
REMARK    1  A    between atoms: C_1  and  C_2
REMARK    2  A    between atoms: C_2  and  C_4
REMARK    3  A    between atoms: C_2  and  N_12
REMARK    4  A    between atoms: C_4  and  C_5
REMARK    5  A    between atoms: C_13  and  C_15
REMARK    6  A    between atoms: C_26  and  C_28
REMARK    7  A    between atoms: C_28  and  C_29
REMARK    8  A    between atoms: C_29  and  C_30
REMARK    9  A    between atoms: C_30  and  C_31
REMARK                            x       y       z     vdW  Elec       q    Type
REMARK                         _______ _______ _______ _____ _____    ______ ____
ROOT
ATOM      1  C   UNL     1       0.960  -0.982  -3.613  0.00  0.00    +0.100 C 
ATOM      2  C   UNL     1       1.312  -2.482  -3.491  0.00  0.00    +0.121 C 
ATOM      3  N   UNL     1       0.237  -3.180  -4.234  0.00  0.00    -0.300 N 
ATOM      4  C   UNL     1      -0.011  -2.322  -5.418  0.00  0.00    +0.115 C 
ATOM      5  C   UNL     1       0.095  -0.881  -4.880  0.00  0.00    -0.004 C 
ATOM      6  C   UNL     1       0.769   0.019  -5.910  0.00  0.00    -0.010 C 
ATOM      7  C   UNL     1      -0.137   0.151  -7.138  0.00  0.00    -0.082 C 
ATOM      8  N   UNL     1      -1.429   0.718  -6.735  0.00  0.00    +0.379 N 
ATOM      9  C   UNL     1      -2.114  -0.199  -5.815  0.00  0.00    -0.082 C 
ATOM     10  C   UNL     1      -1.291  -0.346  -4.532  0.00  0.00    -0.010 C 
ATOM     11  C   UNL     1      -0.377  -4.335  -3.908  0.00  0.00    +0.216 C 
ATOM     12  O   UNL     1      -1.180  -4.831  -4.669  0.00  0.00    -0.276 OA
ATOM     13  H   UNL     1      -1.278   1.603  -6.275  0.00  0.00    -0.086 HD
ATOM     14  H   UNL     1      -2.002   0.861  -7.553  0.00  0.00    -0.086 HD
ENDROOT
BRANCH   1  16
ATOM     15  N   UNL     1       0.220   0.764  -2.025  0.00  0.00    -0.312 N 
ATOM     16  C   UNL     1       0.179  -0.528  -2.406  0.00  0.00    +0.218 C 
ATOM     17  O   UNL     1      -0.486  -1.325  -1.779  0.00  0.00    -0.275 OA
ATOM     18  H   UNL     1       0.804   1.388  -2.485  0.00  0.00    +0.149 HD
BRANCH  15  20
ATOM     19  C   UNL     1      -1.976   1.681  -1.458  0.00  0.00    +0.028 C 
ATOM     20  C   UNL     1      -0.618   1.228  -0.917  0.00  0.00    +0.074 C 
BRANCH  20  21
ATOM     21  C   UNL     1       0.068   2.401  -0.214  0.00  0.00    +0.060 C 
BRANCH  21  22
ATOM     22  C   UNL     1       1.339   1.922   0.438  0.00  0.00    -0.010 A 
ATOM     23  C   UNL     1       1.326   1.508   1.757  0.00  0.00    +0.006 A 
ATOM     24  C   UNL     1       2.491   1.068   2.356  0.00  0.00    +0.000 A 
ATOM     25  C   UNL     1       3.672   1.042   1.636  0.00  0.00    +0.003 A 
ATOM     26  C   UNL     1       3.688   1.455   0.318  0.00  0.00    +0.038 A 
ATOM     27  C   UNL     1       2.519   1.891  -0.285  0.00  0.00    +0.127 A 
ATOM     28  F   UNL     1       2.533   2.290  -1.575  0.00  0.00    -0.205 F 
ENDBRANCH  21  22
ENDBRANCH  20  21
ENDBRANCH  15  20
ENDBRANCH   1  16
BRANCH  11  29
ATOM     29  C   UNL     1      -0.064  -5.011  -2.598  0.00  0.00    +0.096 C 
BRANCH  29  30
ATOM     30  C   UNL     1      -0.787  -6.358  -2.533  0.00  0.00    +0.014 C 
BRANCH  30  31
ATOM     31  C   UNL     1      -0.555  -6.996  -1.162  0.00  0.00    +0.035 C 
BRANCH  31  32
ATOM     32  C   UNL     1      -1.168  -8.372  -1.138  0.00  0.00    -0.047 A 
ATOM     33  C   UNL     1      -2.482  -8.536  -0.741  0.00  0.00    +0.003 A 
ATOM     34  C   UNL     1      -3.045  -9.799  -0.719  0.00  0.00    +0.000 A 
ATOM     35  C   UNL     1      -2.294 -10.897  -1.095  0.00  0.00    +0.000 A 
ATOM     36  C   UNL     1      -0.980 -10.732  -1.492  0.00  0.00    +0.000 A 
ATOM     37  C   UNL     1      -0.419  -9.469  -1.518  0.00  0.00    +0.003 A 
ENDBRANCH  31  32
ENDBRANCH  30  31
ENDBRANCH  29  30
ENDBRANCH  11  29
TORSDOF 8
