REMARK  Name = ZINC67289009
REMARK  7 active torsions:
REMARK  status: ('A' for Active; 'I' for Inactive)
REMARK    1  A    between atoms: C_1  and  C_2
REMARK    2  A    between atoms: C_7  and  N_8
REMARK    3  A    between atoms: C_9  and  C_11
REMARK    4  A    between atoms: C_11  and  N_12
REMARK    5  A    between atoms: C_15  and  C_20
REMARK    6  A    between atoms: C_23  and  S_26
REMARK    7  A    between atoms: S_26  and  C_27
REMARK                            x       y       z     vdW  Elec       q    Type
REMARK                         _______ _______ _______ _____ _____    ______ ____
ROOT
ATOM      1  N   UNL     1      -0.888  -0.767   5.912  0.00  0.00    -0.247 N 
ATOM      2  C   UNL     1      -2.226  -0.914   6.136  0.00  0.00    +0.065 C 
ATOM      3  C   UNL     1      -2.686  -1.728   7.110  0.00  0.00    +0.082 C 
ATOM      4  C   UNL     1      -1.668  -2.473   7.948  0.00  0.00    +0.144 C 
ATOM      5  N   UNL     1      -0.248  -2.245   7.627  0.00  0.00    -0.288 N 
ATOM      6  C   UNL     1       0.055  -1.405   6.618  0.00  0.00    +0.307 C 
ATOM      7  O   UNL     1       1.224  -1.215   6.343  0.00  0.00    -0.252 OA
ATOM      8  C   UNL     1      -4.093  -1.699   7.129  0.00  0.00    +0.339 C 
ATOM      9  O   UNL     1      -4.786  -2.333   7.901  0.00  0.00    -0.245 OA
ATOM     10  O   UNL     1      -4.568  -0.873   6.177  0.00  0.00    -0.455 OA
ATOM     11  C   UNL     1      -3.448  -0.315   5.478  0.00  0.00    +0.284 C 
ATOM     12  H   UNL     1       0.452  -2.693   8.128  0.00  0.00    +0.151 HD
ENDROOT
BRANCH   4  13
ATOM     13  C   UNL     1      -1.944  -3.948   7.812  0.00  0.00    -0.022 A 
ATOM     14  C   UNL     1      -1.497  -4.634   6.697  0.00  0.00    +0.007 A 
ATOM     15  C   UNL     1      -1.749  -5.986   6.569  0.00  0.00    +0.015 A 
ATOM     16  C   UNL     1      -2.450  -6.657   7.563  0.00  0.00    +0.008 A 
ATOM     17  C   UNL     1      -2.897  -5.965   8.682  0.00  0.00    +0.015 A 
ATOM     18  C   UNL     1      -2.637  -4.615   8.806  0.00  0.00    +0.007 A 
BRANCH  16  19
ATOM     19  S   UNL     1      -2.774  -8.382   7.404  0.00  0.00    -0.129 S 
ATOM     20  C   UNL     1      -3.695  -8.797   8.911  0.00  0.00    +0.090 C 
ENDBRANCH  16  19
ENDBRANCH   4  13
BRANCH   1  21
ATOM     21  C   UNL     1      -0.460   0.132   4.838  0.00  0.00    +0.211 C 
BRANCH  21  23
ATOM     22  N   UNL     1       0.026  -0.014   2.417  0.00  0.00    -0.283 N 
ATOM     23  C   UNL     1      -0.354  -0.640   3.549  0.00  0.00    +0.235 C 
ATOM     24  O   UNL     1      -0.612  -1.825   3.529  0.00  0.00    -0.274 OA
ATOM     25  H   UNL     1       0.301   0.916   2.446  0.00  0.00    +0.155 HD
BRANCH  22  32
ATOM     26  C   UNL     1       2.406  -1.358   1.628  0.00  0.00    +0.046 C 
ATOM     27  C   UNL     1       1.163  -1.374   0.777  0.00  0.00    -0.028 A 
ATOM     28  C   UNL     1       1.155  -2.061  -0.422  0.00  0.00    +0.005 A 
ATOM     29  C   UNL     1       0.015  -2.077  -1.204  0.00  0.00    +0.002 A 
ATOM     30  C   UNL     1      -1.122  -1.406  -0.789  0.00  0.00    +0.022 A 
ATOM     31  C   UNL     1      -1.120  -0.718   0.409  0.00  0.00    +0.062 A 
ATOM     32  C   UNL     1       0.023  -0.705   1.200  0.00  0.00    +0.055 A 
ATOM     33 CL   UNL     1      -2.547   0.124   0.929  0.00  0.00    -0.082 Cl
ENDBRANCH  22  32
ENDBRANCH  21  23
ENDBRANCH   1  21
TORSDOF 5
