REMARK  Name = ZINC09758357
REMARK  8 active torsions:
REMARK  status: ('A' for Active; 'I' for Inactive)
REMARK    1  A    between atoms: C_1  and  C_2
REMARK    2  A    between atoms: C_2  and  C_3
REMARK    3  A    between atoms: C_8  and  N_9
REMARK    4  A    between atoms: C_10  and  C_12
REMARK    5  A    between atoms: C_12  and  N_13
REMARK    6  A    between atoms: N_16  and  C_17
REMARK    7  A    between atoms: C_17  and  C_19
REMARK    8  A    between atoms: C_17  and  C_26
REMARK                            x       y       z     vdW  Elec       q    Type
REMARK                         _______ _______ _______ _____ _____    ______ ____
ROOT
ATOM      1  N   UNL     1       1.143   1.901  -0.016  0.00  0.00    -0.291 N 
ATOM      2  C   UNL     1      -0.015   1.211  -0.018  0.00  0.00    +0.300 C 
ATOM      3  O   UNL     1       0.002  -0.005  -0.033  0.00  0.00    -0.253 OA
ATOM      4  N   UNL     1      -1.191   1.869  -0.011  0.00  0.00    -0.292 N 
ATOM      5  H   UNL     1       1.130   2.870  -0.004  0.00  0.00    +0.151 HD
ATOM      6  H   UNL     1      -1.204   2.838   0.001  0.00  0.00    +0.151 HD
ENDROOT
BRANCH   1   7
ATOM      7  C   UNL     1       2.422   1.186  -0.030  0.00  0.00    +0.202 C 
BRANCH   7   9
ATOM      8  N   UNL     1       4.831   1.749  -0.035  0.00  0.00    -0.284 N 
ATOM      9  C   UNL     1       3.554   2.181  -0.024  0.00  0.00    +0.234 C 
ATOM     10  O   UNL     1       3.316   3.370  -0.008  0.00  0.00    -0.274 OA
ATOM     11  H   UNL     1       5.022   0.801   0.034  0.00  0.00    +0.155 HD
BRANCH   8  17
ATOM     12  C   UNL     1       7.141   2.347   0.337  0.00  0.00    -0.026 A 
ATOM     13  C   UNL     1       8.174   3.257   0.226  0.00  0.00    +0.005 A 
ATOM     14  C   UNL     1       7.953   4.488  -0.365  0.00  0.00    +0.000 A 
ATOM     15  C   UNL     1       6.697   4.811  -0.846  0.00  0.00    +0.002 A 
ATOM     16  C   UNL     1       5.662   3.904  -0.743  0.00  0.00    +0.023 A 
ATOM     17  C   UNL     1       5.879   2.669  -0.145  0.00  0.00    +0.037 A 
BRANCH  12  19
ATOM     18  C   UNL     1       7.694  -0.030  -0.103  0.00  0.00    +0.009 C 
ATOM     19  C   UNL     1       7.383   1.006   0.980  0.00  0.00    +0.033 C 
ENDBRANCH  12  19
ENDBRANCH   8  17
ENDBRANCH   7   9
ENDBRANCH   1   7
BRANCH   4  20
ATOM     20  C   UNL     1      -2.449   1.119  -0.020  0.00  0.00    +0.108 C 
BRANCH  20  21
ATOM     21  C   UNL     1      -3.540   1.975  -0.610  0.00  0.00    -0.027 A 
ATOM     22  C   UNL     1      -3.609   3.320  -0.297  0.00  0.00    +0.007 A 
ATOM     23  C   UNL     1      -4.606   4.106  -0.842  0.00  0.00    +0.020 A 
ATOM     24  C   UNL     1      -5.541   3.546  -1.694  0.00  0.00    +0.041 A 
ATOM     25  C   UNL     1      -5.475   2.199  -2.003  0.00  0.00    +0.020 A 
ATOM     26  C   UNL     1      -4.474   1.414  -1.461  0.00  0.00    +0.007 A 
ATOM     27 CL   UNL     1      -6.798   4.532  -2.373  0.00  0.00    -0.084 Cl
ENDBRANCH  20  21
BRANCH  20  28
ATOM     28  C   UNL     1      -2.823   0.733   1.413  0.00  0.00    +0.014 C 
ATOM     29  C   UNL     1      -1.993   1.337   2.547  0.00  0.00    +0.006 C 
ATOM     30  C   UNL     1      -1.837  -0.142   2.189  0.00  0.00    +0.006 C 
ENDBRANCH  20  28
ENDBRANCH   4  20
TORSDOF 7
