REMARK  Name = ZINC21246106
REMARK  6 active torsions:
REMARK  status: ('A' for Active; 'I' for Inactive)
REMARK    1  A    between atoms: C_1  and  C_2
REMARK    2  A    between atoms: C_11  and  N_32
REMARK    3  A    between atoms: C_13  and  S_15
REMARK    4  A    between atoms: S_15  and  C_16
REMARK    5  A    between atoms: C_16  and  C_17
REMARK    6  A    between atoms: C_25  and  C_27
REMARK                            x       y       z     vdW  Elec       q    Type
REMARK                         _______ _______ _______ _____ _____    ______ ____
ROOT
ATOM      1  C   UNL     1       3.091   0.033  12.631  0.00  0.00    +0.008 C 
ATOM      2  C   UNL     1       2.705   0.562  11.248  0.00  0.00    -0.009 C 
ATOM      3  C   UNL     1       1.597  -0.314  10.655  0.00  0.00    +0.008 C 
ATOM      4  C   UNL     1       1.378   0.052   9.186  0.00  0.00    +0.037 C 
ATOM      5  C   UNL     1       1.154   1.558   9.081  0.00  0.00    -0.025 A 
ATOM      6  C   UNL     1       1.528   2.381  10.081  0.00  0.00    -0.004 A 
ATOM      7  S   UNL     1       1.082   4.007   9.533  0.00  0.00    -0.073 S 
ATOM      8  C   UNL     1       0.392   3.578   7.956  0.00  0.00    +0.115 A 
ATOM      9  C   UNL     1       0.531   2.176   7.909  0.00  0.00    +0.051 A 
ATOM     10  C   UNL     1       0.048   1.551   6.725  0.00  0.00    +0.129 A 
ATOM     11  N   UNL     1      -0.491   2.296   5.775  0.00  0.00    -0.207 NA
ATOM     12  C   UNL     1      -0.587   3.616   5.882  0.00  0.00    +0.191 A 
ATOM     13  N   UNL     1      -0.153   4.252   6.963  0.00  0.00    -0.214 NA
ATOM     14  C   UNL     1       2.181   2.000  11.375  0.00  0.00    +0.046 C 
ENDROOT
BRANCH  10  15
ATOM     15  N   UNL     1       0.136   0.179   6.574  0.00  0.00    -0.343 N 
ATOM     16  H   UNL     1      -0.240  -0.298   5.656  0.00  0.00    +0.144 HD
ATOM     17  H   UNL     1       0.581  -0.435   7.370  0.00  0.00    +0.144 HD
ENDBRANCH  10  15
BRANCH  12  18
ATOM     18  S   UNL     1      -1.311   4.539   4.568  0.00  0.00    -0.077 S 
BRANCH  18  19
ATOM     19  C   UNL     1      -1.697   3.197   3.416  0.00  0.00    +0.173 C 
BRANCH  19  20
ATOM     20  C   UNL     1      -2.344   3.767   2.180  0.00  0.00    +0.226 C 
ATOM     21  O   UNL     1      -2.526   4.962   2.086  0.00  0.00    -0.275 OA
ATOM     22  N   UNL     1      -2.720   2.947   1.178  0.00  0.00    -0.298 N 
ATOM     23  C   UNL     1      -2.501   1.497   1.280  0.00  0.00    +0.127 C 
ATOM     24  C   UNL     1      -1.699   1.036   0.056  0.00  0.00    +0.127 C 
ATOM     25  N   UNL     1      -2.331   1.577  -1.155  0.00  0.00    -0.292 N 
ATOM     26  C   UNL     1      -2.545   3.028  -1.255  0.00  0.00    +0.127 C 
ATOM     27  C   UNL     1      -3.351   3.489  -0.034  0.00  0.00    +0.127 C 
ATOM     28  C   UNL     1      -2.707   0.758  -2.157  0.00  0.00    +0.282 C 
ATOM     29  O   UNL     1      -3.349   1.197  -3.093  0.00  0.00    -0.267 OA
BRANCH  28  30
ATOM     30  C   UNL     1      -2.343  -0.662  -2.119  0.00  0.00    +0.189 A 
ATOM     31  C   UNL     1      -2.763  -1.622  -2.995  0.00  0.00    +0.054 A 
ATOM     32  C   UNL     1      -2.174  -2.828  -2.584  0.00  0.00    +0.042 A 
ATOM     33  C   UNL     1      -1.430  -2.555  -1.490  0.00  0.00    +0.196 A 
ATOM     34  O   UNL     1      -1.530  -1.248  -1.216  0.00  0.00    -0.458 OA
ENDBRANCH  28  30
ENDBRANCH  19  20
ENDBRANCH  18  19
ENDBRANCH  12  18
TORSDOF 5
