REMARK  Name = ZINC36597618
REMARK  13 active torsions:
REMARK  status: ('A' for Active; 'I' for Inactive)
REMARK    1  A    between atoms: C_1  and  C_2
REMARK    2  A    between atoms: C_5  and  C_7
REMARK    3  A    between atoms: C_7  and  N_8
REMARK    4  A    between atoms: N_8  and  C_9
REMARK    5  A    between atoms: C_9  and  C_11
REMARK    6  A    between atoms: C_9  and  C_20
REMARK    7  A    between atoms: C_14  and  N_17
REMARK    8  A    between atoms: N_17  and  C_18
REMARK    9  A    between atoms: N_17  and  C_19
REMARK   10  A    between atoms: N_22  and  C_23
REMARK   11  A    between atoms: C_29  and  C_31
REMARK   12  A    between atoms: C_32  and  O_38
REMARK   13  A    between atoms: C_36  and  O_37
REMARK                            x       y       z     vdW  Elec       q    Type
REMARK                         _______ _______ _______ _____ _____    ______ ____
ROOT
ATOM      1  N   UNL     1       3.495  -3.620  -1.675  0.00  0.00    -0.274 N 
ATOM      2  C   UNL     1       2.410  -3.764  -2.462  0.00  0.00    +0.255 C 
ATOM      3  O   UNL     1       1.915  -2.791  -2.999  0.00  0.00    -0.270 OA
ENDROOT
BRANCH   2   4
ATOM      4  C   UNL     1       1.825  -5.098  -2.672  0.00  0.00    +0.119 A 
ATOM      5  C   UNL     1       0.820  -5.572  -1.815  0.00  0.00    +0.133 A 
ATOM      6  C   UNL     1       0.276  -6.829  -2.023  0.00  0.00    +0.046 A 
ATOM      7  C   UNL     1       0.720  -7.615  -3.069  0.00  0.00    +0.007 A 
ATOM      8  C   UNL     1       1.709  -7.159  -3.920  0.00  0.00    +0.046 A 
ATOM      9  C   UNL     1       2.263  -5.902  -3.734  0.00  0.00    +0.133 A 
BRANCH   9  10
ATOM     10  O   UNL     1       3.230  -5.454  -4.574  0.00  0.00    -0.506 OA
ATOM     11  H   UNL     1       4.128  -5.678  -4.294  0.00  0.00    +0.292 HD
ENDBRANCH   9  10
BRANCH   5  12
ATOM     12  O   UNL     1       0.384  -4.802  -0.787  0.00  0.00    -0.506 OA
ATOM     13  H   UNL     1      -0.358  -4.225  -1.015  0.00  0.00    +0.292 HD
ENDBRANCH   5  12
ENDBRANCH   2   4
BRANCH   1  14
ATOM     14  C   UNL     1       4.091  -4.792  -1.028  0.00  0.00    +0.183 C 
BRANCH  14  19
ATOM     15  C   UNL     1       1.991  -4.220   3.522  0.00  0.00    +0.086 C 
ATOM     16  C   UNL     1       2.434  -4.847   2.225  0.00  0.00    +0.102 A 
ATOM     17  C   UNL     1       2.199  -6.116   1.844  0.00  0.00    +0.045 A 
ATOM     18  C   UNL     1       2.788  -6.276   0.569  0.00  0.00    +0.046 A 
ATOM     19  C   UNL     1       3.346  -5.096   0.246  0.00  0.00    +0.122 A 
ATOM     20  O   UNL     1       3.124  -4.232   1.251  0.00  0.00    -0.463 OA
ENDBRANCH  14  19
ENDBRANCH   1  14
BRANCH   1  21
ATOM     21  C   UNL     1       4.077  -2.292  -1.466  0.00  0.00    +0.193 C 
BRANCH  21  22
ATOM     22  C   UNL     1       3.006  -1.342  -0.997  0.00  0.00    -0.018 A 
ATOM     23  C   UNL     1       2.142  -1.720   0.015  0.00  0.00    +0.008 A 
ATOM     24  C   UNL     1       1.159  -0.851   0.446  0.00  0.00    +0.023 A 
ATOM     25  C   UNL     1       1.038   0.404  -0.138  0.00  0.00    +0.029 A 
ATOM     26  C   UNL     1       1.907   0.780  -1.154  0.00  0.00    +0.023 A 
ATOM     27  C   UNL     1       2.892  -0.091  -1.577  0.00  0.00    +0.008 A 
BRANCH  25  28
ATOM     28  N   UNL     1       0.045   1.284   0.296  0.00  0.00    -0.336 N 
ATOM     29  C   UNL     1      -0.741   0.971   1.492  0.00  0.00    +0.129 C 
ATOM     30  C   UNL     1      -0.212   2.522  -0.445  0.00  0.00    +0.129 C 
ENDBRANCH  25  28
ENDBRANCH  21  22
BRANCH  21  31
ATOM     31  C   UNL     1       5.163  -2.378  -0.423  0.00  0.00    +0.238 C 
ATOM     32  O   UNL     1       5.003  -3.066   0.563  0.00  0.00    -0.273 OA
ATOM     33  N   UNL     1       6.310  -1.691  -0.588  0.00  0.00    -0.311 N 
ATOM     34  H   UNL     1       6.438  -1.141  -1.376  0.00  0.00    +0.149 HD
BRANCH  33  35
ATOM     35  C   UNL     1       7.365  -1.775   0.425  0.00  0.00    +0.073 C 
ATOM     36  C   UNL     1       7.088  -0.760   1.536  0.00  0.00    +0.022 C 
ATOM     37  C   UNL     1       8.190  -0.847   2.594  0.00  0.00    +0.002 C 
ATOM     38  C   UNL     1       9.542  -0.539   1.948  0.00  0.00    +0.000 C 
ATOM     39  C   UNL     1       9.820  -1.555   0.837  0.00  0.00    +0.002 C 
ATOM     40  C   UNL     1       8.718  -1.467  -0.221  0.00  0.00    +0.022 C 
ENDBRANCH  33  35
ENDBRANCH  21  31
ENDBRANCH   1  21
TORSDOF 10
