REMARK  Name = ZINC35538830
REMARK  5 active torsions:
REMARK  status: ('A' for Active; 'I' for Inactive)
REMARK    1  A    between atoms: C_1  and  C_2
REMARK    2  A    between atoms: C_2  and  N_3
REMARK    3  A    between atoms: N_3  and  C_4
REMARK    4  A    between atoms: C_4  and  C_6
REMARK    5  A    between atoms: C_4  and  C_13
REMARK                            x       y       z     vdW  Elec       q    Type
REMARK                         _______ _______ _______ _____ _____    ______ ____
ROOT
ATOM      1  C   UNL     1       0.710  -1.947  -1.215  0.00  0.00    -0.003 C 
ENDROOT
BRANCH   1   2
ATOM      2  C   UNL     1      -0.700  -2.467  -1.328  0.00  0.00    -0.019 A 
ATOM      3  C   UNL     1      -1.274  -3.516  -0.699  0.00  0.00    +0.013 A 
ATOM      4  C   UNL     1      -2.614  -3.839  -0.945  0.00  0.00    -0.037 A 
ATOM      5  C   UNL     1      -3.269  -3.050  -1.831  0.00  0.00    -0.007 A 
ATOM      6  S   UNL     1      -2.051  -1.855  -2.322  0.00  0.00    -0.099 S 
ATOM      7  C   UNL     1      -4.685  -3.148  -2.297  0.00  0.00    +0.043 C 
ATOM      8  C   UNL     1      -5.541  -3.772  -1.187  0.00  0.00    +0.005 C 
ATOM      9  C   UNL     1      -5.523  -5.288  -1.360  0.00  0.00    +0.001 C 
ATOM     10  C   UNL     1      -4.099  -5.828  -1.250  0.00  0.00    +0.005 C 
ATOM     11  C   UNL     1      -3.290  -5.013  -0.245  0.00  0.00    +0.036 C 
ENDBRANCH   1   2
BRANCH   1  12
ATOM     12  C   UNL     1       1.520  -2.432  -2.389  0.00  0.00    -0.057 A 
ATOM     13  C   UNL     1       1.423  -1.788  -3.609  0.00  0.00    +0.003 A 
ATOM     14  C   UNL     1       2.166  -2.232  -4.686  0.00  0.00    +0.015 A 
ATOM     15  C   UNL     1       3.008  -3.321  -4.543  0.00  0.00    +0.018 A 
ATOM     16  C   UNL     1       3.105  -3.964  -3.323  0.00  0.00    +0.015 A 
ATOM     17  C   UNL     1       2.365  -3.516  -2.245  0.00  0.00    +0.003 A 
ATOM     18 BR   UNL     1       4.025  -3.929  -6.017  0.00  0.00    -0.050 Br
ENDBRANCH   1  12
BRANCH   1  19
ATOM     19  N   UNL     1       0.690  -0.478  -1.207  0.00  0.00    +0.386 N 
ATOM     20  H   UNL     1       0.202  -0.144  -2.024  0.00  0.00    -0.085 HD
ATOM     21  H   UNL     1       1.636  -0.129  -1.214  0.00  0.00    -0.085 HD
BRANCH  19  23
ATOM     22  C   UNL     1      -0.019   1.526   0.010  0.00  0.00    -0.017 C 
ATOM     23  C   UNL     1       0.002  -0.004   0.002  0.00  0.00    -0.085 C 
ENDBRANCH  19  23
ENDBRANCH   1  19
TORSDOF 4
