REMARK  Name = ZINC60370011
REMARK  9 active torsions:
REMARK  status: ('A' for Active; 'I' for Inactive)
REMARK    1  A    between atoms: C_1  and  C_2
REMARK    2  A    between atoms: C_3  and  C_33
REMARK    3  A    between atoms: N_4  and  C_26
REMARK    4  A    between atoms: C_5  and  N_9
REMARK    5  A    between atoms: C_6  and  C_7
REMARK    6  A    between atoms: C_10  and  C_12
REMARK    7  A    between atoms: C_12  and  N_13
REMARK    8  A    between atoms: C_16  and  N_19
REMARK    9  A    between atoms: N_19  and  C_20
REMARK                            x       y       z     vdW  Elec       q    Type
REMARK                         _______ _______ _______ _____ _____    ______ ____
ROOT
ATOM      1  N   UNL     1       0.339  -3.288   1.462  0.00  0.00    -0.272 N 
ATOM      2  C   UNL     1       0.462  -4.500   0.885  0.00  0.00    +0.202 C 
ATOM      3  O   UNL     1       0.621  -4.587  -0.315  0.00  0.00    -0.278 OA
ATOM      4  H   UNL     1       0.300  -3.212   2.428  0.00  0.00    +0.156 HD
ENDROOT
BRANCH   1   9
ATOM      5  C   UNL     1      -1.086   1.115  -0.571  0.00  0.00    +0.047 C 
ATOM      6  C   UNL     1      -0.347  -0.163  -0.267  0.00  0.00    -0.010 A 
ATOM      7  C   UNL     1       0.751  -0.621  -0.891  0.00  0.00    +0.027 A 
ATOM      8  N   UNL     1       1.126  -1.814  -0.329  0.00  0.00    -0.300 N 
ATOM      9  C   UNL     1       0.270  -2.148   0.673  0.00  0.00    +0.128 A 
ATOM     10  C   UNL     1      -0.684  -1.144   0.772  0.00  0.00    +0.095 A 
ATOM     11  C   UNL     1       1.459   0.068  -2.029  0.00  0.00    +0.064 C 
BRANCH   8  12
ATOM     12  C   UNL     1       2.231  -2.579  -0.730  0.00  0.00    +0.048 A 
ATOM     13  C   UNL     1       2.254  -3.160  -1.991  0.00  0.00    +0.029 A 
ATOM     14  C   UNL     1       3.343  -3.913  -2.384  0.00  0.00    +0.040 A 
ATOM     15  C   UNL     1       4.412  -4.088  -1.522  0.00  0.00    +0.124 A 
ATOM     16  C   UNL     1       4.391  -3.510  -0.264  0.00  0.00    +0.040 A 
ATOM     17  C   UNL     1       3.306  -2.752   0.131  0.00  0.00    +0.029 A 
ATOM     18  F   UNL     1       5.476  -4.825  -1.908  0.00  0.00    -0.205 F 
ENDBRANCH   8  12
BRANCH  10  19
ATOM     19  C   UNL     1      -1.775  -1.080   1.696  0.00  0.00    +0.103 C 
ATOM     20  N   UNL     1      -2.641  -1.029   2.430  0.00  0.00    -0.191 NA
ENDBRANCH  10  19
ENDBRANCH   1   9
BRANCH   2  21
ATOM     21  C   UNL     1       0.401  -5.746   1.730  0.00  0.00    +0.019 C 
BRANCH  21  22
ATOM     22  N   UNL     1       0.449  -6.929   0.861  0.00  0.00    +0.387 N 
ATOM     23  C   UNL     1       1.804  -7.075   0.269  0.00  0.00    -0.076 C 
ATOM     24  C   UNL     1       1.863  -8.575  -0.116  0.00  0.00    +0.002 C 
ATOM     25  C   UNL     1       1.107  -9.259   1.046  0.00  0.00    +0.052 C 
ATOM     26  C   UNL     1       0.223  -8.156   1.656  0.00  0.00    -0.056 C 
ATOM     27  H   UNL     1      -0.244  -6.855   0.132  0.00  0.00    -0.081 HD
BRANCH  25  28
ATOM     28  N   UNL     1       2.054  -9.764   2.042  0.00  0.00    -0.343 N 
ATOM     29  H   UNL     1       2.291  -9.217   2.808  0.00  0.00    +0.146 HD
BRANCH  28  30
ATOM     30  C   UNL     1       2.618 -11.033   1.891  0.00  0.00    +0.027 A 
ATOM     31  C   UNL     1       2.285 -11.816   0.792  0.00  0.00    +0.023 A 
ATOM     32  C   UNL     1       2.844 -13.070   0.645  0.00  0.00    +0.002 A 
ATOM     33  C   UNL     1       3.734 -13.547   1.589  0.00  0.00    +0.000 A 
ATOM     34  C   UNL     1       4.067 -12.771   2.684  0.00  0.00    +0.002 A 
ATOM     35  C   UNL     1       3.516 -11.514   2.834  0.00  0.00    +0.023 A 
ENDBRANCH  28  30
ENDBRANCH  25  28
ENDBRANCH  21  22
ENDBRANCH   2  21
TORSDOF 7
