REMARK  Name = ZINC32576962
REMARK  7 active torsions:
REMARK  status: ('A' for Active; 'I' for Inactive)
REMARK    1  A    between atoms: C_5  and  C_7
REMARK    2  A    between atoms: C_7  and  N_8
REMARK    3  A    between atoms: N_11  and  C_14
REMARK    4  A    between atoms: C_14  and  C_15
REMARK    5  A    between atoms: N_17  and  N_18
REMARK    6  A    between atoms: C_19  and  C_20
REMARK    7  A    between atoms: C_25  and  O_26
REMARK                            x       y       z     vdW  Elec       q    Type
REMARK                         _______ _______ _______ _____ _____    ______ ____
ROOT
ATOM      1  C   UNL     1       5.912  -2.162  -0.584  0.00  0.00    +0.020 C 
ENDROOT
BRANCH   1   5
ATOM      2  N   UNL     1       9.641  -4.099  -0.151  0.00  0.00    -0.302 NA
ATOM      3  C   UNL     1       9.483  -3.150  -1.261  0.00  0.00    +0.066 C 
ATOM      4  C   UNL     1       8.302  -2.221  -0.970  0.00  0.00    -0.063 C 
ATOM      5  N   UNL     1       7.084  -3.023  -0.790  0.00  0.00    +0.387 N 
ATOM      6  C   UNL     1       7.242  -3.973   0.320  0.00  0.00    -0.063 C 
ATOM      7  C   UNL     1       8.423  -4.902   0.029  0.00  0.00    +0.066 C 
ATOM      8  H   UNL     1       6.919  -3.602  -1.711  0.00  0.00    -0.081 HD
BRANCH   2   9
ATOM      9  C   UNL     1      10.813  -4.961  -0.357  0.00  0.00    +0.120 C 
BRANCH   9  14
ATOM     10  C   UNL     1      10.613  -8.252   1.482  0.00  0.00    +0.000 A 
ATOM     11  C   UNL     1      10.999  -7.881   2.756  0.00  0.00    +0.001 A 
ATOM     12  C   UNL     1      11.325  -6.565   3.024  0.00  0.00    +0.020 A 
ATOM     13  C   UNL     1      11.265  -5.619   2.016  0.00  0.00    +0.045 A 
ATOM     14  C   UNL     1      10.879  -5.991   0.741  0.00  0.00    -0.015 A 
ATOM     15  C   UNL     1      10.548  -7.306   0.476  0.00  0.00    +0.006 A 
ATOM     16 CL   UNL     1      11.675  -3.965   2.352  0.00  0.00    -0.083 Cl
ENDBRANCH   9  14
ENDBRANCH   2   9
ENDBRANCH   1   5
BRANCH   1  17
ATOM     17  C   UNL     1       4.659  -2.995  -0.649  0.00  0.00    +0.216 C 
ATOM     18  O   UNL     1       4.734  -4.190  -0.847  0.00  0.00    -0.276 OA
ATOM     19  N   UNL     1       3.454  -2.414  -0.486  0.00  0.00    -0.209 N 
ATOM     20  H   UNL     1       3.385  -1.331  -0.306  0.00  0.00    +0.177 HD
BRANCH  19  21
ATOM     21  N   UNL     1       2.288  -3.189  -0.546  0.00  0.00    -0.188 NA
ATOM     22  C   UNL     1       1.125  -2.614  -0.529  0.00  0.00    +0.142 C 
BRANCH  22  23
ATOM     23  C   UNL     1       0.989  -1.212  -0.961  0.00  0.00    +0.037 A 
ATOM     24  C   UNL     1       1.984  -0.618  -1.741  0.00  0.00    +0.028 A 
ATOM     25  C   UNL     1       1.852   0.696  -2.142  0.00  0.00    +0.019 A 
ATOM     26  C   UNL     1       0.735   1.428  -1.774  0.00  0.00    +0.019 A 
ATOM     27  C   UNL     1      -0.256   0.852  -1.003  0.00  0.00    +0.047 A 
ATOM     28  C   UNL     1      -0.138  -0.466  -0.592  0.00  0.00    +0.126 A 
ATOM     29 BR   UNL     1       3.203   1.501  -3.192  0.00  0.00    -0.050 Br
BRANCH  28  30
ATOM     30  O   UNL     1      -1.112  -1.033   0.167  0.00  0.00    -0.506 OA
ATOM     31  H   UNL     1      -1.996  -0.446   0.455  0.00  0.00    +0.292 HD
ENDBRANCH  28  30
ENDBRANCH  22  23
ENDBRANCH  19  21
ENDBRANCH   1  17
TORSDOF 7
