REMARK  Name = ZINC39685879
REMARK  12 active torsions:
REMARK  status: ('A' for Active; 'I' for Inactive)
REMARK    1  A    between atoms: C_1  and  C_2
REMARK    2  A    between atoms: C_2  and  C_3
REMARK    3  A    between atoms: C_2  and  C_4
REMARK    4  A    between atoms: C_4  and  C_6
REMARK    5  A    between atoms: C_4  and  N_13
REMARK    6  A    between atoms: N_8  and  C_9
REMARK    7  A    between atoms: C_9  and  C_10
REMARK    8  A    between atoms: C_9  and  C_11
REMARK    9  A    between atoms: C_9  and  C_12
REMARK   10  A    between atoms: C_14  and  C_16
REMARK   11  A    between atoms: C_27  and  C_29
REMARK   12  A    between atoms: C_32  and  C_34
REMARK                            x       y       z     vdW  Elec       q    Type
REMARK                         _______ _______ _______ _____ _____    ______ ____
ROOT
ATOM      1  C   UNL     1      -0.363  -3.815   1.827  0.00  0.00    +0.100 C 
ATOM      2  C   UNL     1       1.014  -4.082   1.179  0.00  0.00    +0.121 C 
ATOM      3  N   UNL     1       1.995  -3.784   2.249  0.00  0.00    -0.294 N 
ATOM      4  C   UNL     1       1.369  -4.319   3.482  0.00  0.00    +0.115 C 
ATOM      5  C   UNL     1      -0.127  -3.974   3.338  0.00  0.00    -0.004 C 
ATOM      6  C   UNL     1      -0.986  -5.108   3.890  0.00  0.00    -0.010 C 
ATOM      7  C   UNL     1      -0.777  -5.210   5.404  0.00  0.00    -0.082 C 
ATOM      8  N   UNL     1      -1.145  -3.937   6.037  0.00  0.00    +0.379 N 
ATOM      9  C   UNL     1      -0.254  -2.869   5.569  0.00  0.00    -0.082 C 
ATOM     10  C   UNL     1      -0.440  -2.669   4.062  0.00  0.00    -0.010 C 
ATOM     11  C   UNL     1       3.187  -3.168   2.128  0.00  0.00    +0.282 C 
ATOM     12  O   UNL     1       3.885  -2.996   3.110  0.00  0.00    -0.267 OA
ATOM     13  H   UNL     1      -2.098  -3.707   5.797  0.00  0.00    -0.086 HD
ATOM     14  H   UNL     1      -1.066  -4.026   7.038  0.00  0.00    -0.086 HD
ENDROOT
BRANCH  11  15
ATOM     15  C   UNL     1       3.642  -2.704   0.815  0.00  0.00    +0.190 A 
ATOM     16  C   UNL     1       4.835  -2.068   0.551  0.00  0.00    +0.055 A 
ATOM     17  C   UNL     1       4.858  -1.807  -0.823  0.00  0.00    +0.050 A 
ATOM     18  C   UNL     1       3.690  -2.288  -1.342  0.00  0.00    +0.136 A 
ATOM     19  O   UNL     1       2.969  -2.832  -0.348  0.00  0.00    -0.450 OA
BRANCH  18  20
ATOM     20  C   UNL     1       3.290  -2.227  -2.763  0.00  0.00    +0.017 A 
ATOM     21  C   UNL     1       4.138  -1.643  -3.706  0.00  0.00    +0.011 A 
ATOM     22  C   UNL     1       3.758  -1.590  -5.031  0.00  0.00    +0.001 A 
ATOM     23  C   UNL     1       2.539  -2.114  -5.426  0.00  0.00    +0.000 A 
ATOM     24  C   UNL     1       1.694  -2.693  -4.496  0.00  0.00    +0.001 A 
ATOM     25  C   UNL     1       2.064  -2.758  -3.169  0.00  0.00    +0.011 A 
ENDBRANCH  18  20
ENDBRANCH  11  15
BRANCH   1  27
ATOM     26  N   UNL     1      -2.146  -2.141   1.450  0.00  0.00    -0.303 N 
ATOM     27  C   UNL     1      -0.828  -2.416   1.513  0.00  0.00    +0.219 C 
ATOM     28  O   UNL     1      -0.015  -1.537   1.318  0.00  0.00    -0.275 OA
ATOM     29  H   UNL     1      -2.796  -2.844   1.607  0.00  0.00    +0.149 HD
BRANCH  26  30
ATOM     30  C   UNL     1      -2.597  -0.781   1.145  0.00  0.00    +0.161 C 
BRANCH  30  31
ATOM     31  C   UNL     1      -3.978  -0.572   1.712  0.00  0.00    +0.234 C 
ATOM     32  O   UNL     1      -4.660  -1.527   2.016  0.00  0.00    -0.274 OA
ATOM     33  N   UNL     1      -4.454   0.678   1.881  0.00  0.00    -0.309 N 
ATOM     34  H   UNL     1      -3.885   1.442   1.700  0.00  0.00    +0.149 HD
BRANCH  33  35
ATOM     35  C   UNL     1      -5.832   0.881   2.336  0.00  0.00    +0.026 C 
ATOM     36  C   UNL     1      -6.018   0.227   3.706  0.00  0.00    +0.031 C 
ATOM     37  C   UNL     1      -6.117   2.380   2.444  0.00  0.00    +0.031 C 
ATOM     38  C   UNL     1      -6.799   0.249   1.333  0.00  0.00    +0.031 C 
ENDBRANCH  33  35
ENDBRANCH  30  31
BRANCH  30  40
ATOM     39  C   UNL     1      -1.218  -0.719  -0.937  0.00  0.00    +0.009 C 
ATOM     40  C   UNL     1      -2.633  -0.584  -0.371  0.00  0.00    +0.012 C 
ATOM     41  C   UNL     1      -3.538  -1.643  -1.003  0.00  0.00    +0.009 C 
ENDBRANCH  30  40
ENDBRANCH  26  30
ENDBRANCH   1  27
TORSDOF 7
