REMARK  Name = ZINC09012823
REMARK  4 active torsions:
REMARK  status: ('A' for Active; 'I' for Inactive)
REMARK    1  A    between atoms: C_1  and  S_2
REMARK    2  A    between atoms: S_2  and  C_3
REMARK    3  A    between atoms: C_6  and  C_9
REMARK    4  A    between atoms: C_17  and  C_21
REMARK                            x       y       z     vdW  Elec       q    Type
REMARK                         _______ _______ _______ _____ _____    ______ ____
ROOT
ATOM      1  C   UNL     1       2.922  -1.447   4.969  0.00  0.00    +0.063 C 
ATOM      2  C   UNL     1       4.166  -2.248   4.571  0.00  0.00    +0.109 C 
ATOM      3  C   UNL     1       3.812  -3.668   4.230  0.00  0.00    +0.219 C 
ATOM      4  O   UNL     1       4.385  -4.211   3.309  0.00  0.00    -0.275 OA
ATOM      5  N   UNL     1       2.876  -4.357   4.916  0.00  0.00    -0.270 N 
ATOM      6  C   UNL     1       2.091  -3.663   5.837  0.00  0.00    +0.125 A 
ATOM      7  C   UNL     1       2.088  -2.295   5.896  0.00  0.00    +0.028 A 
ATOM      8  C   UNL     1       1.216  -1.909   6.915  0.00  0.00    +0.098 A 
ATOM      9  N   UNL     1       0.695  -3.002   7.441  0.00  0.00    -0.172 NA
ATOM     10  N   UNL     1       1.227  -4.115   6.767  0.00  0.00    -0.263 N 
ATOM     11  H   UNL     1       1.012  -5.045   6.941  0.00  0.00    +0.190 HD
ATOM     12  H   UNL     1       2.752  -5.309   4.773  0.00  0.00    +0.156 HD
ENDROOT
BRANCH   1  16
ATOM     13  C   UNL     1       0.657  -0.474   1.478  0.00  0.00    +0.008 A 
ATOM     14  C   UNL     1       1.149   0.538   2.293  0.00  0.00    +0.015 A 
ATOM     15  C   UNL     1       1.881   0.220   3.420  0.00  0.00    +0.005 A 
ATOM     16  C   UNL     1       2.123  -1.104   3.738  0.00  0.00    -0.039 A 
ATOM     17  C   UNL     1       1.635  -2.114   2.929  0.00  0.00    +0.005 A 
ATOM     18  C   UNL     1       0.898  -1.803   1.804  0.00  0.00    +0.015 A 
BRANCH  13  20
ATOM     19  C   UNL     1      -0.322   1.740   0.035  0.00  0.00    +0.090 C 
ATOM     20  S   UNL     1      -0.277  -0.073   0.038  0.00  0.00    -0.129 S 
ENDBRANCH  13  20
ENDBRANCH   1  16
BRANCH   8  21
ATOM     21  C   UNL     1       0.925  -0.514   7.333  0.00  0.00    +0.002 A 
ATOM     22  C   UNL     1      -0.382  -0.130   7.624  0.00  0.00    +0.010 A 
ATOM     23  C   UNL     1      -0.647   1.168   8.013  0.00  0.00    +0.001 A 
ATOM     24  C   UNL     1       0.383   2.086   8.115  0.00  0.00    +0.000 A 
ATOM     25  C   UNL     1       1.683   1.709   7.827  0.00  0.00    +0.001 A 
ATOM     26  C   UNL     1       1.959   0.413   7.443  0.00  0.00    +0.010 A 
ENDBRANCH   8  21
TORSDOF 3
