REMARK  Name = ZINC13776209
REMARK  6 active torsions:
REMARK  status: ('A' for Active; 'I' for Inactive)
REMARK    1  A    between atoms: C_1  and  C_2
REMARK    2  A    between atoms: C_10  and  C_11
REMARK    3  A    between atoms: N_13  and  C_14
REMARK    4  A    between atoms: C_15  and  C_25
REMARK    5  A    between atoms: C_20  and  C_24
REMARK    6  A    between atoms: N_27  and  C_28
REMARK                            x       y       z     vdW  Elec       q    Type
REMARK                         _______ _______ _______ _____ _____    ______ ____
ROOT
ATOM      1  C   UNL     1       1.842   6.129   0.676  0.00  0.00    +0.085 A 
ATOM      2  C   UNL     1       0.595   5.637   1.035  0.00  0.00    +0.069 A 
ATOM      3  C   UNL     1       0.349   4.219   0.836  0.00  0.00    -0.023 A 
ATOM      4  C   UNL     1       1.383   3.524   0.313  0.00  0.00    -0.004 A 
ATOM      5  S   UNL     1       2.666   4.723   0.086  0.00  0.00    -0.077 S 
ATOM      6  C   UNL     1       1.421   2.060  -0.000  0.00  0.00    +0.046 C 
ATOM      7  C   UNL     1      -0.019   1.526   0.010  0.00  0.00    -0.009 C 
ATOM      8  C   UNL     1      -0.720   2.023   1.278  0.00  0.00    +0.008 C 
ATOM      9  C   UNL     1      -0.965   3.530   1.180  0.00  0.00    +0.037 C 
ATOM     10  C   UNL     1       0.002  -0.004   0.002  0.00  0.00    +0.008 C 
ENDROOT
BRANCH   1  13
ATOM     11  C   UNL     1       3.567   7.719   0.366  0.00  0.00    +0.284 C 
ATOM     12  O   UNL     1       4.284   6.841  -0.077  0.00  0.00    -0.266 OA
ATOM     13  N   UNL     1       2.314   7.428   0.768  0.00  0.00    -0.273 N 
ATOM     14  H   UNL     1       1.743   8.127   1.122  0.00  0.00    +0.156 HD
BRANCH  11  24
ATOM     15  C   UNL     1       6.408   8.653  -0.489  0.00  0.00    +0.048 C 
ATOM     16  C   UNL     1       5.309   9.506   0.091  0.00  0.00    +0.008 A 
ATOM     17  C   UNL     1       5.361  10.942   0.364  0.00  0.00    +0.024 A 
ATOM     18  C   UNL     1       6.337  11.928   0.206  0.00  0.00    +0.012 A 
ATOM     19  C   UNL     1       6.064  13.216   0.570  0.00  0.00    +0.001 A 
ATOM     20  C   UNL     1       4.822  13.550   1.095  0.00  0.00    +0.004 A 
ATOM     21  C   UNL     1       3.846  12.592   1.259  0.00  0.00    +0.047 A 
ATOM     22  C   UNL     1       4.101  11.275   0.896  0.00  0.00    +0.136 A 
ATOM     23  O   UNL     1       3.363  10.148   0.932  0.00  0.00    -0.450 OA
ATOM     24  C   UNL     1       4.068   9.097   0.464  0.00  0.00    +0.194 A 
ENDBRANCH  11  24
ENDBRANCH   1  13
BRANCH   2  25
ATOM     25  C   UNL     1      -0.437   6.516   1.594  0.00  0.00    +0.247 C 
ATOM     26  O   UNL     1      -1.223   7.079   0.854  0.00  0.00    -0.270 OA
ATOM     27  N   UNL     1      -0.516   6.700   2.926  0.00  0.00    -0.307 N 
ATOM     28  H   UNL     1       0.110   6.251   3.516  0.00  0.00    +0.149 HD
BRANCH  27  29
ATOM     29  C   UNL     1      -1.547   7.579   3.485  0.00  0.00    +0.096 C 
ATOM     30  C   UNL     1      -1.042   9.031   3.495  0.00  0.00    +0.046 C 
ATOM     31  C   UNL     1      -1.976   9.908   4.364  0.00  0.00    +0.168 C 
ATOM     32  S   UNL     1      -2.644   8.703   5.581  0.00  0.00    -0.029 S 
ATOM     33  O   UNL     1      -4.051   8.604   5.408  0.00  0.00    -0.174 OA
ATOM     34  O   UNL     1      -2.116   9.002   6.866  0.00  0.00    -0.174 OA
ATOM     35  C   UNL     1      -1.853   7.162   4.952  0.00  0.00    +0.188 C 
ENDBRANCH  27  29
ENDBRANCH   2  25
TORSDOF 4
