REMARK  Name = ZINC64491001
REMARK  7 active torsions:
REMARK  status: ('A' for Active; 'I' for Inactive)
REMARK    1  A    between atoms: C_3  and  C_27
REMARK    2  A    between atoms: C_6  and  C_7
REMARK    3  A    between atoms: C_7  and  N_8
REMARK    4  A    between atoms: C_12  and  C_20
REMARK    5  A    between atoms: N_29  and  C_30
REMARK    6  A    between atoms: C_30  and  C_31
REMARK    7  A    between atoms: C_31  and  C_32
REMARK                            x       y       z     vdW  Elec       q    Type
REMARK                         _______ _______ _______ _____ _____    ______ ____
ROOT
ATOM      1  C   UNL     1       0.212   1.221   0.157  0.00  0.00    +0.006 A 
ATOM      2  C   UNL     1       1.464   1.800   0.139  0.00  0.00    +0.013 A 
ATOM      3  C   UNL     1       2.595   1.004  -0.049  0.00  0.00    +0.037 A 
ATOM      4  C   UNL     1       2.451  -0.374  -0.216  0.00  0.00    +0.013 A 
ATOM      5  C   UNL     1       1.193  -0.941  -0.197  0.00  0.00    +0.006 A 
ATOM      6  C   UNL     1       0.076  -0.146  -0.010  0.00  0.00    -0.030 A 
ENDROOT
BRANCH   3   7
ATOM      7  C   UNL     1       3.940   1.618  -0.069  0.00  0.00    +0.244 C 
ATOM      8  O   UNL     1       4.062   2.818   0.077  0.00  0.00    -0.270 OA
ATOM      9  N   UNL     1       5.030   0.847  -0.250  0.00  0.00    -0.311 N 
ATOM     10  H   UNL     1       4.933  -0.112  -0.367  0.00  0.00    +0.149 HD
BRANCH   9  11
ATOM     11  C   UNL     1       6.363   1.455  -0.271  0.00  0.00    +0.110 C 
BRANCH  11  12
ATOM     12  C   UNL     1       7.416   0.368  -0.490  0.00  0.00    +0.073 C 
BRANCH  12  13
ATOM     13  C   UNL     1       8.787   0.994  -0.511  0.00  0.00    +0.035 A 
ATOM     14  H   UNL     1      11.456   2.132   0.634  0.00  0.00    +0.166 HD
ATOM     15  C   UNL     1       9.548   1.269   0.565  0.00  0.00    +0.105 A 
ATOM     16  N   UNL     1      10.707   1.827   0.098  0.00  0.00    -0.352 N 
ATOM     17  C   UNL     1      10.614   1.873  -1.248  0.00  0.00    +0.171 A 
ATOM     18  N   UNL     1       9.465   1.369  -1.606  0.00  0.00    -0.350 N 
ATOM     19  H   UNL     1       9.151   1.280  -2.519  0.00  0.00    +0.166 HD
ENDBRANCH  12  13
ENDBRANCH  11  12
ENDBRANCH   9  11
ENDBRANCH   3   7
BRANCH   6  20
ATOM     20  C   UNL     1      -1.295  -0.772   0.010  0.00  0.00    +0.144 C 
BRANCH  20  21
ATOM     21  N   UNL     1      -1.789  -0.910  -1.362  0.00  0.00    -0.280 N 
ATOM     22  C   UNL     1      -1.494  -2.107  -2.126  0.00  0.00    +0.163 C 
ATOM     23  C   UNL     1      -1.445  -3.406  -1.302  0.00  0.00    +0.064 C 
ATOM     24  C   UNL     1      -1.793  -4.471  -2.379  0.00  0.00    +0.103 C 
ATOM     25  N   UNL     1      -2.498  -3.735  -3.462  0.00  0.00    -0.245 NA
ATOM     26  N   UNL     1      -2.654  -2.366  -3.020  0.00  0.00    -0.222 NA
ATOM     27  C   UNL     1      -2.744  -1.301  -4.004  0.00  0.00    +0.113 C 
ATOM     28  C   UNL     1      -3.190  -0.033  -3.259  0.00  0.00    +0.113 C 
ATOM     29  C   UNL     1      -2.525   0.072  -1.917  0.00  0.00    +0.218 C 
ATOM     30  O   UNL     1      -2.654   1.106  -1.297  0.00  0.00    -0.276 OA
ATOM     31  H   UNL     1      -3.391  -4.157  -3.664  0.00  0.00    +0.142 HD
BRANCH  24  32
ATOM     32  C   UNL     1      -2.694  -5.527  -1.794  0.00  0.00    -0.029 A 
ATOM     33  C   UNL     1      -4.049  -5.286  -1.665  0.00  0.00    +0.006 A 
ATOM     34  C   UNL     1      -4.876  -6.254  -1.129  0.00  0.00    +0.020 A 
ATOM     35  C   UNL     1      -4.347  -7.466  -0.720  0.00  0.00    +0.041 A 
ATOM     36  C   UNL     1      -2.991  -7.707  -0.849  0.00  0.00    +0.020 A 
ATOM     37  C   UNL     1      -2.166  -6.740  -1.391  0.00  0.00    +0.006 A 
ATOM     38 CL   UNL     1      -5.385  -8.683  -0.045  0.00  0.00    -0.084 Cl
ENDBRANCH  24  32
ENDBRANCH  20  21
ENDBRANCH   6  20
TORSDOF 7
