REMARK  Name = ZINC01034719
REMARK  7 active torsions:
REMARK  status: ('A' for Active; 'I' for Inactive)
REMARK    1  A    between atoms: C_1  and  C_2
REMARK    2  A    between atoms: C_11  and  N_20
REMARK    3  A    between atoms: C_13  and  S_15
REMARK    4  A    between atoms: S_15  and  C_16
REMARK    5  A    between atoms: C_16  and  C_17
REMARK    6  A    between atoms: N_20  and  C_21
REMARK    7  A    between atoms: C_21  and  C_22
REMARK                            x       y       z     vdW  Elec       q    Type
REMARK                         _______ _______ _______ _____ _____    ______ ____
ROOT
ATOM      1  C   UNL     1      -1.389  -0.224   1.539  0.00  0.00    +0.008 C 
ATOM      2  C   UNL     1      -0.050   0.234   0.959  0.00  0.00    -0.009 C 
ATOM      3  C   UNL     1       1.096  -0.270   1.841  0.00  0.00    +0.008 C 
ATOM      4  C   UNL     1       2.433  -0.033   1.139  0.00  0.00    +0.037 C 
ATOM      5  C   UNL     1       2.522   1.434   0.726  0.00  0.00    -0.025 A 
ATOM      6  C   UNL     1       1.407   2.193   0.645  0.00  0.00    -0.004 A 
ATOM      7  S   UNL     1       1.971   3.800   0.139  0.00  0.00    -0.073 S 
ATOM      8  C   UNL     1       3.697   3.453   0.035  0.00  0.00    +0.115 A 
ATOM      9  C   UNL     1       3.781   2.086   0.401  0.00  0.00    +0.051 A 
ATOM     10  C   UNL     1       5.080   1.499   0.412  0.00  0.00    +0.132 A 
ATOM     11  N   UNL     1       6.085   2.303   0.075  0.00  0.00    -0.206 NA
ATOM     12  C   UNL     1       5.934   3.576  -0.257  0.00  0.00    +0.191 A 
ATOM     13  N   UNL     1       4.745   4.184  -0.287  0.00  0.00    -0.214 NA
ATOM     14  C   UNL     1      -0.002   1.768   0.922  0.00  0.00    +0.046 C 
ENDROOT
BRANCH  10  15
ATOM     15  N   UNL     1       5.283   0.174   0.753  0.00  0.00    -0.324 N 
ATOM     16  H   UNL     1       4.523  -0.407   0.914  0.00  0.00    +0.148 HD
BRANCH  15  17
ATOM     17  C   UNL     1       6.645  -0.351   0.872  0.00  0.00    +0.138 C 
BRANCH  17  18
ATOM     18  C   UNL     1       6.590  -1.808   1.251  0.00  0.00    -0.030 A 
ATOM     19  C   UNL     1       6.586  -2.176   2.583  0.00  0.00    +0.005 A 
ATOM     20  C   UNL     1       6.531  -3.513   2.931  0.00  0.00    +0.000 A 
ATOM     21  C   UNL     1       6.491  -4.482   1.947  0.00  0.00    +0.000 A 
ATOM     22  C   UNL     1       6.500  -4.115   0.614  0.00  0.00    +0.000 A 
ATOM     23  C   UNL     1       6.550  -2.778   0.266  0.00  0.00    +0.005 A 
ENDBRANCH  17  18
ENDBRANCH  15  17
ENDBRANCH  10  15
BRANCH  12  24
ATOM     24  S   UNL     1       7.366   4.511  -0.680  0.00  0.00    -0.077 S 
BRANCH  24  25
ATOM     25  C   UNL     1       6.603   6.114  -1.032  0.00  0.00    +0.172 C 
BRANCH  25  26
ATOM     26  C   UNL     1       7.670   7.102  -1.428  0.00  0.00    +0.221 C 
ATOM     27  O   UNL     1       8.832   6.757  -1.467  0.00  0.00    -0.275 OA
ATOM     28  N   UNL     1       7.333   8.370  -1.737  0.00  0.00    -0.329 N 
ATOM     29  H   UNL     1       6.404   8.646  -1.706  0.00  0.00    +0.145 HD
ATOM     30  H   UNL     1       8.020   9.006  -1.992  0.00  0.00    +0.145 HD
ENDBRANCH  25  26
ENDBRANCH  24  25
ENDBRANCH  12  24
TORSDOF 6
