REMARK  Name = ZINC27760668
REMARK  11 active torsions:
REMARK  status: ('A' for Active; 'I' for Inactive)
REMARK    1  A    between atoms: C_1  and  C_2
REMARK    2  A    between atoms: C_2  and  C_3
REMARK    3  A    between atoms: C_2  and  C_4
REMARK    4  A    between atoms: C_2  and  C_5
REMARK    5  A    between atoms: C_8  and  C_11
REMARK    6  A    between atoms: C_11  and  N_12
REMARK    7  A    between atoms: N_12  and  C_13
REMARK    8  A    between atoms: C_14  and  C_16
REMARK    9  A    between atoms: C_21  and  N_22
REMARK   10  A    between atoms: N_22  and  S_23
REMARK   11  A    between atoms: S_23  and  C_26
REMARK                            x       y       z     vdW  Elec       q    Type
REMARK                         _______ _______ _______ _____ _____    ______ ____
ROOT
ATOM      1  C   UNL     1       2.377   1.908  -3.700  0.00  0.00    +0.059 A 
ATOM      2  C   UNL     1       2.161   3.265  -3.949  0.00  0.00    +0.015 A 
ATOM      3  C   UNL     1       1.063   3.897  -3.408  0.00  0.00    +0.001 A 
ATOM      4  C   UNL     1       0.169   3.193  -2.617  0.00  0.00    +0.002 A 
ATOM      5  C   UNL     1       0.365   1.851  -2.366  0.00  0.00    +0.025 A 
ATOM      6  C   UNL     1       1.470   1.197  -2.898  0.00  0.00    +0.060 A 
ENDROOT
BRANCH   1   9
ATOM      7  N   UNL     1       3.834   1.364  -5.587  0.00  0.00    -0.296 N 
ATOM      8  C   UNL     1       2.925   2.113  -6.458  0.00  0.00    +0.132 C 
ATOM      9  C   UNL     1       3.550   1.225  -4.277  0.00  0.00    +0.248 C 
ATOM     10  O   UNL     1       4.261   0.537  -3.570  0.00  0.00    -0.270 OA
BRANCH   7  11
ATOM     11  C   UNL     1       5.052   0.767  -6.139  0.00  0.00    +0.142 C 
BRANCH  11  15
ATOM     12  C   UNL     1       4.212  -3.203  -7.476  0.00  0.00    -0.042 A 
ATOM     13  C   UNL     1       4.064  -2.136  -8.342  0.00  0.00    +0.004 A 
ATOM     14  C   UNL     1       4.337  -0.852  -7.910  0.00  0.00    +0.005 A 
ATOM     15  C   UNL     1       4.756  -0.634  -6.611  0.00  0.00    -0.030 A 
ATOM     16  C   UNL     1       4.908  -1.701  -5.745  0.00  0.00    +0.005 A 
ATOM     17  C   UNL     1       4.632  -2.985  -6.177  0.00  0.00    +0.004 A 
BRANCH  12  19
ATOM     18  C   UNL     1       4.833  -4.951  -9.121  0.00  0.00    +0.015 C 
ATOM     19  C   UNL     1       3.916  -4.603  -7.947  0.00  0.00    -0.013 C 
ATOM     20  C   UNL     1       4.158  -5.589  -6.802  0.00  0.00    +0.015 C 
ATOM     21  C   UNL     1       2.456  -4.692  -8.396  0.00  0.00    +0.015 C 
ENDBRANCH  12  19
ENDBRANCH  11  15
ENDBRANCH   7  11
ENDBRANCH   1   9
BRANCH   6  22
ATOM     22  N   UNL     1       1.672  -0.153  -2.643  0.00  0.00    -0.216 N 
ATOM     23  H   UNL     1       2.695  -0.553  -2.582  0.00  0.00    +0.174 HD
BRANCH  22  24
ATOM     24  S   UNL     1       0.374  -1.159  -2.432  0.00  0.00    +0.072 S 
ATOM     25  O   UNL     1      -0.428  -0.579  -1.413  0.00  0.00    -0.150 OA
ATOM     26  O   UNL     1       0.895  -2.478  -2.334  0.00  0.00    -0.150 OA
BRANCH  24  27
ATOM     27  C   UNL     1      -0.576  -1.102  -3.915  0.00  0.00    +0.111 A 
ATOM     28  C   UNL     1      -1.584  -0.164  -4.052  0.00  0.00    +0.031 A 
ATOM     29  C   UNL     1      -2.335  -0.112  -5.210  0.00  0.00    +0.030 A 
ATOM     30  C   UNL     1      -2.076  -1.002  -6.241  0.00  0.00    +0.067 A 
ATOM     31  C   UNL     1      -1.058  -1.948  -6.103  0.00  0.00    +0.069 A 
ATOM     32  C   UNL     1      -0.310  -1.993  -4.936  0.00  0.00    +0.056 A 
ATOM     33  N   UNL     1      -1.036  -2.690  -7.282  0.00  0.00    -0.306 N 
ATOM     34  H   UNL     1      -0.306  -3.504  -7.406  0.00  0.00    +0.170 HD
ATOM     35  C   UNL     1      -1.996  -2.217  -8.099  0.00  0.00    +0.325 A 
ATOM     36  O   UNL     1      -2.244  -2.645  -9.211  0.00  0.00    -0.247 OA
ATOM     37  N   UNL     1      -2.641  -1.199  -7.499  0.00  0.00    -0.306 N 
ATOM     38  H   UNL     1      -3.473  -0.562  -7.834  0.00  0.00    +0.170 HD
ENDBRANCH  24  27
ENDBRANCH  22  24
ENDBRANCH   6  22
TORSDOF 7
