REMARK  Name = ZINC33121129
REMARK  13 active torsions:
REMARK  status: ('A' for Active; 'I' for Inactive)
REMARK    1  A    between atoms: C_1  and  C_2
REMARK    2  A    between atoms: C_2  and  C_3
REMARK    3  A    between atoms: C_3  and  C_4
REMARK    4  A    between atoms: C_4  and  N_5
REMARK    5  A    between atoms: N_5  and  C_6
REMARK    6  A    between atoms: C_6  and  C_7
REMARK    7  A    between atoms: C_8  and  C_10
REMARK    8  A    between atoms: C_12  and  N_22
REMARK    9  A    between atoms: C_15  and  N_16
REMARK   10  A    between atoms: N_22  and  S_23
REMARK   11  A    between atoms: S_23  and  C_26
REMARK   12  A    between atoms: C_29  and  C_33
REMARK   13  A    between atoms: C_31  and  C_32
REMARK                            x       y       z     vdW  Elec       q    Type
REMARK                         _______ _______ _______ _____ _____    ______ ____
ROOT
ATOM      1  C   UNL     1      -2.077   5.148  -2.726  0.00  0.00    +0.060 A 
ATOM      2  C   UNL     1      -1.759   3.788  -2.773  0.00  0.00    +0.039 A 
ATOM      3  C   UNL     1      -1.634   3.069  -1.598  0.00  0.00    +0.049 A 
ATOM      4  C   UNL     1      -1.829   3.694  -0.370  0.00  0.00    +0.026 A 
ATOM      5  C   UNL     1      -2.138   5.037  -0.314  0.00  0.00    +0.026 A 
ATOM      6  C   UNL     1      -2.267   5.773  -1.484  0.00  0.00    +0.042 A 
ENDROOT
BRANCH   6   7
ATOM      7  N   UNL     1      -2.585   7.127  -1.426  0.00  0.00    -0.333 N 
ATOM      8  C   UNL     1      -3.849   7.341  -0.707  0.00  0.00    +0.086 C 
ATOM      9  C   UNL     1      -4.202   8.830  -0.734  0.00  0.00    -0.063 C 
ATOM     10  N   UNL     1      -3.112   9.600  -0.119  0.00  0.00    +0.381 N 
ATOM     11  C   UNL     1      -1.849   9.386  -0.838  0.00  0.00    -0.063 C 
ATOM     12  C   UNL     1      -1.495   7.897  -0.811  0.00  0.00    +0.086 C 
ATOM     13  H   UNL     1      -3.359  10.672  -0.149  0.00  0.00    -0.086 HD
ATOM     14  H   UNL     1      -2.983   9.283   0.926  0.00  0.00    -0.086 HD
ENDBRANCH   6   7
BRANCH   1  16
ATOM     15  N   UNL     1      -3.065   5.510  -4.933  0.00  0.00    -0.298 N 
ATOM     16  C   UNL     1      -2.213   5.922  -3.974  0.00  0.00    +0.248 C 
ATOM     17  O   UNL     1      -1.555   6.931  -4.138  0.00  0.00    -0.270 OA
BRANCH  15  18
ATOM     18  C   UNL     1      -3.940   4.360  -4.690  0.00  0.00    +0.104 C 
ATOM     19  C   UNL     1      -5.303   4.851  -4.198  0.00  0.00    +0.024 C 
ENDBRANCH  15  18
BRANCH  15  20
ATOM     20  C   UNL     1      -3.117   6.211  -6.218  0.00  0.00    +0.108 C 
BRANCH  20  21
ATOM     21  C   UNL     1      -2.120   5.573  -7.188  0.00  0.00    +0.019 C 
BRANCH  21  23
ATOM     22  C   UNL     1      -1.178   5.668  -9.500  0.00  0.00    +0.004 C 
ATOM     23  C   UNL     1      -2.175   6.306  -8.530  0.00  0.00    -0.002 C 
ENDBRANCH  21  23
ENDBRANCH  20  21
ENDBRANCH  15  20
ENDBRANCH   1  16
BRANCH   3  24
ATOM     24  N   UNL     1      -1.315   1.706  -1.645  0.00  0.00    -0.216 N 
ATOM     25  H   UNL     1      -1.849   1.040  -2.339  0.00  0.00    +0.174 HD
BRANCH  24  26
ATOM     26  S   UNL     1      -0.136   1.097  -0.654  0.00  0.00    +0.073 S 
ATOM     27  O   UNL     1      -0.410   1.586   0.651  0.00  0.00    -0.150 OA
ATOM     28  O   UNL     1      -0.041  -0.291  -0.943  0.00  0.00    -0.150 OA
BRANCH  26  29
ATOM     29  C   UNL     1       1.390   1.822  -1.154  0.00  0.00    +0.111 A 
ATOM     30  C   UNL     1       2.090   2.632  -0.279  0.00  0.00    +0.029 A 
ATOM     31  C   UNL     1       3.287   3.200  -0.671  0.00  0.00    +0.005 A 
ATOM     32  C   UNL     1       3.785   2.959  -1.938  0.00  0.00    -0.050 A 
ATOM     33  C   UNL     1       3.085   2.149  -2.813  0.00  0.00    +0.008 A 
ATOM     34  C   UNL     1       1.890   1.576  -2.419  0.00  0.00    -0.024 A 
ATOM     35  C   UNL     1       1.130   0.688  -3.370  0.00  0.00    +0.046 C 
ATOM     36  C   UNL     1       5.090   3.578  -2.366  0.00  0.00    +0.044 C 
ENDBRANCH  26  29
ENDBRANCH  24  26
ENDBRANCH   3  24
TORSDOF 9
