REMARK  Name = ZINC59057498
REMARK  10 active torsions:
REMARK  status: ('A' for Active; 'I' for Inactive)
REMARK    1  A    between atoms: C_1  and  C_2
REMARK    2  A    between atoms: C_4  and  N_28
REMARK    3  A    between atoms: C_6  and  C_7
REMARK    4  A    between atoms: N_9  and  C_10
REMARK    5  A    between atoms: C_10  and  C_11
REMARK    6  A    between atoms: C_14  and  C_17
REMARK    7  A    between atoms: C_17  and  N_18
REMARK    8  A    between atoms: C_20  and  C_27
REMARK    9  A    between atoms: C_23  and  C_26
REMARK   10  A    between atoms: C_29  and  C_31
REMARK                            x       y       z     vdW  Elec       q    Type
REMARK                         _______ _______ _______ _____ _____    ______ ____
ROOT
ATOM      1  C   UNL     1       0.031  -0.278   2.559  0.00  0.00    +0.251 C 
ATOM      2  O   UNL     1       0.018   0.917   2.797  0.00  0.00    -0.270 OA
ATOM      3  N   UNL     1       0.052  -1.166   3.572  0.00  0.00    -0.307 N 
ATOM      4  H   UNL     1       0.063  -2.118   3.382  0.00  0.00    +0.149 HD
ENDROOT
BRANCH   1  10
ATOM      5  C   UNL     1      -0.018   1.503   0.010  0.00  0.00    +0.045 C 
ATOM      6  C   UNL     1       0.002  -0.004   0.002  0.00  0.00    -0.029 A 
ATOM      7  C   UNL     1       0.007  -0.724  -1.164  0.00  0.00    +0.035 A 
ATOM      8  C   UNL     1       0.026  -2.098  -1.090  0.00  0.00    +0.073 A 
ATOM      9  S   UNL     1       0.037  -2.419   0.559  0.00  0.00    -0.069 S 
ATOM     10  C   UNL     1       0.023  -0.747   1.175  0.00  0.00    +0.078 A 
BRANCH   8  11
ATOM     11  N   UNL     1       0.033  -3.010  -2.137  0.00  0.00    -0.273 N 
ATOM     12  C   UNL     1       0.052  -4.332  -1.879  0.00  0.00    +0.284 C 
ATOM     13  O   UNL     1       0.063  -4.728  -0.728  0.00  0.00    -0.266 OA
ATOM     14  H   UNL     1       0.025  -2.694  -3.054  0.00  0.00    +0.156 HD
BRANCH  12  15
ATOM     15  C   UNL     1       0.060  -5.295  -2.985  0.00  0.00    +0.189 A 
ATOM     16  C   UNL     1       0.074  -6.655  -2.865  0.00  0.00    +0.054 A 
ATOM     17  C   UNL     1       0.076  -7.175  -4.169  0.00  0.00    +0.042 A 
ATOM     18  C   UNL     1       0.065  -6.123  -5.017  0.00  0.00    +0.196 A 
ATOM     19  O   UNL     1       0.050  -4.992  -4.300  0.00  0.00    -0.458 OA
ENDBRANCH  12  15
ENDBRANCH   8  11
ENDBRANCH   1  10
BRANCH   3  20
ATOM     20  C   UNL     1       0.060  -0.696   4.959  0.00  0.00    +0.139 C 
BRANCH  20  21
ATOM     21  C   UNL     1       0.085  -1.880   5.891  0.00  0.00    -0.030 A 
ATOM     22  C   UNL     1      -1.101  -2.443   6.325  0.00  0.00    +0.005 A 
ATOM     23  C   UNL     1      -1.079  -3.529   7.180  0.00  0.00    +0.002 A 
ATOM     24  C   UNL     1       0.130  -4.053   7.600  0.00  0.00    -0.064 A 
ATOM     25  C   UNL     1       1.315  -3.491   7.164  0.00  0.00    +0.002 A 
ATOM     26  C   UNL     1       1.293  -2.408   6.306  0.00  0.00    +0.005 A 
BRANCH  24  27
ATOM     27  C   UNL     1       0.154  -5.237   8.532  0.00  0.00    -0.043 C 
BRANCH  27  28
ATOM     28  N   UNL     1       0.168  -6.478   7.747  0.00  0.00    +0.383 N 
ATOM     29  C   UNL     1      -1.086  -6.593   6.994  0.00  0.00    -0.075 C 
ATOM     30  C   UNL     1      -1.044  -7.843   6.112  0.00  0.00    -0.031 C 
ATOM     31  C   UNL     1      -0.863  -9.080   6.997  0.00  0.00    +0.003 C 
ATOM     32  C   UNL     1       0.409  -8.915   7.834  0.00  0.00    -0.031 C 
ATOM     33  C   UNL     1       0.313  -7.626   8.651  0.00  0.00    -0.075 C 
ATOM     34  C   UNL     1       0.558 -10.110   8.778  0.00  0.00    +0.005 C 
ATOM     35  C   UNL     1      -2.353  -7.961   5.329  0.00  0.00    +0.005 C 
ATOM     36  H   UNL     1       0.945  -6.459   7.103  0.00  0.00    -0.081 HD
ENDBRANCH  27  28
ENDBRANCH  24  27
ENDBRANCH  20  21
ENDBRANCH   3  20
TORSDOF 7
