REMARK  Name = ZINC12250458
REMARK  10 active torsions:
REMARK  status: ('A' for Active; 'I' for Inactive)
REMARK    1  A    between atoms: C_1  and  C_2
REMARK    2  A    between atoms: C_6  and  N_8
REMARK    3  A    between atoms: C_9  and  C_11
REMARK    4  A    between atoms: C_12  and  C_37
REMARK    5  A    between atoms: C_14  and  S_25
REMARK    6  A    between atoms: C_15  and  C_23
REMARK    7  A    between atoms: C_16  and  C_18
REMARK    8  A    between atoms: S_25  and  C_26
REMARK    9  A    between atoms: C_26  and  C_27
REMARK   10  A    between atoms: N_29  and  C_30
REMARK                            x       y       z     vdW  Elec       q    Type
REMARK                         _______ _______ _______ _____ _____    ______ ____
ROOT
ATOM      1  C   UNL     1      10.829  -2.421  -1.123  0.00  0.00    +0.047 C 
ATOM      2  C   UNL     1       9.553  -2.822  -0.995  0.00  0.00    +0.015 C 
ATOM      3  N   UNL     1       8.590  -1.969  -0.530  0.00  0.00    -0.312 N 
ATOM      4  C   UNL     1       8.812  -0.610  -0.526  0.00  0.00    +0.080 C 
ATOM      5  C   UNL     1      10.074  -0.117  -0.641  0.00  0.00    +0.072 C 
ATOM      6  C   UNL     1      11.260  -1.031  -0.756  0.00  0.00    +0.134 C 
ATOM      7  C   UNL     1       9.178  -4.232  -1.370  0.00  0.00    +0.061 C 
ATOM      8  H   UNL     1       7.635  -2.369  -0.158  0.00  0.00    +0.152 HD
ENDROOT
BRANCH   6   9
ATOM      9  C   UNL     1      11.991  -1.070   0.561  0.00  0.00    +0.118 A 
ATOM     10  C   UNL     1      13.265  -0.689   0.766  0.00  0.00    +0.045 A 
ATOM     11  C   UNL     1      13.537  -0.890   2.138  0.00  0.00    +0.041 A 
ATOM     12  C   UNL     1      12.416  -1.391   2.688  0.00  0.00    +0.195 A 
ATOM     13  O   UNL     1      11.483  -1.497   1.728  0.00  0.00    -0.467 OA
ENDBRANCH   6   9
BRANCH   1  15
ATOM     14  N   UNL     1      13.076  -2.950  -1.754  0.00  0.00    -0.282 N 
ATOM     15  C   UNL     1      11.791  -3.334  -1.618  0.00  0.00    +0.247 C 
ATOM     16  O   UNL     1      11.458  -4.465  -1.921  0.00  0.00    -0.270 OA
ATOM     17  H   UNL     1      13.392  -1.954  -1.411  0.00  0.00    +0.155 HD
BRANCH  14  23
ATOM     18  C   UNL     1      17.052  -3.631  -4.564  0.00  0.00    +0.044 C 
ATOM     19  C   UNL     1      15.945  -4.176  -3.697  0.00  0.00    -0.049 A 
ATOM     20  C   UNL     1      15.851  -5.538  -3.473  0.00  0.00    +0.003 A 
ATOM     21  C   UNL     1      14.837  -6.042  -2.679  0.00  0.00    +0.002 A 
ATOM     22  C   UNL     1      13.915  -5.187  -2.108  0.00  0.00    +0.023 A 
ATOM     23  C   UNL     1      14.008  -3.819  -2.331  0.00  0.00    +0.034 A 
ATOM     24  C   UNL     1      15.024  -3.316  -3.134  0.00  0.00    +0.026 A 
ENDBRANCH  14  23
ENDBRANCH   1  15
BRANCH   5  25
ATOM     25  C   UNL     1      10.276   1.301  -0.649  0.00  0.00    +0.098 C 
ATOM     26  N   UNL     1      10.436   2.426  -0.654  0.00  0.00    -0.191 NA
ENDBRANCH   5  25
BRANCH   4  27
ATOM     27  S   UNL     1       7.450   0.498  -0.378  0.00  0.00    -0.100 S 
BRANCH  27  28
ATOM     28  C   UNL     1       6.088  -0.690  -0.271  0.00  0.00    +0.171 C 
BRANCH  28  29
ATOM     29  C   UNL     1       4.784   0.052  -0.135  0.00  0.00    +0.227 C 
ATOM     30  O   UNL     1       4.775   1.265  -0.112  0.00  0.00    -0.275 OA
ATOM     31  N   UNL     1       3.626  -0.631  -0.039  0.00  0.00    -0.285 N 
ATOM     32  H   UNL     1       3.640  -1.730   0.025  0.00  0.00    +0.155 HD
BRANCH  31  33
ATOM     33  C   UNL     1       2.407   0.056  -0.019  0.00  0.00    +0.033 A 
ATOM     34  C   UNL     1       2.259   1.230  -0.745  0.00  0.00    +0.025 A 
ATOM     35  C   UNL     1       1.055   1.906  -0.724  0.00  0.00    +0.022 A 
ATOM     36  C   UNL     1      -0.003   1.415   0.020  0.00  0.00    +0.041 A 
ATOM     37  C   UNL     1       0.142   0.244   0.744  0.00  0.00    +0.022 A 
ATOM     38  C   UNL     1       1.343  -0.436   0.726  0.00  0.00    +0.025 A 
ATOM     39 CL   UNL     1      -1.513   2.271   0.050  0.00  0.00    -0.084 Cl
ENDBRANCH  31  33
ENDBRANCH  28  29
ENDBRANCH  27  28
ENDBRANCH   4  27
TORSDOF 8
