REMARK  Name = ZINC09365627
REMARK  8 active torsions:
REMARK  status: ('A' for Active; 'I' for Inactive)
REMARK    1  A    between atoms: C_3  and  C_9
REMARK    2  A    between atoms: C_6  and  C_7
REMARK    3  A    between atoms: C_12  and  O_15
REMARK    4  A    between atoms: O_15  and  C_16
REMARK    5  A    between atoms: C_16  and  C_17
REMARK    6  A    between atoms: N_19  and  N_20
REMARK    7  A    between atoms: C_21  and  C_23
REMARK    8  A    between atoms: C_23  and  N_24
REMARK                            x       y       z     vdW  Elec       q    Type
REMARK                         _______ _______ _______ _____ _____    ______ ____
ROOT
ATOM      1  C   UNL     1      -4.244   4.130   3.280  0.00  0.00    +0.267 C 
ATOM      2  O   UNL     1      -4.906   4.569   2.363  0.00  0.00    -0.271 OA
ATOM      3  N   UNL     1      -3.139   3.401   3.024  0.00  0.00    -0.232 N 
ATOM      4  H   UNL     1      -2.609   3.050   3.757  0.00  0.00    +0.173 HD
ENDROOT
BRANCH   3   5
ATOM      5  N   UNL     1      -2.756   3.151   1.700  0.00  0.00    -0.233 N 
ATOM      6  C   UNL     1      -1.651   2.422   1.444  0.00  0.00    +0.247 C 
ATOM      7  O   UNL     1      -0.989   1.983   2.360  0.00  0.00    -0.273 OA
ATOM      8  H   UNL     1      -3.285   3.502   0.967  0.00  0.00    +0.173 HD
BRANCH   6   9
ATOM      9  C   UNL     1      -1.239   2.153   0.020  0.00  0.00    +0.215 C 
BRANCH   9  10
ATOM     10  N   UNL     1      -0.016   1.346   0.009  0.00  0.00    -0.215 N 
ATOM     11  C   UNL     1       0.002  -0.004   0.002  0.00  0.00    +0.247 C 
ATOM     12  O   UNL     1      -0.952  -0.753   0.007  0.00  0.00    -0.273 OA
ATOM     13  C   UNL     1       1.461  -0.382  -0.014  0.00  0.00    +0.113 C 
ATOM     14  C   UNL     1       1.804  -1.205  -1.263  0.00  0.00    +0.035 C 
ATOM     15  C   UNL     1       2.878  -2.208  -0.767  0.00  0.00    +0.003 C 
ATOM     16  C   UNL     1       2.390  -2.558   0.661  0.00  0.00    +0.003 C 
ATOM     17  C   UNL     1       1.831  -1.226   1.208  0.00  0.00    +0.035 C 
ATOM     18  N   UNL     1       2.171   0.899  -0.014  0.00  0.00    -0.285 N 
ATOM     19  C   UNL     1       1.222   1.856   0.000  0.00  0.00    +0.310 C 
ATOM     20  O   UNL     1       1.463   3.047   0.004  0.00  0.00    -0.252 OA
ATOM     21  H   UNL     1       3.132   1.032  -0.022  0.00  0.00    +0.151 HD
ENDBRANCH   9  10
ENDBRANCH   6   9
ENDBRANCH   3   5
BRANCH   1  22
ATOM     22  C   UNL     1      -4.656   4.399   4.704  0.00  0.00    +0.326 C 
BRANCH  22  23
ATOM     23  O   UNL     1      -5.848   5.186   4.714  0.00  0.00    -0.483 OA
BRANCH  23  27
ATOM     24  C   UNL     1      -7.395   6.198   8.406  0.00  0.00    -0.018 A 
ATOM     25  C   UNL     1      -8.034   6.622   7.241  0.00  0.00    +0.012 A 
ATOM     26  C   UNL     1      -7.514   6.283   6.010  0.00  0.00    +0.046 A 
ATOM     27  C   UNL     1      -6.357   5.519   5.929  0.00  0.00    +0.121 A 
ATOM     28  C   UNL     1      -5.722   5.091   7.087  0.00  0.00    +0.046 A 
ATOM     29  C   UNL     1      -6.233   5.431   8.322  0.00  0.00    +0.012 A 
BRANCH  24  32
ATOM     30  C   UNL     1      -7.826   6.470  12.127  0.00  0.00    +0.019 A 
ATOM     31  C   UNL     1      -7.311   6.134  10.896  0.00  0.00    +0.010 A 
ATOM     32  C   UNL     1      -7.951   6.560   9.731  0.00  0.00    -0.018 A 
ATOM     33  C   UNL     1      -9.111   7.331   9.814  0.00  0.00    +0.010 A 
ATOM     34  C   UNL     1      -9.632   7.663  11.044  0.00  0.00    +0.019 A 
ATOM     35  C   UNL     1      -8.991   7.238  12.211  0.00  0.00    +0.052 A 
BRANCH  35  36
ATOM     36  C   UNL     1      -9.527   7.589  13.491  0.00  0.00    +0.099 C 
ATOM     37  N   UNL     1      -9.953   7.867  14.507  0.00  0.00    -0.191 NA
ENDBRANCH  35  36
ENDBRANCH  24  32
ENDBRANCH  23  27
ENDBRANCH  22  23
ENDBRANCH   1  22
TORSDOF 8
