REMARK  Name = ZINC06546825
REMARK  13 active torsions:
REMARK  status: ('A' for Active; 'I' for Inactive)
REMARK    1  A    between atoms: C_1  and  C_2
REMARK    2  A    between atoms: C_2  and  O_3
REMARK    3  A    between atoms: O_3  and  C_4
REMARK    4  A    between atoms: C_4  and  C_6
REMARK    5  A    between atoms: C_6  and  N_7
REMARK    6  A    between atoms: C_8  and  C_10
REMARK    7  A    between atoms: C_10  and  C_12
REMARK    8  A    between atoms: C_10  and  N_18
REMARK    9  A    between atoms: C_15  and  C_17
REMARK   10  A    between atoms: N_18  and  C_19
REMARK   11  A    between atoms: C_25  and  C_27
REMARK   12  A    between atoms: C_28  and  N_35
REMARK   13  A    between atoms: C_29  and  C_32
REMARK                            x       y       z     vdW  Elec       q    Type
REMARK                         _______ _______ _______ _____ _____    ______ ____
ROOT
ATOM      1  N   UNL     1      -1.305   1.642  -0.131  0.00  0.00    -0.248 N 
ATOM      2  C   UNL     1      -0.381   0.830  -0.680  0.00  0.00    +0.262 C 
ATOM      3  O   UNL     1      -0.373  -0.356  -0.408  0.00  0.00    -0.269 OA
ENDROOT
BRANCH   1   4
ATOM      4  C   UNL     1      -1.378   2.983  -0.520  0.00  0.00    +0.038 A 
ATOM      5  C   UNL     1      -2.215   3.361  -1.562  0.00  0.00    +0.023 A 
ATOM      6  C   UNL     1      -2.287   4.688  -1.941  0.00  0.00    +0.002 A 
ATOM      7  C   UNL     1      -1.520   5.637  -1.291  0.00  0.00    +0.000 A 
ATOM      8  C   UNL     1      -0.682   5.263  -0.256  0.00  0.00    +0.002 A 
ATOM      9  C   UNL     1      -0.609   3.939   0.131  0.00  0.00    +0.023 A 
ENDBRANCH   1   4
BRANCH   2  10
ATOM     10  C   UNL     1       0.611   1.374  -1.610  0.00  0.00    +0.116 A 
ATOM     11  C   UNL     1       1.704   0.742  -2.207  0.00  0.00    +0.076 A 
ATOM     12  C   UNL     1       2.423   1.596  -3.044  0.00  0.00    +0.155 A 
ATOM     13  N   UNL     1       2.033   2.845  -3.177  0.00  0.00    -0.203 NA
ATOM     14  S   UNL     1       0.752   3.019  -2.276  0.00  0.00    +0.019 S 
BRANCH  12  15
ATOM     15  C   UNL     1       3.611   1.105  -3.766  0.00  0.00    +0.262 C 
ATOM     16  O   UNL     1       3.966  -0.051  -3.638  0.00  0.00    -0.269 OA
ATOM     17  N   UNL     1       4.303   1.938  -4.569  0.00  0.00    -0.324 N 
ATOM     18  H   UNL     1       4.020   2.860  -4.671  0.00  0.00    +0.145 HD
ATOM     19  H   UNL     1       5.084   1.615  -5.044  0.00  0.00    +0.145 HD
ENDBRANCH  12  15
BRANCH  11  20
ATOM     20  N   UNL     1       2.037  -0.589  -1.994  0.00  0.00    -0.355 N 
ATOM     21  H   UNL     1       1.497  -1.135  -1.401  0.00  0.00    +0.142 HD
ATOM     22  H   UNL     1       2.809  -0.973  -2.438  0.00  0.00    +0.142 HD
ENDBRANCH  11  20
ENDBRANCH   2  10
BRANCH   1  23
ATOM     23  C   UNL     1      -2.235   1.120   0.874  0.00  0.00    +0.233 C 
BRANCH  23  24
ATOM     24  C   UNL     1      -3.651   1.416   0.451  0.00  0.00    +0.135 A 
ATOM     25  C   UNL     1      -4.667   0.536   0.435  0.00  0.00    +0.047 A 
ATOM     26  C   UNL     1      -5.807   1.234  -0.026  0.00  0.00    +0.045 A 
ATOM     27  C   UNL     1      -5.418   2.499  -0.266  0.00  0.00    +0.102 A 
ATOM     28  O   UNL     1      -4.112   2.605   0.030  0.00  0.00    -0.462 OA
ATOM     29  C   UNL     1      -6.299   3.611  -0.773  0.00  0.00    +0.086 C 
ENDBRANCH  23  24
BRANCH  23  31
ATOM     30  N   UNL     1      -2.697   1.449   3.281  0.00  0.00    -0.303 N 
ATOM     31  C   UNL     1      -1.960   1.776   2.202  0.00  0.00    +0.242 C 
ATOM     32  O   UNL     1      -1.074   2.600   2.300  0.00  0.00    -0.273 OA
ATOM     33  H   UNL     1      -3.405   0.790   3.203  0.00  0.00    +0.149 HD
BRANCH  30  34
ATOM     34  C   UNL     1      -2.430   2.087   4.573  0.00  0.00    +0.225 C 
BRANCH  34  35
ATOM     35  C   UNL     1      -3.385   1.550   5.606  0.00  0.00    +0.324 C 
ATOM     36  O   UNL     1      -4.206   0.719   5.296  0.00  0.00    -0.249 OA
BRANCH  35  37
ATOM     37  O   UNL     1      -3.325   1.994   6.871  0.00  0.00    -0.464 OA
BRANCH  37  39
ATOM     38  C   UNL     1      -4.057   2.055   9.193  0.00  0.00    +0.048 C 
ATOM     39  C   UNL     1      -4.277   1.432   7.813  0.00  0.00    +0.229 C 
ENDBRANCH  37  39
ENDBRANCH  35  37
ENDBRANCH  34  35
ENDBRANCH  30  34
ENDBRANCH  23  31
ENDBRANCH   1  23
TORSDOF 11
