REMARK  Name = ZINC33613406
REMARK  12 active torsions:
REMARK  status: ('A' for Active; 'I' for Inactive)
REMARK    1  A    between atoms: C_1  and  C_2
REMARK    2  A    between atoms: C_2  and  C_3
REMARK    3  A    between atoms: C_4  and  C_30
REMARK    4  A    between atoms: C_5  and  N_10
REMARK    5  A    between atoms: C_7  and  C_9
REMARK    6  A    between atoms: N_14  and  S_17
REMARK    7  A    between atoms: S_17  and  C_20
REMARK    8  A    between atoms: C_23  and  C_26
REMARK    9  A    between atoms: C_26  and  C_27
REMARK   10  A    between atoms: C_26  and  C_28
REMARK   11  A    between atoms: C_26  and  C_29
REMARK   12  A    between atoms: C_30  and  C_31
REMARK                            x       y       z     vdW  Elec       q    Type
REMARK                         _______ _______ _______ _____ _____    ______ ____
ROOT
ATOM      1  N   UNL     1       1.900   0.490   1.091  0.00  0.00    -0.314 N 
ATOM      2  C   UNL     1       2.276   1.557   0.165  0.00  0.00    +0.108 C 
ATOM      3  C   UNL     1       2.465   2.842   0.941  0.00  0.00    +0.036 C 
ATOM      4  C   UNL     1       3.941   2.987   1.349  0.00  0.00    +0.111 C 
ATOM      5  N   UNL     1       4.510   1.693   1.772  0.00  0.00    -0.175 NA
ATOM      6  C   UNL     1       3.781   0.756   2.603  0.00  0.00    +0.128 C 
ATOM      7  C   UNL     1       2.964  -0.208   1.709  0.00  0.00    +0.123 C 
ENDROOT
BRANCH   1  10
ATOM      8  C   UNL     1      -1.206  -1.222   0.187  0.00  0.00    +0.024 A 
ATOM      9  C   UNL     1      -0.354  -0.328   0.807  0.00  0.00    +0.016 A 
ATOM     10  C   UNL     1       1.006  -0.388   0.501  0.00  0.00    +0.128 A 
ATOM     11  N   UNL     1       1.432  -1.306  -0.363  0.00  0.00    -0.219 NA
ATOM     12  C   UNL     1       0.584  -2.139  -0.931  0.00  0.00    +0.106 A 
ATOM     13  N   UNL     1      -0.707  -2.104  -0.667  0.00  0.00    -0.347 N 
ATOM     14  C   UNL     1       1.105  -3.160  -1.909  0.00  0.00    +0.086 C 
ATOM     15  H   UNL     1      -1.373  -2.822  -1.168  0.00  0.00    +0.167 HD
BRANCH   8  17
ATOM     16  C   UNL     1      -3.391  -0.311  -0.550  0.00  0.00    +0.010 C 
ATOM     17  C   UNL     1      -2.684  -1.195   0.479  0.00  0.00    +0.050 C 
ENDBRANCH   8  17
BRANCH   9  18
ATOM     18  C   UNL     1      -0.882   0.690   1.784  0.00  0.00    +0.075 C 
BRANCH  18  19
ATOM     19  C   UNL     1      -0.736   0.162   3.188  0.00  0.00    -0.043 A 
ATOM     20  C   UNL     1      -1.744  -0.599   3.749  0.00  0.00    +0.004 A 
ATOM     21  C   UNL     1      -1.607  -1.087   5.035  0.00  0.00    +0.000 A 
ATOM     22  C   UNL     1      -0.467  -0.806   5.764  0.00  0.00    +0.000 A 
ATOM     23  C   UNL     1       0.539  -0.040   5.205  0.00  0.00    +0.000 A 
ATOM     24  C   UNL     1       0.405   0.444   3.917  0.00  0.00    +0.004 A 
ENDBRANCH  18  19
ENDBRANCH   9  18
ENDBRANCH   1  10
BRANCH   5  25
ATOM     25  S   UNL     1       6.039   1.295   1.277  0.00  0.00    +0.061 S 
ATOM     26  O   UNL     1       6.706   2.518   0.996  0.00  0.00    -0.153 OA
ATOM     27  O   UNL     1       6.539   0.354   2.218  0.00  0.00    -0.153 OA
BRANCH  25  28
ATOM     28  C   UNL     1       5.886   0.441  -0.256  0.00  0.00    +0.105 A 
ATOM     29  C   UNL     1       5.750  -0.934  -0.271  0.00  0.00    +0.029 A 
ATOM     30  C   UNL     1       5.626  -1.604  -1.474  0.00  0.00    +0.006 A 
ATOM     31  C   UNL     1       5.645  -0.898  -2.663  0.00  0.00    -0.042 A 
ATOM     32  C   UNL     1       5.785   0.477  -2.648  0.00  0.00    +0.006 A 
ATOM     33  C   UNL     1       5.905   1.147  -1.445  0.00  0.00    +0.029 A 
BRANCH  31  34
ATOM     34  C   UNL     1       5.514  -1.629  -3.974  0.00  0.00    -0.013 C 
ATOM     35  C   UNL     1       6.760  -1.375  -4.826  0.00  0.00    +0.015 C 
ATOM     36  C   UNL     1       5.374  -3.130  -3.711  0.00  0.00    +0.015 C 
ATOM     37  C   UNL     1       4.276  -1.124  -4.718  0.00  0.00    +0.015 C 
ENDBRANCH  31  34
ENDBRANCH  25  28
ENDBRANCH   5  25
TORSDOF 7
