REMARK  Name = ZINC13130909
REMARK  9 active torsions:
REMARK  status: ('A' for Active; 'I' for Inactive)
REMARK    1  A    between atoms: C_7  and  S_16
REMARK    2  A    between atoms: C_9  and  C_11
REMARK    3  A    between atoms: S_16  and  C_17
REMARK    4  A    between atoms: C_17  and  C_18
REMARK    5  A    between atoms: N_20  and  C_21
REMARK    6  A    between atoms: C_21  and  C_22
REMARK    7  A    between atoms: C_22  and  C_23
REMARK    8  A    between atoms: C_26  and  S_29
REMARK    9  A    between atoms: S_29  and  N_32
REMARK                            x       y       z     vdW  Elec       q    Type
REMARK                         _______ _______ _______ _____ _____    ______ ____
ROOT
ATOM      1  C   UNL     1       0.585  -0.664  -1.018  0.00  0.00    +0.223 C 
ATOM      2  O   UNL     1       1.093  -0.046  -1.929  0.00  0.00    -0.275 OA
ATOM      3  N   UNL     1       0.002  -0.004   0.002  0.00  0.00    -0.314 N 
ATOM      4  H   UNL     1      -0.404  -0.499   0.731  0.00  0.00    +0.149 HD
ENDROOT
BRANCH   1   5
ATOM      5  C   UNL     1       0.606  -2.171  -1.026  0.00  0.00    +0.171 C 
BRANCH   5   6
ATOM      6  S   UNL     1       1.453  -2.755  -2.515  0.00  0.00    -0.096 S 
BRANCH   6  13
ATOM      7  C   UNL     1       3.042  -5.934  -5.274  0.00  0.00    +0.001 A 
ATOM      8  C   UNL     1       2.913  -7.296  -5.019  0.00  0.00    +0.002 A 
ATOM      9  C   UNL     1       2.284  -7.745  -3.896  0.00  0.00    +0.028 A 
ATOM     10  C   UNL     1       1.758  -6.822  -2.982  0.00  0.00    +0.076 A 
ATOM     11  C   UNL     1       1.887  -5.435  -3.247  0.00  0.00    +0.032 A 
ATOM     12  C   UNL     1       2.542  -5.008  -4.404  0.00  0.00    +0.012 A 
ATOM     13  C   UNL     1       1.334  -4.496  -2.272  0.00  0.00    +0.109 A 
ATOM     14  N   UNL     1       0.734  -5.000  -1.202  0.00  0.00    -0.220 NA
ATOM     15  C   UNL     1       0.643  -6.317  -1.016  0.00  0.00    +0.168 A 
ATOM     16  N   UNL     1       1.130  -7.207  -1.863  0.00  0.00    -0.227 NA
BRANCH  15  17
ATOM     17  C   UNL     1      -0.038  -6.806   0.197  0.00  0.00    +0.056 A 
ATOM     18  C   UNL     1      -0.618  -6.089   1.212  0.00  0.00    +0.019 A 
ATOM     19  C   UNL     1      -1.200  -6.770   2.255  0.00  0.00    +0.008 A 
ATOM     20  C   UNL     1      -1.184  -8.130   2.249  0.00  0.00    +0.046 A 
ATOM     21  S   UNL     1      -0.327  -8.488   0.724  0.00  0.00    -0.094 S 
ENDBRANCH  15  17
ENDBRANCH   6  13
ENDBRANCH   5   6
ENDBRANCH   1   5
BRANCH   3  22
ATOM     22  C   UNL     1      -0.018   1.461   0.010  0.00  0.00    +0.109 C 
BRANCH  22  23
ATOM     23  C   UNL     1      -0.734   1.954   1.269  0.00  0.00    +0.054 C 
BRANCH  23  24
ATOM     24  C   UNL     1      -0.754   3.461   1.277  0.00  0.00    -0.046 A 
ATOM     25  C   UNL     1       0.276   4.163   1.875  0.00  0.00    +0.005 A 
ATOM     26  C   UNL     1       0.259   5.545   1.878  0.00  0.00    +0.029 A 
ATOM     27  C   UNL     1      -0.792   6.225   1.293  0.00  0.00    +0.105 A 
ATOM     28  C   UNL     1      -1.825   5.523   0.700  0.00  0.00    +0.029 A 
ATOM     29  C   UNL     1      -1.806   4.141   0.692  0.00  0.00    +0.005 A 
BRANCH  27  30
ATOM     30  S   UNL     1      -0.815   7.987   1.301  0.00  0.00    +0.056 S 
ATOM     31  O   UNL     1       0.534   8.411   1.437  0.00  0.00    -0.153 OA
ATOM     32  O   UNL     1      -1.633   8.388   0.211  0.00  0.00    -0.153 OA
BRANCH  30  33
ATOM     33  N   UNL     1      -1.601   8.460   2.681  0.00  0.00    -0.204 NA
ATOM     34  H   UNL     1      -1.942   7.793   3.297  0.00  0.00    +0.144 HD
ATOM     35  H   UNL     1      -1.719   9.403   2.872  0.00  0.00    +0.144 HD
ENDBRANCH  30  33
ENDBRANCH  27  30
ENDBRANCH  23  24
ENDBRANCH  22  23
ENDBRANCH   3  22
TORSDOF 9
